# generated using pymatgen
data_V85Zn86O256
_symmetry_space_group_name_H-M   'P 1'
_cell_length_a   16.94501959
_cell_length_b   16.93458157
_cell_length_c   16.94378454
_cell_angle_alpha   89.98843306
_cell_angle_beta   90.05601144
_cell_angle_gamma   89.91522579
_symmetry_Int_Tables_number   1
_chemical_formula_structural   V85Zn86O256
_chemical_formula_sum   'V85 Zn86 O256'
_cell_volume   4862.12672718
_cell_formula_units_Z   1
loop_
 _symmetry_equiv_pos_site_id
 _symmetry_equiv_pos_as_xyz
  1  'x, y, z'
loop_
 _atom_site_type_symbol
 _atom_site_label
 _atom_site_symmetry_multiplicity
 _atom_site_fract_x
 _atom_site_fract_y
 _atom_site_fract_z
 _atom_site_occupancy
  V  V0  1  0.37115845  0.00142473  0.87398783  1
  V  V1  1  0.63173658  0.12944576  -0.00238441  1
  V  V2  1  0.87266622  0.50015137  0.37099288  1
  V  V3  1  0.37263325  0.24561467  0.13716788  1
  V  V4  1  0.13235850  0.49931760  0.12787814  1
  V  V5  1  0.75154893  0.00160640  0.23826126  1
  V  V6  1  0.38040523  -0.00520948  0.36966922  1
  V  V7  1  0.13065043  0.13005267  0.50150349  1
  V  V8  1  0.13146012  0.37762279  0.25141481  1
  V  V9  1  0.37446069  0.74869274  0.12653235  1
  V  V10  1  0.62497585  0.87714078  0.75122919  1
  V  V11  1  0.62684827  0.12957031  0.49184472  1
  V  V12  1  0.50171253  -0.00813504  0.49662113  1
  V  V13  1  0.74713034  0.75332046  0.49849948  1
  V  V14  1  0.12225004  0.61648845  -0.00308379  1
  V  V15  1  0.37257622  0.36010270  0.50266670  1
  V  V16  1  0.75481683  0.00288496  0.76371294  1
  V  V17  1  0.87248606  0.62278333  0.74936106  1
  V  V18  1  0.12525644  0.00137588  0.12401971  1
  V  V19  1  0.12356307  0.75139497  0.87605009  1
  V  V20  1  0.74692782  0.62273726  0.37579340  1
  V  V21  1  0.24849223  0.74898460  -0.00052732  1
  V  V22  1  0.00231654  0.61837541  0.12226869  1
  V  V23  1  0.24711353  0.36771296  0.11852994  1
  V  V24  1  0.00533987  0.87229217  0.37415209  1
  V  V25  1  0.13075089  -0.00837067  0.62459541  1
  V  V26  1  -0.00640410  0.00537218  -0.00129039  1
  V  V27  1  0.87539914  0.24807076  0.62457651  1
  V  V28  1  -0.00042397  0.75210269  0.75123781  1
  V  V29  1  0.37479921  0.49500986  0.87650110  1
  V  V30  1  0.00966962  0.62026219  0.62517530  1
  V  V31  1  0.24975819  0.87681845  0.12536921  1
  V  V32  1  0.37308713  0.87525774  -0.00145938  1
  V  V33  1  -0.00599270  0.88069697  0.87693209  1
  V  V34  1  0.00065357  0.37625214  0.37404863  1
  V  V35  1  -0.00114986  0.12577008  0.62421008  1
  V  V36  1  -0.00132502  0.00134556  0.49711485  1
  V  V37  1  0.24506663  0.13363432  0.88177701  1
  V  V38  1  0.74911324  0.87706299  0.62555969  1
  V  V39  1  0.89036399  0.48761144  0.87985997  1
  V  V40  1  0.25393952  0.00554302  0.24929160  1
  V  V41  1  0.87265002  0.37678969  0.50010764  1
  V  V42  1  0.87342762  0.00920599  0.36743054  1
  V  V43  1  0.50927750  0.37227966  0.87097347  1
  V  V44  1  0.36148109  0.49873665  0.37460608  1
  V  V45  1  0.62250220  0.76337240  0.36991775  1
  V  V46  1  0.62257229  0.62552221  0.49721271  1
  V  V47  1  -0.00994393  0.12278439  0.13493397  1
  V  V48  1  0.12619102  0.62556480  0.48613054  1
  V  V49  1  0.00830356  0.75024823  0.25201269  1
  V  V50  1  0.62587076  0.00550949  0.62605739  1
  V  V51  1  0.49848223  0.87493244  0.87454434  1
  V  V52  1  0.87670291  0.62590026  0.25237176  1
  V  V53  1  0.50535762  0.75715302  0.25079668  1
  V  V54  1  0.87415930  0.87708457  0.49801159  1
  V  V55  1  0.74625165  0.37531756  0.63091457  1
  V  V56  1  0.24699954  0.35620526  0.61878897  1
  V  V57  1  0.36686160  0.87666268  0.50154078  1
  V  V58  1  0.83194369  0.33089801  0.07000153  1
  V  V59  1  0.49496405  0.12879551  0.62339480  1
  V  V60  1  0.37264160  0.61842309  0.25097144  1
  V  V61  1  0.25713725  0.12840606  0.37490146  1
  V  V62  1  0.49670447  0.49923322  0.49386588  1
  V  V63  1  0.62341141  0.74579584  0.87800770  1
  V  V64  1  0.12174993  0.37624224  0.75035703  1
  V  V65  1  0.87275423  0.74980323  0.62447453  1
  V  V66  1  0.36491483  0.75497418  0.62315411  1
  V  V67  1  0.24948587  0.49984559  0.73340575  1
  V  V68  1  0.87808901  0.75305713  0.12117206  1
  V  V69  1  0.62215736  -0.00915431  0.12729957  1
  V  V70  1  0.62721304  0.37480886  0.24225000  1
  V  V71  1  0.62302351  0.49542921  0.62881613  1
  V  V72  1  0.37522654  0.62442022  0.74773572  1
  V  V73  1  0.74846376  0.61993713  0.87648969  1
  V  V74  1  0.25114451  0.62315328  0.87301018  1
  V  V75  1  0.13164441  0.25196039  0.37947153  1
  V  V76  1  0.75033062  0.75102012  -0.00146240  1
  V  V77  1  0.87727405  0.11918505  0.76663611  1
  V  V78  1  -0.00847696  0.24280568  0.25276613  1
  V  V79  1  0.37208246  0.13043281  0.74720547  1
  V  V80  1  0.49984544  0.61683767  0.11927797  1
  V  V81  1  0.50785646  0.25106048  0.74733789  1
  V  V82  1  0.49909348  0.12707455  0.12905278  1
  V  V83  1  0.37429686  0.36186416  -0.00148752  1
  V  V84  1  0.49840218  0.62801676  0.62324620  1
  Zn  Zn85  1  0.63231525  0.24761874  0.88232956  1
  Zn  Zn86  1  0.73979307  0.86495236  0.13523031  1
  Zn  Zn87  1  0.50575987  0.36410664  0.37540125  1
  Zn  Zn88  1  0.49860724  0.75163354  0.74798185  1
  Zn  Zn89  1  0.12493356  0.26621210  0.88802527  1
  Zn  Zn90  1  0.86756044  0.89064374  -0.00047490  1
  Zn  Zn91  1  0.74541882  0.13327165  0.35673885  1
  Zn  Zn92  1  0.13017344  0.14288446  0.01292534  1
  Zn  Zn93  1  0.74559084  0.47979967  0.20613200  1
  Zn  Zn94  1  0.50603964  0.49352631  0.00271023  1
  Zn  Zn95  1  0.66560465  0.56963872  0.04931497  1
  Zn  Zn96  1  0.24595901  0.63483121  0.36581484  1
  Zn  Zn97  1  0.12896713  0.87330130  0.74813850  1
  Zn  Zn98  1  0.25215871  -0.00463820  0.74566109  1
  Zn  Zn99  1  0.49932264  0.00213030  -0.00011095  1
  Zn  Zn100  1  0.13158188  0.87137805  0.25674881  1
  Zn  Zn101  1  -0.00291001  0.25835059  0.75343676  1
  Zn  Zn102  1  0.23883657  0.75889740  0.49233753  1
  Zn  Zn103  1  0.51609394  0.24254755  0.26009366  1
  Zn  Zn104  1  0.74337155  0.25189587  0.49661324  1
  Zn  Zn105  1  0.00287517  0.49792433  0.50469232  1
  Zn  Zn106  1  0.74509062  0.49510098  0.75392521  1
  Zn  Zn107  1  0.18640806  0.18947270  0.19179601  1
  Zn  Zn108  1  0.18642879  0.18519326  0.69243636  1
  Zn  Zn109  1  0.18959303  0.68665250  0.18742236  1
  Zn  Zn110  1  0.18760633  0.69061585  0.68665956  1
  Zn  Zn111  1  0.69616701  0.19460082  0.17719528  1
  Zn  Zn112  1  0.72597039  0.22637127  0.73485332  1
  Zn  Zn113  1  0.69327692  0.67292717  0.18468973  1
  Zn  Zn114  1  0.68459119  0.68719982  0.68954584  1
  Zn  Zn115  1  0.31446818  0.31452832  0.31404896  1
  Zn  Zn116  1  0.31408908  0.31092123  0.80686549  1
  Zn  Zn117  1  0.31545718  0.81276845  0.31382307  1
  Zn  Zn118  1  0.30873785  0.81431914  0.80740066  1
  Zn  Zn119  1  0.80417229  0.31099466  0.31341777  1
  Zn  Zn120  1  0.81913057  0.29727293  0.89936783  1
  Zn  Zn121  1  0.81448531  0.81582480  0.31088781  1
  Zn  Zn122  1  0.81257628  0.81434440  0.81400804  1
  Zn  Zn123  1  0.18575947  0.44276454  0.44489972  1
  Zn  Zn124  1  0.19109470  0.43890740  0.93696590  1
  Zn  Zn125  1  0.18803721  0.94097453  0.43757437  1
  Zn  Zn126  1  0.18380005  0.94104571  0.93709986  1
  Zn  Zn127  1  0.68516526  0.43366801  0.43142486  1
  Zn  Zn128  1  0.69487257  0.43157002  0.93801792  1
  Zn  Zn129  1  0.69003460  0.94375769  0.43175440  1
  Zn  Zn130  1  0.68398808  0.93882598  0.94425139  1
  Zn  Zn131  1  0.31513538  0.06566993  0.06105787  1
  Zn  Zn132  1  0.31324336  0.06512183  0.55917339  1
  Zn  Zn133  1  0.31434118  0.55731104  0.06147900  1
  Zn  Zn134  1  0.31231217  0.56555332  0.55629509  1
  Zn  Zn135  1  0.83466889  0.13057941  0.03123326  1
  Zn  Zn136  1  0.81021278  0.06097710  0.56398343  1
  Zn  Zn137  1  0.83375798  0.53916718  0.07176333  1
  Zn  Zn138  1  0.81210626  0.56134551  0.56063062  1
  Zn  Zn139  1  0.44027732  0.43208226  0.19066485  1
  Zn  Zn140  1  0.43490423  0.43475216  0.68384691  1
  Zn  Zn141  1  0.43748446  0.93794529  0.18725495  1
  Zn  Zn142  1  0.43652267  0.93949752  0.68728862  1
  Zn  Zn143  1  0.93934991  0.42502749  0.17315906  1
  Zn  Zn144  1  0.93294867  0.43988434  0.69043276  1
  Zn  Zn145  1  0.93534730  0.93668298  0.18789986  1
  Zn  Zn146  1  0.94040506  0.93922721  0.68763538  1
  Zn  Zn147  1  0.06762020  0.06063060  0.31343515  1
  Zn  Zn148  1  0.06257414  0.06489924  0.81223224  1
  Zn  Zn149  1  0.06023293  0.55777710  0.31016748  1
  Zn  Zn150  1  0.06650621  0.56041658  0.80520504  1
  Zn  Zn151  1  0.56453342  0.05695956  0.30917211  1
  Zn  Zn152  1  0.56065217  0.06336681  0.81270597  1
  Zn  Zn153  1  0.56343062  0.55598094  0.30575271  1
  Zn  Zn154  1  0.56120626  0.56027933  0.81442441  1
  Zn  Zn155  1  0.44015316  0.18163450  0.43621308  1
  Zn  Zn156  1  0.44226810  0.18652243  0.93892428  1
  Zn  Zn157  1  0.43355338  0.69098573  0.43332601  1
  Zn  Zn158  1  0.43635096  0.68732904  0.93699750  1
  Zn  Zn159  1  0.93618857  0.19131474  0.43758998  1
  Zn  Zn160  1  0.95992057  0.19683806  0.94070795  1
  Zn  Zn161  1  0.93900420  0.68901592  0.43911240  1
  Zn  Zn162  1  0.93630131  0.68339430  0.93715348  1
  Zn  Zn163  1  0.04581624  0.31196050  0.06391138  1
  Zn  Zn164  1  0.06273382  0.31442687  0.56486414  1
  Zn  Zn165  1  0.06189864  0.81487666  0.06139430  1
  Zn  Zn166  1  0.05901231  0.80885662  0.55993342  1
  Zn  Zn167  1  0.56431536  0.31273319  0.06682983  1
  Zn  Zn168  1  0.55856250  0.31063764  0.56278225  1
  Zn  Zn169  1  0.55941161  0.80741942  0.06034961  1
  Zn  Zn170  1  0.56008045  0.81344866  0.56123546  1
  O  O171  1  0.12330860  0.11223956  0.13071736  1
  O  O172  1  0.11604854  0.12181319  0.61950622  1
  O  O173  1  0.12360110  0.61795807  0.11827845  1
  O  O174  1  0.11128229  0.62629542  0.62591664  1
  O  O175  1  0.61702811  0.11922766  0.11608186  1
  O  O176  1  0.61418396  0.11071683  0.61623599  1
  O  O177  1  0.60152100  0.63636380  0.12235226  1
  O  O178  1  0.61618904  0.62178994  0.61762867  1
  O  O179  1  0.37165778  0.38276791  0.38829331  1
  O  O180  1  0.37594621  0.37825361  0.88118356  1
  O  O181  1  0.37513863  0.88783288  0.38402318  1
  O  O182  1  0.37914615  0.88110096  0.87724225  1
  O  O183  1  0.87866814  0.38303596  0.38206336  1
  O  O184  1  0.88058796  0.38852546  0.86357016  1
  O  O185  1  0.88419221  0.88480854  0.37944331  1
  O  O186  1  0.88957544  0.87070713  0.87888098  1
  O  O187  1  0.25554984  0.00535702  0.36678856  1
  O  O188  1  0.26049126  0.00710693  0.87504392  1
  O  O189  1  0.25911011  0.50639042  0.37883211  1
  O  O190  1  0.26138225  0.50407277  0.86561897  1
  O  O191  1  0.75755153  0.00650159  0.36314780  1
  O  O192  1  0.74617683  -0.00837114  0.86224804  1
  O  O193  1  0.75940972  0.51218207  0.38552030  1
  O  O194  1  0.75931788  0.50763020  0.87111068  1
  O  O195  1  0.23853529  0.49132394  0.12202704  1
  O  O196  1  0.25630063  0.49801133  0.63204905  1
  O  O197  1  0.24672748  0.99885498  0.13107561  1
  O  O198  1  0.23285692  1.00712316  0.62192297  1
  O  O199  1  0.74231020  0.56684081  0.13254131  1
  O  O200  1  0.73947957  0.49491121  0.62215604  1
  O  O201  1  0.74077714  0.99195688  0.13261496  1
  O  O202  1  0.74177431  0.99418523  0.63160483  1
  O  O203  1  0.01159048  0.36616385  0.25312559  1
  O  O204  1  0.01904609  0.37919935  0.73610739  1
  O  O205  1  0.00153131  0.86746480  0.25711941  1
  O  O206  1  0.00364195  0.87036342  0.75787745  1
  O  O207  1  0.51048110  0.37072263  0.25380217  1
  O  O208  1  0.48849452  0.36327112  0.75681355  1
  O  O209  1  0.49691101  0.85615517  0.24426190  1
  O  O210  1  0.50542054  0.87479327  0.75811796  1
  O  O211  1  0.50805363  0.12426005  0.23375776  1
  O  O212  1  0.49257865  0.12727292  0.74125226  1
  O  O213  1  0.49005476  0.62872475  0.23955205  1
  O  O214  1  0.49367490  0.62441269  0.73768763  1
  O  O215  1  1.00280901  0.13404216  0.25270869  1
  O  O216  1  0.98980983  0.11902914  0.73923585  1
  O  O217  1  0.99667249  0.63215725  0.24404770  1
  O  O218  1  0.99391736  0.63080441  0.74019613  1
  O  O219  1  0.37766293  0.25893866  0.00763875  1
  O  O220  1  0.37561277  0.26196823  0.49945714  1
  O  O221  1  0.36698833  0.75491879  0.00464674  1
  O  O222  1  0.37838614  0.76120034  0.50662543  1
  O  O223  1  0.86605916  0.23777862  -0.00831246  1
  O  O224  1  0.87842784  0.25887815  0.51220127  1
  O  O225  1  0.86716671  0.74813672  0.00676170  1
  O  O226  1  0.86824763  0.75714774  0.50471701  1
  O  O227  1  0.12008810  0.24490462  0.48847385  1
  O  O228  1  0.11784170  0.25639493  1.00176953  1
  O  O229  1  0.12359275  0.73216852  0.50726979  1
  O  O230  1  0.13058961  0.74048948  0.99641137  1
  O  O231  1  0.62273171  0.23251780  0.50532206  1
  O  O232  1  0.62267645  0.23559071  1.00243935  1
  O  O233  1  0.62627463  0.74427099  0.49188704  1
  O  O234  1  0.63163039  0.75269728  0.98633471  1
  O  O235  1  0.49219478  0.23905949  0.12783134  1
  O  O236  1  0.49850778  0.23599350  0.62850929  1
  O  O237  1  0.49143755  0.74256940  0.13157584  1
  O  O238  1  0.49425765  0.74073310  0.62549807  1
  O  O239  1  1.01562491  0.23321345  0.14833108  1
  O  O240  1  0.99588254  0.24250982  0.62928104  1
  O  O241  1  0.99608153  0.74358974  0.13022520  1
  O  O242  1  0.99204098  0.74192589  0.63122556  1
  O  O243  1  0.00817742  0.25567816  0.36877586  1
  O  O244  1  0.01551511  0.24623286  0.86220701  1
  O  O245  1  -0.00730684  0.75944398  0.36454798  1
  O  O246  1  0.00477816  0.75462165  0.87032983  1
  O  O247  1  0.48941160  0.25100057  0.36953072  1
  O  O248  1  0.50110958  0.25648745  0.86601863  1
  O  O249  1  0.50763778  0.74357542  0.35976754  1
  O  O250  1  0.50663931  0.75405515  0.87260240  1
  O  O251  1  0.23740060  0.12203012  0.49267872  1
  O  O252  1  0.24892961  0.12365493  0.98583862  1
  O  O253  1  0.23361350  0.62584789  0.49834843  1
  O  O254  1  0.24407952  0.62781845  0.99340400  1
  O  O255  1  0.73075485  0.12078545  0.50586119  1
  O  O256  1  0.73004381  0.11323285  0.99880481  1
  O  O257  1  0.74526254  0.63388584  0.49313482  1
  O  O258  1  0.74918360  0.63648432  0.98408867  1
  O  O259  1  0.25702762  0.37790640  0.01124232  1
  O  O260  1  0.25697343  0.37709982  0.51110435  1
  O  O261  1  0.25332953  0.87013429  0.00447014  1
  O  O262  1  0.26205363  0.87848653  0.50046053  1
  O  O263  1  0.76949103  0.36273292  -0.00864231  1
  O  O264  1  0.76146242  0.37519488  0.50514886  1
  O  O265  1  0.75265608  0.86305341  0.00096957  1
  O  O266  1  0.75412358  0.87351924  0.50511255  1
  O  O267  1  0.12317381  0.49051457  0.24134602  1
  O  O268  1  0.13819363  0.49041519  0.74782779  1
  O  O269  1  0.13540798  0.99501450  0.24427281  1
  O  O270  1  0.12196970  1.00146455  0.73201814  1
  O  O271  1  0.63181800  0.48918075  0.24743521  1
  O  O272  1  0.62365333  0.50509026  0.73277826  1
  O  O273  1  0.63512902  0.99911575  0.23919292  1
  O  O274  1  0.63160481  0.99805309  0.74358064  1
  O  O275  1  0.36823093  -0.00290431  0.25840574  1
  O  O276  1  0.37459890  0.00999448  0.75743823  1
  O  O277  1  0.38090296  0.50493739  0.26280296  1
  O  O278  1  0.36825575  0.50467291  0.75386420  1
  O  O279  1  0.86491761  -0.00132655  0.25515554  1
  O  O280  1  0.86990250  0.01000637  0.74639795  1
  O  O281  1  0.87533815  0.50714106  0.26283052  1
  O  O282  1  0.87076301  0.51305481  0.75383701  1
  O  O283  1  0.12383333  0.37124040  0.37144859  1
  O  O284  1  0.13723459  0.38003657  0.85500371  1
  O  O285  1  0.11019644  0.88104367  0.37660325  1
  O  O286  1  0.11434325  0.86575381  0.87837872  1
  O  O287  1  0.61918223  0.37887509  0.36237557  1
  O  O288  1  0.61112376  0.37293433  0.87519791  1
  O  O289  1  0.62675323  0.86244099  0.37963201  1
  O  O290  1  0.61644461  0.86991344  0.87162149  1
  O  O291  1  0.38695157  0.13181149  0.12133260  1
  O  O292  1  0.38330651  0.11677244  0.63307325  1
  O  O293  1  0.37876317  0.62951812  0.13039568  1
  O  O294  1  0.38131957  0.63244332  0.62574621  1
  O  O295  1  0.89064032  0.12070080  0.13016150  1
  O  O296  1  0.88831482  0.13014760  0.61505765  1
  O  O297  1  0.88930912  0.63356488  0.12916711  1
  O  O298  1  0.87856792  0.63169697  0.63026540  1
  O  O299  1  0.25664465  0.25627121  0.12783920  1
  O  O300  1  0.25004946  0.25786207  0.62407639  1
  O  O301  1  0.25566379  0.75556063  0.11974785  1
  O  O302  1  0.26211208  0.74615766  0.61817466  1
  O  O303  1  0.78039920  0.26416015  0.12443216  1
  O  O304  1  0.75880811  0.25740922  0.62354742  1
  O  O305  1  0.75735721  0.74827734  0.11664075  1
  O  O306  1  0.75196985  0.75638294  0.61927694  1
  O  O307  1  0.24425894  0.24060696  0.37068807  1
  O  O308  1  0.24844752  0.23629949  0.86965670  1
  O  O309  1  0.25535591  0.74755504  0.37983632  1
  O  O310  1  0.24436995  0.74210000  0.87949873  1
  O  O311  1  0.76706900  0.23792239  0.38707477  1
  O  O312  1  0.73780036  0.24976758  0.84410565  1
  O  O313  1  0.74363283  0.74776438  0.38173376  1
  O  O314  1  0.74328825  0.74587979  0.87925139  1
  O  O315  1  0.00851878  0.11995963  0.01558698  1
  O  O316  1  0.01178168  0.12228064  0.50382362  1
  O  O317  1  0.01190071  0.63270440  0.01001375  1
  O  O318  1  0.00739523  0.62690874  0.51035616  1
  O  O319  1  0.50496904  0.12198356  0.01288547  1
  O  O320  1  0.50721457  0.11407136  0.50635931  1
  O  O321  1  0.48795306  0.62236315  0.01525095  1
  O  O322  1  0.50031973  0.61968698  0.50694622  1
  O  O323  1  0.48643991  0.38185375  0.50174570  1
  O  O324  1  0.49088818  0.37292186  0.99017873  1
  O  O325  1  0.49232453  0.88747840  0.50319607  1
  O  O326  1  0.49127398  0.87431574  0.99039131  1
  O  O327  1  0.98992793  0.37646660  0.49550571  1
  O  O328  1  0.93983097  0.35090198  1.07746793  1
  O  O329  1  0.99346206  0.87908811  0.49286365  1
  O  O330  1  0.99695949  0.88560345  0.99467434  1
  O  O331  1  0.49361200  0.50224046  0.38755784  1
  O  O332  1  0.48623561  0.49090505  0.86852873  1
  O  O333  1  0.49154135  1.00544986  0.38245359  1
  O  O334  1  0.48682005  0.99388258  0.87511777  1
  O  O335  1  0.99132004  0.49245296  0.37730479  1
  O  O336  1  0.98873448  0.50589963  0.86504238  1
  O  O337  1  0.99435129  0.99398725  0.37835362  1
  O  O338  1  1.01013479  0.99245795  0.88591817  1
  O  O339  1  0.00842874  0.00392877  0.12373607  1
  O  O340  1  0.00644632  0.00749917  0.61576870  1
  O  O341  1  0.01113024  0.51255344  0.12954346  1
  O  O342  1  -0.00914029  0.51804612  0.62445534  1
  O  O343  1  0.50495652  0.00837230  0.12564204  1
  O  O344  1  0.50638017  0.00585984  0.61816264  1
  O  O345  1  0.49084993  0.51300612  0.12279031  1
  O  O346  1  0.50240163  0.50609944  0.61479203  1
  O  O347  1  0.23779608  0.36993421  0.23980172  1
  O  O348  1  0.24974327  0.38001898  0.73413147  1
  O  O349  1  0.25152182  0.88494042  0.24298517  1
  O  O350  1  0.24207992  0.88207310  0.75157639  1
  O  O351  1  0.73641831  0.37930002  0.25657105  1
  O  O352  1  0.75074098  0.37862665  0.73090762  1
  O  O353  1  0.75328534  0.89014822  0.24949201  1
  O  O354  1  0.74604109  0.88158704  0.74385058  1
  O  O355  1  0.24669481  0.11386310  0.26002923  1
  O  O356  1  0.25662869  0.11942524  0.75827581  1
  O  O357  1  0.26676028  0.62774003  0.24717621  1
  O  O358  1  0.25429322  0.61798478  0.75295542  1
  O  O359  1  0.74572572  0.10952033  0.24215078  1
  O  O360  1  0.77056557  0.11461721  0.74162248  1
  O  O361  1  0.76177218  0.63821522  0.27086152  1
  O  O362  1  0.75713865  0.62518234  0.75691023  1
  O  O363  1  0.36171343  0.11145049  0.38612692  1
  O  O364  1  0.36793321  0.11901040  0.87072726  1
  O  O365  1  0.37525509  0.61583409  0.36720159  1
  O  O366  1  0.37160991  0.61638438  0.86863249  1
  O  O367  1  0.87916238  0.11027811  0.38094919  1
  O  O368  1  0.88358212  0.12459128  0.86378257  1
  O  O369  1  0.87058290  0.61844829  0.37558770  1
  O  O370  1  0.86693626  0.62432958  0.86427213  1
  O  O371  1  0.12882456  0.38117687  0.13050589  1
  O  O372  1  0.14090465  0.37533082  0.62759119  1
  O  O373  1  0.13182674  0.88521540  0.12653380  1
  O  O374  1  0.11727294  0.88944519  0.62083463  1
  O  O375  1  0.61969138  0.38106958  0.13808724  1
  O  O376  1  0.63222720  0.38435605  0.61297776  1
  O  O377  1  0.62089392  0.88623312  0.11791844  1
  O  O378  1  0.62704328  0.88463805  0.63026706  1
  O  O379  1  0.12046712  0.25593585  0.26495882  1
  O  O380  1  0.12932108  0.26887071  0.74670724  1
  O  O381  1  0.11266531  0.75177430  0.24387193  1
  O  O382  1  0.11705610  0.74996830  0.75678886  1
  O  O383  1  0.63031980  0.26283295  0.24059696  1
  O  O384  1  0.60850775  0.24217967  0.74529569  1
  O  O385  1  0.61330303  0.74194430  0.25474556  1
  O  O386  1  0.62402388  0.75939170  0.75976432  1
  O  O387  1  0.37573327  0.25353974  0.23822684  1
  O  O388  1  0.38353223  0.23515574  0.75263753  1
  O  O389  1  0.38636181  0.74242616  0.24552406  1
  O  O390  1  0.37588129  0.74248195  0.74117363  1
  O  O391  1  0.89428509  0.25898582  0.25599273  1
  O  O392  1  0.87860474  0.23112189  0.73393493  1
  O  O393  1  0.88456209  0.74555401  0.24169725  1
  O  O394  1  0.87899269  0.74138027  0.74586649  1
  O  O395  1  0.38029674  0.49606577  0.49252060  1
  O  O396  1  0.37663866  0.48797515  0.98992201  1
  O  O397  1  0.38208722  0.99379737  0.49549585  1
  O  O398  1  0.37603458  0.99311933  0.99172466  1
  O  O399  1  0.87859679  0.49335195  0.49206963  1
  O  O400  1  0.88422066  0.50569393  0.97950462  1
  O  O401  1  0.87918667  0.99456995  0.49363780  1
  O  O402  1  0.89112811  1.00937110  1.00463806  1
  O  O403  1  0.11863075  0.00332283  0.01208552  1
  O  O404  1  0.11915169  0.00852089  0.50766063  1
  O  O405  1  0.12787639  0.51033959  0.00503027  1
  O  O406  1  0.11876725  0.51776612  0.50092956  1
  O  O407  1  0.61867330  0.00598344  0.01045993  1
  O  O408  1  0.61867742  0.00296532  0.50582505  1
  O  O409  1  0.61781210  0.50059277  -0.01881156  1
  O  O410  1  0.61549233  0.50682189  0.50630975  1
  O  O411  1  0.36684527  0.36822412  0.11908459  1
  O  O412  1  0.36294135  0.37745149  0.61106869  1
  O  O413  1  0.36939228  0.86936656  0.11859331  1
  O  O414  1  0.38135191  0.86590157  0.61692812  1
  O  O415  1  0.82834966  0.42628522  0.12804682  1
  O  O416  1  0.87074022  0.36932950  0.61897008  1
  O  O417  1  0.87647346  0.86113778  0.12074015  1
  O  O418  1  0.87071800  0.86976185  0.61996839  1
  O  O419  1  0.13418586  0.13155583  0.38254452  1
  O  O420  1  0.14146084  0.12130261  0.87481657  1
  O  O421  1  0.12190452  0.62471039  0.38297807  1
  O  O422  1  0.12892743  0.62908735  0.88061459  1
  O  O423  1  0.62603478  0.11649934  0.38939905  1
  O  O424  1  0.61173352  0.12407659  0.89349929  1
  O  O425  1  0.63184443  0.62908571  0.37908242  1
  O  O426  1  0.63383301  0.63517886  0.86398401  1
