# generated using pymatgen
data_V85Zn86O256
_symmetry_space_group_name_H-M   'P 1'
_cell_length_a   16.97257525
_cell_length_b   16.96225790
_cell_length_c   16.95950411
_cell_angle_alpha   90.02636006
_cell_angle_beta   90.11144884
_cell_angle_gamma   90.09434934
_symmetry_Int_Tables_number   1
_chemical_formula_structural   V85Zn86O256
_chemical_formula_sum   'V85 Zn86 O256'
_cell_volume   4882.50950557
_cell_formula_units_Z   1
loop_
 _symmetry_equiv_pos_site_id
 _symmetry_equiv_pos_as_xyz
  1  'x, y, z'
loop_
 _atom_site_type_symbol
 _atom_site_label
 _atom_site_symmetry_multiplicity
 _atom_site_fract_x
 _atom_site_fract_y
 _atom_site_fract_z
 _atom_site_occupancy
  V  V0  1  0.12579049  0.60968990  0.49611783  1
  V  V1  1  0.87380609  -0.00634086  0.37952554  1
  V  V2  1  0.62673903  0.63100891  -0.00243225  1
  V  V3  1  0.12216492  -0.00337833  0.63088435  1
  V  V4  1  0.24856325  -0.00252880  0.75629428  1
  V  V5  1  0.50090874  0.75262582  0.24592300  1
  V  V6  1  -0.00530714  0.50161294  -0.00323862  1
  V  V7  1  -0.00306078  -0.01396744  0.50299201  1
  V  V8  1  0.12596375  0.87652368  0.24871241  1
  V  V9  1  0.12753984  0.50129160  0.12964433  1
  V  V10  1  0.74658647  0.37676255  0.61746227  1
  V  V11  1  0.49982594  0.49430537  0.00043428  1
  V  V12  1  0.63506742  0.37854982  0.25430315  1
  V  V13  1  0.49899488  0.88838163  0.38378215  1
  V  V14  1  0.88254094  0.12607384  0.24916193  1
  V  V15  1  0.24814538  0.12535823  0.37545349  1
  V  V16  1  0.38011078  0.25459116  0.12240870  1
  V  V17  1  0.12382331  0.62935151  0.00021528  1
  V  V18  1  0.86750373  0.75099845  0.12178845  1
  V  V19  1  0.88352339  0.24795957  0.12526457  1
  V  V20  1  0.25288916  0.38057451  0.63013535  1
  V  V21  1  -0.00548651  0.38020065  0.87116414  1
  V  V22  1  0.75300755  0.24745294  -0.00099279  1
  V  V23  1  0.74666269  0.88154512  0.65967493  1
  V  V24  1  0.24373618  0.88178785  0.12482909  1
  V  V25  1  0.50418782  0.50561905  0.49969488  1
  V  V26  1  0.63200729  0.50206209  0.12848637  1
  V  V27  1  0.48944324  0.75319262  0.74378838  1
  V  V28  1  0.25018498  0.61732516  0.36603953  1
  V  V29  1  -0.01071229  0.74516872  0.74929294  1
  V  V30  1  0.88055244  0.39600327  0.50167193  1
  V  V31  1  0.37673356  0.00363661  0.37861722  1
  V  V32  1  0.61861893  0.88331829  0.24250030  1
  V  V33  1  0.37081189  0.75007140  0.12844503  1
  V  V34  1  0.75446091  0.12908797  0.38423617  1
  V  V35  1  0.12320373  0.24904793  0.87661490  1
  V  V36  1  0.75826683  0.62108810  0.87381671  1
  V  V37  1  0.25494382  0.25505550  0.00094022  1
  V  V38  1  0.62637337  0.37633019  0.74926193  1
  V  V39  1  0.86124999  0.61694294  0.24706290  1
  V  V40  1  0.37062313  0.12040470  0.75225770  1
  V  V41  1  0.00200629  0.00543576  0.01648183  1
  V  V42  1  0.25169639  0.12415936  0.87959352  1
  V  V43  1  0.63191023  0.11971155  0.01281061  1
  V  V44  1  0.37364788  0.88320638  -0.00761477  1
  V  V45  1  0.88029938  0.00561515  0.87385678  1
  V  V46  1  0.50080476  0.24721114  0.74882066  1
  V  V47  1  0.75347692  0.37756563  0.12779850  1
  V  V48  1  0.12192035  0.12487140  0.01571021  1
  V  V49  1  0.13131219  0.74607712  0.37841139  1
  V  V50  1  0.12466195  0.12388520  0.50138112  1
  V  V51  1  0.87562348  0.12294992  0.75158850  1
  V  V52  1  -0.00254308  0.62636958  0.12530929  1
  V  V53  1  -0.00174933  0.74959065  0.24774224  1
  V  V54  1  -0.00764783  0.62460478  0.62316264  1
  V  V55  1  0.49742696  0.62468813  0.12296122  1
  V  V56  1  0.12853950  0.50417556  0.63789815  1
  V  V57  1  0.00015845  0.25126216  0.74920279  1
  V  V58  1  0.87167170  0.24957314  0.61207879  1
  V  V59  1  0.70561423  0.07442186  0.82645553  1
  V  V60  1  0.25718702  0.38213591  0.12758229  1
  V  V61  1  0.62011172  0.11649567  0.49955401  1
  V  V62  1  0.24333619  0.00249814  0.24515890  1
  V  V63  1  0.74567576  0.87664252  0.12367209  1
  V  V64  1  0.73643641  0.62167519  0.38519812  1
  V  V65  1  0.62774191  0.51238618  0.62536185  1
  V  V66  1  0.63353101  0.25257426  0.87614996  1
  V  V67  1  -0.00408919  0.12460484  0.62364642  1
  V  V68  1  -0.00227507  0.87120965  0.37681133  1
  V  V69  1  0.37686223  0.12757818  0.24674247  1
  V  V70  1  0.76559243  0.50053825  0.75169343  1
  V  V71  1  0.50073316  0.00318933  -0.00309925  1
  V  V72  1  0.87368591  0.87544251  -0.00003620  1
  V  V73  1  0.62561413  0.75099034  0.86702715  1
  V  V74  1  0.12279058  0.25203926  0.37679480  1
  V  V75  1  0.24936321  0.75243609  -0.00368091  1
  V  V76  1  0.50072190  0.37428424  0.37691312  1
  V  V77  1  0.74690084  0.00348119  0.24593771  1
  V  V78  1  0.12691152  0.37785107  0.25146651  1
  V  V79  1  0.49315589  0.37248040  0.87964407  1
  V  V80  1  0.87487411  0.37695505  -0.00169189  1
  V  V81  1  0.37104240  0.49881140  0.36826527  1
  V  V82  1  0.37298981  0.24536874  0.62352900  1
  V  V83  1  0.63169738  0.25382752  0.38416361  1
  V  V84  1  0.48785714  0.62319797  0.63122121  1
  Zn  Zn85  1  0.36445206  0.61259532  0.23865664  1
  Zn  Zn86  1  0.24924295  0.24906981  0.50330489  1
  Zn  Zn87  1  0.26260776  0.85521130  0.62880060  1
  Zn  Zn88  1  0.36894200  0.49511313  0.87353882  1
  Zn  Zn89  1  0.12313213  0.87135054  0.75446195  1
  Zn  Zn90  1  0.37420872  0.37409250  0.50023481  1
  Zn  Zn91  1  0.24660806  0.61039381  0.86771400  1
  Zn  Zn92  1  0.36644194  0.61527107  0.75455433  1
  Zn  Zn93  1  0.49107468  0.11434049  0.61340291  1
  Zn  Zn94  1  -0.00053599  0.87382235  0.87240571  1
  Zn  Zn95  1  0.50527536  0.24940971  0.25003976  1
  Zn  Zn96  1  0.12182524  0.75201492  0.87262325  1
  Zn  Zn97  1  0.12967869  0.37706802  0.75357331  1
  Zn  Zn98  1  0.00407217  0.24824229  0.24725184  1
  Zn  Zn99  1  0.82395620  0.80450462  0.53238910  1
  Zn  Zn100  1  0.63900676  0.75998389  0.37858201  1
  Zn  Zn101  1  0.37087658  0.85300255  0.51086394  1
  Zn  Zn102  1  0.87333973  0.49943175  0.36668736  1
  Zn  Zn103  1  0.50578922  0.12137440  0.12659550  1
  Zn  Zn104  1  0.00453837  0.38318120  0.38214485  1
  Zn  Zn105  1  0.50083953  0.87442057  0.87461767  1
  Zn  Zn106  1  0.62763178  0.99779691  0.62876035  1
  Zn  Zn107  1  0.19180367  0.19368562  0.18949468  1
  Zn  Zn108  1  0.18674632  0.18691585  0.68735947  1
  Zn  Zn109  1  0.18804902  0.68957640  0.18907281  1
  Zn  Zn110  1  0.19112863  0.68994755  0.69405468  1
  Zn  Zn111  1  0.69473646  0.19325686  0.19250822  1
  Zn  Zn112  1  0.68689532  0.19311976  0.67896364  1
  Zn  Zn113  1  0.68389691  0.69317654  0.18691399  1
  Zn  Zn114  1  0.69205754  0.68865709  0.69249585  1
  Zn  Zn115  1  0.31095846  0.31231396  0.31107273  1
  Zn  Zn116  1  0.31280040  0.31207866  0.81027950  1
  Zn  Zn117  1  0.34615793  0.77720385  0.35621393  1
  Zn  Zn118  1  0.31109948  0.80947901  0.81230752  1
  Zn  Zn119  1  0.81458867  0.31217131  0.31623606  1
  Zn  Zn120  1  0.81468864  0.31327282  0.80714385  1
  Zn  Zn121  1  0.81060702  0.80921534  0.31292512  1
  Zn  Zn122  1  0.81633329  0.80468576  0.81941373  1
  Zn  Zn123  1  0.19285429  0.43574761  0.44262474  1
  Zn  Zn124  1  0.17983996  0.43443038  0.94155499  1
  Zn  Zn125  1  0.18716130  0.93413866  0.43568177  1
  Zn  Zn126  1  0.18099131  0.93908564  0.93778236  1
  Zn  Zn127  1  0.69363213  0.44830668  0.43970950  1
  Zn  Zn128  1  0.68641313  0.43996656  0.93826247  1
  Zn  Zn129  1  0.68901187  0.93885924  0.43467000  1
  Zn  Zn130  1  0.68580513  0.93367536  0.94222190  1
  Zn  Zn131  1  0.31481942  0.06390428  0.06217643  1
  Zn  Zn132  1  0.31068042  0.00329771  0.56216374  1
  Zn  Zn133  1  0.30182535  0.54874746  0.02927927  1
  Zn  Zn134  1  0.31103513  0.56328946  0.55240103  1
  Zn  Zn135  1  0.81475156  0.06385383  0.06365927  1
  Zn  Zn136  1  0.80866012  0.05295630  0.56575821  1
  Zn  Zn137  1  0.81025347  0.56423512  0.05796356  1
  Zn  Zn138  1  0.83034110  0.60854698  0.54247386  1
  Zn  Zn139  1  0.44584035  0.43421663  0.18817948  1
  Zn  Zn140  1  0.43620106  0.43621460  0.68941964  1
  Zn  Zn141  1  0.43213987  0.94393640  0.17857686  1
  Zn  Zn142  1  0.44774330  0.93078341  0.68217670  1
  Zn  Zn143  1  0.94331534  0.43646469  0.18804324  1
  Zn  Zn144  1  0.94126692  0.44150984  0.68248641  1
  Zn  Zn145  1  0.93438236  0.93700095  0.19162340  1
  Zn  Zn146  1  0.92966771  0.92800850  0.68489883  1
  Zn  Zn147  1  0.06077664  0.06128876  0.31408784  1
  Zn  Zn148  1  0.06195883  0.06375513  0.81776164  1
  Zn  Zn149  1  0.05555801  0.55950080  0.31130277  1
  Zn  Zn150  1  0.06131428  0.56610328  0.81208932  1
  Zn  Zn151  1  0.56579961  0.06723071  0.30912086  1
  Zn  Zn152  1  0.53096655  0.03728128  0.78720480  1
  Zn  Zn153  1  0.55761817  0.56137255  0.30782413  1
  Zn  Zn154  1  0.55932163  0.56123505  0.81155104  1
  Zn  Zn155  1  0.43907250  0.18755164  0.43582853  1
  Zn  Zn156  1  0.44049333  0.18658066  0.93741084  1
  Zn  Zn157  1  0.48397221  0.71752826  0.47109102  1
  Zn  Zn158  1  0.43647879  0.68587585  0.93503778  1
  Zn  Zn159  1  0.94209236  0.18708899  0.43625939  1
  Zn  Zn160  1  0.93846278  0.18658960  0.93766421  1
  Zn  Zn161  1  0.94496283  0.68063926  0.43167223  1
  Zn  Zn162  1  0.93581673  0.69051379  0.93708293  1
  Zn  Zn163  1  0.06445758  0.31441043  0.06145888  1
  Zn  Zn164  1  0.06222133  0.31656659  0.56461167  1
  Zn  Zn165  1  0.05967600  0.81627691  0.06186397  1
  Zn  Zn166  1  0.09866691  0.78604491  0.58327940  1
  Zn  Zn167  1  0.56708847  0.31069607  0.06360338  1
  Zn  Zn168  1  0.56202428  0.31074228  0.56111710  1
  Zn  Zn169  1  0.56126891  0.81396865  0.05856266  1
  Zn  Zn170  1  0.64502763  0.80360305  0.55271456  1
  O  O171  1  0.12950131  0.13292775  0.11478334  1
  O  O172  1  0.11544838  0.11898565  0.61896975  1
  O  O173  1  0.11922756  0.61986483  0.11903715  1
  O  O174  1  0.12505602  0.61209353  0.61573123  1
  O  O175  1  0.62628597  0.13618214  0.11600437  1
  O  O176  1  0.62927790  0.12640786  0.60685364  1
  O  O177  1  0.62143848  0.61947180  0.11861795  1
  O  O178  1  0.61692949  0.61418301  0.63372291  1
  O  O179  1  0.38501245  0.37697527  0.37459043  1
  O  O180  1  0.39029821  0.36798506  0.87574366  1
  O  O181  1  0.38791661  0.89057831  0.36338554  1
  O  O182  1  0.37427003  0.86866062  0.89057121  1
  O  O183  1  0.87070504  0.37601678  0.39345634  1
  O  O184  1  0.88791591  0.36784083  0.88149094  1
  O  O185  1  0.88145859  0.88294372  0.36829862  1
  O  O186  1  0.87678959  0.88355742  0.88564918  1
  O  O187  1  0.25703886  0.00779868  0.36435901  1
  O  O188  1  0.24242806  0.01059157  0.86605995  1
  O  O189  1  0.26055187  0.50018225  0.37464668  1
  O  O190  1  0.26143717  0.50573550  0.92047814  1
  O  O191  1  0.75761701  0.00642864  0.36633972  1
  O  O192  1  0.76163436  0.00723243  0.88394371  1
  O  O193  1  0.75578416  0.51498612  0.37040805  1
  O  O194  1  0.74259473  0.51083795  0.86590234  1
  O  O195  1  0.24305794  0.48882574  0.11472946  1
  O  O196  1  0.23955052  0.49278941  0.61725252  1
  O  O197  1  0.25323002  0.99420889  0.13232796  1
  O  O198  1  0.23435588  1.01466240  0.64568874  1
  O  O199  1  0.73884764  0.49385005  0.11790535  1
  O  O200  1  0.74039991  0.49230660  0.63622316  1
  O  O201  1  0.76085176  0.99214988  0.13895617  1
  O  O202  1  0.74435375  0.98891173  0.63174327  1
  O  O203  1  0.01596679  0.37053300  0.24867153  1
  O  O204  1  0.00149071  0.37052335  0.75658001  1
  O  O205  1  0.00614004  0.87052890  0.25483599  1
  O  O206  1  -0.00315991  0.86018990  0.74821274  1
  O  O207  1  0.51482857  0.37294826  0.26251161  1
  O  O208  1  0.50625051  0.36079570  0.75693781  1
  O  O209  1  0.51146286  0.87652853  0.23309426  1
  O  O210  1  0.49683850  0.85803562  0.75560086  1
  O  O211  1  0.49229181  0.12965522  0.24575226  1
  O  O212  1  0.48544742  0.14117054  0.76779535  1
  O  O213  1  0.49914382  0.63740945  0.24040359  1
  O  O214  1  0.49531742  0.63134114  0.74582264  1
  O  O215  1  0.98664725  0.12694881  0.25604316  1
  O  O216  1  0.99287161  0.13074781  0.74505079  1
  O  O217  1  0.98973246  0.63182350  0.24091977  1
  O  O218  1  1.00689812  0.63392785  0.73902603  1
  O  O219  1  0.36653040  0.24418974  0.00946847  1
  O  O220  1  0.37556157  0.24665822  0.51296728  1
  O  O221  1  0.36703668  0.75734507  0.01185063  1
  O  O222  1  0.38016800  0.75269144  0.46559510  1
  O  O223  1  0.87150247  0.25384937  0.00653027  1
  O  O224  1  0.87819005  0.24979055  0.51076548  1
  O  O225  1  0.88065442  0.76298386  0.00990262  1
  O  O226  1  0.87426873  0.71097159  0.51034505  1
  O  O227  1  0.12339496  0.24284665  0.49499381  1
  O  O228  1  0.13058553  0.24307439  0.99629346  1
  O  O229  1  0.11397153  0.73352952  0.47997527  1
  O  O230  1  0.12894564  0.74413763  1.00200522  1
  O  O231  1  0.62542382  0.24264944  0.48911487  1
  O  O232  1  0.63246249  0.24306288  0.99248736  1
  O  O233  1  0.59081729  0.74423219  0.47921422  1
  O  O234  1  0.61865564  0.73587063  0.99311645  1
  O  O235  1  0.48996901  0.25125000  0.12578096  1
  O  O236  1  0.49463791  0.24414161  0.63441960  1
  O  O237  1  0.49189418  0.74860142  0.12975560  1
  O  O238  1  0.50368382  0.73749938  0.64191526  1
  O  O239  1  0.98741075  0.25490218  0.12419522  1
  O  O240  1  0.99287366  0.24471491  0.63028803  1
  O  O241  1  0.99043302  0.74683000  0.12921778  1
  O  O242  1  1.00512482  0.73349722  0.63296689  1
  O  O243  1  0.01274119  0.25641094  0.37419239  1
  O  O244  1  0.00481316  0.25629072  0.87006890  1
  O  O245  1  0.00483353  0.75265951  0.36462348  1
  O  O246  1  -0.00064991  0.74855483  0.86368887  1
  O  O247  1  0.50949238  0.25949706  0.37439621  1
  O  O248  1  0.51354666  0.25595987  0.87367450  1
  O  O249  1  0.49244506  0.77577821  0.34987196  1
  O  O250  1  0.50954526  0.74863362  0.86800974  1
  O  O251  1  0.23250067  0.12183612  0.49328068  1
  O  O252  1  0.24327083  0.13231621  0.99665473  1
  O  O253  1  0.23821864  0.61834353  0.48099016  1
  O  O254  1  0.23666166  0.64129004  1.01201090  1
  O  O255  1  0.74334233  0.11945285  0.48861822  1
  O  O256  1  0.74514662  0.13437302  1.00525462  1
  O  O257  1  0.73328542  0.61807738  0.48544821  1
  O  O258  1  0.73854765  0.61783282  0.98637798  1
  O  O259  1  0.24203383  0.35966467  0.01207922  1
  O  O260  1  0.25399999  0.36853979  0.51389137  1
  O  O261  1  0.25324802  0.87339835  0.00651762  1
  O  O262  1  0.26221814  0.90444418  0.51064323  1
  O  O263  1  0.75627662  0.36969755  0.00463872  1
  O  O264  1  0.76062411  0.38159730  0.51205011  1
  O  O265  1  0.76459197  0.88484860  0.01079983  1
  O  O266  1  0.73305460  0.85351263  0.48695201  1
  O  O267  1  0.12212933  0.49461679  0.23622483  1
  O  O268  1  0.12855018  0.49893151  0.74113917  1
  O  O269  1  0.13626319  0.99757590  0.25584849  1
  O  O270  1  0.12807473  1.00113006  0.74656069  1
  O  O271  1  0.62147731  0.49045852  0.24010301  1
  O  O272  1  0.62529826  0.49080148  0.74179033  1
  O  O273  1  0.63613845  0.99757970  0.24885069  1
  O  O274  1  0.64490857  1.01579502  0.77410908  1
  O  O275  1  0.36491826  0.01160469  0.25103306  1
  O  O276  1  0.36566356  0.01558488  0.75262800  1
  O  O277  1  0.38758555  0.49808800  0.26278530  1
  O  O278  1  0.38449271  0.49986039  0.76129239  1
  O  O279  1  0.87019446  0.00730087  0.26078786  1
  O  O280  1  0.88094653  0.01382870  0.75799913  1
  O  O281  1  0.87471726  0.51498335  0.23811735  1
  O  O282  1  0.86401735  0.48864653  0.75257905  1
  O  O283  1  0.12817728  0.36929944  0.36903862  1
  O  O284  1  0.11373175  0.36783881  0.87538306  1
  O  O285  1  0.12021141  0.86515886  0.37012503  1
  O  O286  1  0.11646770  0.87272520  0.87442561  1
  O  O287  1  0.62527389  0.37153776  0.37270866  1
  O  O288  1  0.62103519  0.36769108  0.86859711  1
  O  O289  1  0.61063909  0.88139022  0.36001326  1
  O  O290  1  0.62561688  0.85370598  0.88692465  1
  O  O291  1  0.37459103  0.13499097  0.13418570  1
  O  O292  1  0.37637423  0.13146008  0.63700968  1
  O  O293  1  0.38045005  0.63455633  0.12290050  1
  O  O294  1  0.38577041  0.61614291  0.62387421  1
  O  O295  1  0.86842942  0.13577245  0.13716013  1
  O  O296  1  0.87559585  0.13075170  0.63031105  1
  O  O297  1  0.87590372  0.63386324  0.12719410  1
  O  O298  1  0.89618359  0.60264196  0.63452544  1
  O  O299  1  0.26134298  0.25851232  0.12036443  1
  O  O300  1  0.25798228  0.25333557  0.62453165  1
  O  O301  1  0.25493279  0.75937771  0.12003567  1
  O  O302  1  0.20784216  0.76080132  0.61068215  1
  O  O303  1  0.76127055  0.25931480  0.12039204  1
  O  O304  1  0.76109470  0.26440001  0.63052008  1
  O  O305  1  0.75972914  0.76055309  0.12810591  1
  O  O306  1  0.73773368  0.77016331  0.62993579  1
  O  O307  1  0.23940537  0.24411157  0.37863427  1
  O  O308  1  0.24389206  0.24802901  0.88397806  1
  O  O309  1  0.23779145  0.73628459  0.36328567  1
  O  O310  1  0.24625296  0.75208990  0.89097881  1
  O  O311  1  0.74441766  0.23973580  0.37261505  1
  O  O312  1  0.74028443  0.25890386  0.87933148  1
  O  O313  1  0.74979997  0.72870141  0.36355077  1
  O  O314  1  0.73674706  0.73445117  0.86918953  1
  O  O315  1  0.00674720  0.11481959  -0.00020523  1
  O  O316  1  0.00833471  0.11654258  0.50308020  1
  O  O317  1  0.00335955  0.62070584  0.00535348  1
  O  O318  1  0.01083100  0.62174419  0.51474755  1
  O  O319  1  0.51246135  0.12038669  -0.00117484  1
  O  O320  1  0.51586295  0.12804351  0.49857391  1
  O  O321  1  0.50860028  0.61678379  0.00557676  1
  O  O322  1  0.49930258  0.60911417  0.51256769  1
  O  O323  1  0.49966677  0.38081431  0.48967033  1
  O  O324  1  0.51398358  0.38107093  0.99034126  1
  O  O325  1  0.49507919  0.88730018  0.48147952  1
  O  O326  1  0.48990258  0.88266670  1.00099350  1
  O  O327  1  0.98338054  0.37515438  0.50323288  1
  O  O328  1  0.99615783  0.38337773  0.99342237  1
  O  O329  1  1.00217246  0.88448827  0.49549370  1
  O  O330  1  0.98978458  0.88879382  1.00260306  1
  O  O331  1  0.49812105  0.49333231  0.38222570  1
  O  O332  1  0.50710835  0.48713750  0.88506170  1
  O  O333  1  0.49273246  0.99356390  0.35958347  1
  O  O334  1  0.50324507  0.99279973  0.88797172  1
  O  O335  1  0.98715011  0.49389228  0.36741146  1
  O  O336  1  1.00582539  0.49206942  0.88364586  1
  O  O337  1  0.99271744  0.99307024  0.38197680  1
  O  O338  1  0.98889136  1.00095490  0.88429848  1
  O  O339  1  -0.00720632  0.00137413  0.11506137  1
  O  O340  1  -0.00119678  0.00600313  0.61915292  1
  O  O341  1  0.00789861  0.50637590  0.11832230  1
  O  O342  1  0.01899160  0.50809323  0.63013928  1
  O  O343  1  0.49613898  0.00605540  0.10649349  1
  O  O344  1  0.51945880  0.01657776  0.66788259  1
  O  O345  1  0.51383831  0.50203126  0.12043080  1
  O  O346  1  0.50784609  0.50220267  0.61974171  1
  O  O347  1  0.23809152  0.37054534  0.23939280  1
  O  O348  1  0.24736818  0.36922425  0.73606953  1
  O  O349  1  0.24206726  0.88712244  0.24075977  1
  O  O350  1  0.24904124  0.88432202  0.74801154  1
  O  O351  1  0.74206054  0.37236325  0.24666958  1
  O  O352  1  0.74469230  0.38141360  0.74323225  1
  O  O353  1  0.73960266  0.88284448  0.24507577  1
  O  O354  1  0.75412888  0.87925798  0.75846409  1
  O  O355  1  0.25560202  0.12182021  0.25482480  1
  O  O356  1  0.25300818  0.12383440  0.76157027  1
  O  O357  1  0.24606084  0.62002533  0.25845783  1
  O  O358  1  0.25184998  0.62587381  0.75675610  1
  O  O359  1  0.75845169  0.11889356  0.25935648  1
  O  O360  1  0.75604665  0.13155138  0.75474378  1
  O  O361  1  0.76112720  0.62504680  0.23959277  1
  O  O362  1  0.74670192  0.61426852  0.76271668  1
  O  O363  1  0.37059202  0.12698581  0.36116264  1
  O  O364  1  0.35804833  0.13593787  0.87100548  1
  O  O365  1  0.36155807  0.61291721  0.36479714  1
  O  O366  1  0.36692205  0.61744020  0.88234193  1
  O  O367  1  0.86949308  0.12025258  0.37046324  1
  O  O368  1  0.87611241  0.11970902  0.86565939  1
  O  O369  1  0.86670102  0.62422802  0.35575324  1
  O  O370  1  0.85670881  0.62648016  0.88407027  1
  O  O371  1  0.13202848  0.38227409  0.13067318  1
  O  O372  1  0.13132835  0.38725195  0.62654225  1
  O  O373  1  0.13631357  0.87142974  0.12987068  1
  O  O374  1  0.11604251  0.89420731  0.62884761  1
  O  O375  1  0.63242572  0.38005096  0.13444046  1
  O  O376  1  0.63249939  0.37480445  0.63044432  1
  O  O377  1  0.63899628  0.87184345  0.12488545  1
  O  O378  1  0.63997310  0.88303857  0.63469079  1
  O  O379  1  0.12457996  0.25693216  0.25884991  1
  O  O380  1  0.11635471  0.25020361  0.75684936  1
  O  O381  1  0.11624120  0.75485405  0.25559422  1
  O  O382  1  0.11089686  0.75308154  0.75470102  1
  O  O383  1  0.62633908  0.25801263  0.26271428  1
  O  O384  1  0.61898894  0.25168785  0.75654985  1
  O  O385  1  0.61665642  0.76364532  0.24935384  1
  O  O386  1  0.61346580  0.74214210  0.76455413  1
  O  O387  1  0.37693103  0.24407163  0.24212300  1
  O  O388  1  0.38042045  0.24470741  0.74127518  1
  O  O389  1  0.37940434  0.75041240  0.23818497  1
  O  O390  1  0.38669115  0.74391207  0.75470015  1
  O  O391  1  0.87777853  0.24404590  0.24407169  1
  O  O392  1  0.88145193  0.24085131  0.74230671  1
  O  O393  1  0.87948514  0.74292534  0.23952386  1
  O  O394  1  0.88891874  0.74589838  0.75251747  1
  O  O395  1  0.38480625  0.49544878  0.48642497  1
  O  O396  1  0.39863985  0.49417280  1.00719133  1
  O  O397  1  0.38196188  1.02470571  0.47702728  1
  O  O398  1  0.38086968  0.99347433  1.00047595  1
  O  O399  1  0.87208432  0.49560540  0.50216914  1
  O  O400  1  0.88804129  0.49524756  1.00608804  1
  O  O401  1  0.88200452  1.00654803  0.48729743  1
  O  O402  1  0.88532854  0.99979981  0.99544054  1
  O  O403  1  0.10973280  0.00855124  0.00056217  1
  O  O404  1  0.11440983  0.00664947  0.50677465  1
  O  O405  1  0.11240608  0.50672589  0.01207644  1
  O  O406  1  0.12428676  0.50593106  0.50497060  1
  O  O407  1  0.62116323  0.01200370  -0.00243513  1
  O  O408  1  0.62474792  0.01453875  0.49668425  1
  O  O409  1  0.61933833  0.50818086  0.00801877  1
  O  O410  1  0.61624326  0.49015879  0.51411386  1
  O  O411  1  0.36774699  0.36857511  0.13251863  1
  O  O412  1  0.37004586  0.36531485  0.62376571  1
  O  O413  1  0.36186830  0.86983393  0.11776635  1
  O  O414  1  0.36767112  0.90366164  0.61380054  1
  O  O415  1  0.87174064  0.37015233  0.11996126  1
  O  O416  1  0.87074080  0.37110314  0.61525228  1
  O  O417  1  0.86658628  0.86914349  0.12328599  1
  O  O418  1  0.84950454  0.87826006  0.62152857  1
  O  O419  1  0.12540167  0.13266881  0.38165545  1
  O  O420  1  0.13368891  0.13217383  0.88431871  1
  O  O421  1  0.12732854  0.62519669  0.37706191  1
  O  O422  1  0.12601506  0.62418040  0.89186543  1
  O  O423  1  0.63250144  0.13237512  0.38273921  1
  O  O424  1  0.63959319  0.13259199  0.88270353  1
  O  O425  1  0.63701958  0.62456937  0.35978668  1
  O  O426  1  0.62773332  0.63086391  0.88180102  1
