# generated using pymatgen
data_V85Zn86O256
_symmetry_space_group_name_H-M   'P 1'
_cell_length_a   16.96411325
_cell_length_b   16.95910982
_cell_length_c   16.95813849
_cell_angle_alpha   89.97888392
_cell_angle_beta   90.03286437
_cell_angle_gamma   89.96318679
_symmetry_Int_Tables_number   1
_chemical_formula_structural   V85Zn86O256
_chemical_formula_sum   'V85 Zn86 O256'
_cell_volume   4878.79086836
_cell_formula_units_Z   1
loop_
 _symmetry_equiv_pos_site_id
 _symmetry_equiv_pos_as_xyz
  1  'x, y, z'
loop_
 _atom_site_type_symbol
 _atom_site_label
 _atom_site_symmetry_multiplicity
 _atom_site_fract_x
 _atom_site_fract_y
 _atom_site_fract_z
 _atom_site_occupancy
  V  V0  1  0.12734843  0.63193081  0.00247312  1
  V  V1  1  0.73921797  0.88530743  0.13431532  1
  V  V2  1  0.12659741  0.00117786  0.62009902  1
  V  V3  1  0.87568157  0.49768359  0.87333349  1
  V  V4  1  0.37484251  0.50098431  0.37645834  1
  V  V5  1  0.12494915  0.88193829  0.75319423  1
  V  V6  1  0.23923278  0.24891810  0.00123042  1
  V  V7  1  0.24923375  0.62585351  0.37436609  1
  V  V8  1  0.62322207  0.61956613  0.00386219  1
  V  V9  1  0.74107910  0.39474213  0.12939787  1
  V  V10  1  0.25212731  0.62838275  0.87700674  1
  V  V11  1  0.24825269  0.12617093  0.37182393  1
  V  V12  1  0.24580806  0.37666440  0.12890491  1
  V  V13  1  0.12669318  0.75552471  0.87699967  1
  V  V14  1  0.12654031  0.37777656  0.75160308  1
  V  V15  1  0.88403296  0.11995437  0.25059522  1
  V  V16  1  0.38598129  0.74477011  0.62727802  1
  V  V17  1  0.62520615  0.37170969  0.74941152  1
  V  V18  1  0.90444728  0.28032800  0.14754318  1
  V  V19  1  0.74933698  0.49736154  0.74877354  1
  V  V20  1  0.87157091  0.50089667  0.37318262  1
  V  V21  1  0.37237212  0.24917210  0.12579229  1
  V  V22  1  0.62614981  0.38978197  0.24950465  1
  V  V23  1  0.00004492  0.49593461  0.49512168  1
  V  V24  1  0.00340229  0.37690370  0.87821314  1
  V  V25  1  -0.00077176  0.75435075  0.75214177  1
  V  V26  1  0.36492499  0.11562630  0.74876742  1
  V  V27  1  0.62091107  0.51243401  0.62246948  1
  V  V28  1  0.70567237  0.06693938  0.31331414  1
  V  V29  1  0.75564441  0.88156005  0.62749987  1
  V  V30  1  0.00003578  0.87611940  0.38045103  1
  V  V31  1  0.74981371  0.24464992  0.49840817  1
  V  V32  1  0.00160085  0.24951125  0.74799981  1
  V  V33  1  0.24634370  0.49828610  0.25218294  1
  V  V34  1  -0.00398610  0.12344136  0.62118880  1
  V  V35  1  0.25435152  0.86682706  0.11677167  1
  V  V36  1  0.11930482  0.12211795  0.49424485  1
  V  V37  1  0.37773490  0.37594319  0.50173360  1
  V  V38  1  0.87375663  0.38039679  0.00406752  1
  V  V39  1  0.37107801  -0.00290685  0.37518863  1
  V  V40  1  0.87706354  0.88636742  0.00362418  1
  V  V41  1  0.49800453  0.24807605  0.75576050  1
  V  V42  1  0.37714923  0.49949608  0.87555024  1
  V  V43  1  0.75120079  0.25284176  0.01220534  1
  V  V44  1  0.24960710  0.74979095  0.50176037  1
  V  V45  1  0.49854872  0.25295873  0.24917873  1
  V  V46  1  0.12426332  0.50026669  0.62433760  1
  V  V47  1  0.75008766  0.37294719  0.62573231  1
  V  V48  1  0.37400584  0.25006501  0.62545255  1
  V  V49  1  0.88167717  0.00274201  0.37729070  1
  V  V50  1  0.00064560  0.11832527  0.11794947  1
  V  V51  1  0.38864306  0.62834079  0.74942792  1
  V  V52  1  0.38175328  0.87241137  -0.01967454  1
  V  V53  1  0.50900155  0.87437242  0.36939085  1
  V  V54  1  0.50368063  0.75358170  0.24426716  1
  V  V55  1  0.63170622  0.25184514  0.37238486  1
  V  V56  1  0.50480265  -0.00175912  0.50005102  1
  V  V57  1  0.00213052  0.50897454  0.00244495  1
  V  V58  1  0.63006290  0.11846818  0.01011705  1
  V  V59  1  0.87771604  0.37245861  0.49429154  1
  V  V60  1  0.24854501  0.25028504  0.49686940  1
  V  V61  1  0.37469800  0.37296228  0.00060195  1
  V  V62  1  0.61236678  0.76021835  0.86894244  1
  V  V63  1  0.50053538  0.61615222  0.12708366  1
  V  V64  1  0.87242758  0.62662552  0.24056088  1
  V  V65  1  0.12294233  0.75020544  0.37431330  1
  V  V66  1  0.24984005  0.37550243  0.62498653  1
  V  V67  1  0.50999405  0.12767156  0.62769224  1
  V  V68  1  0.50225635  0.11634385  0.12429287  1
  V  V69  1  0.12553478  -0.00059276  0.11299212  1
  V  V70  1  0.57598556  -0.05673306  0.67593866  1
  V  V71  1  0.11213798  0.26272190  0.36177066  1
  V  V72  1  0.12323992  0.62394794  0.50121487  1
  V  V73  1  0.74647924  0.62814687  0.87337285  1
  V  V74  1  0.12454894  0.87690099  0.24719474  1
  V  V75  1  0.24715326  0.87531176  0.62734473  1
  V  V76  1  0.87715275  0.62519156  0.74856719  1
  V  V77  1  0.50066033  0.37538241  0.37834019  1
  V  V78  1  0.74674207  0.62399923  0.37509157  1
  V  V79  1  0.12179847  0.50705525  0.13047203  1
  V  V80  1  0.50307320  0.51633880  0.50320440  1
  V  V81  1  0.25044306  0.11675081  0.88065885  1
  V  V82  1  0.74683262  0.74350589  0.50222164  1
  V  V83  1  0.75935905  0.74552636  0.01140381  1
  V  V84  1  -0.00370009  0.74580402  0.23756802  1
  Zn  Zn85  1  0.25103941  -0.00192977  0.24581760  1
  Zn  Zn86  1  0.37090173  0.12542340  0.24728361  1
  Zn  Zn87  1  0.62652459  0.74830341  0.37255551  1
  Zn  Zn88  1  0.63047995  0.12150290  0.50179213  1
  Zn  Zn89  1  0.37581545  0.87341906  0.50020160  1
  Zn  Zn90  1  0.50496408  0.49483412  0.00526913  1
  Zn  Zn91  1  0.75746470  0.11746897  0.88055119  1
  Zn  Zn92  1  0.12522882  0.24909042  0.88046109  1
  Zn  Zn93  1  0.87629338  0.74867210  0.62211061  1
  Zn  Zn94  1  -0.06155348  0.92714887  0.83436588  1
  Zn  Zn95  1  0.25229831  0.50299795  0.74884302  1
  Zn  Zn96  1  0.75855028  0.00293618  0.75163751  1
  Zn  Zn97  1  0.50421249  -0.01427719  -0.00727540  1
  Zn  Zn98  1  0.49989694  0.37278495  0.87784366  1
  Zn  Zn99  1  0.89917003  0.09495984  0.78947713  1
  Zn  Zn100  1  0.37476285  0.74820102  0.11906971  1
  Zn  Zn101  1  0.62975138  0.25356046  0.88184258  1
  Zn  Zn102  1  0.00287198  0.00020961  -0.01816083  1
  Zn  Zn103  1  -0.00049678  0.62503886  0.62478251  1
  Zn  Zn104  1  0.37293073  0.62809087  0.24642021  1
  Zn  Zn105  1  0.87354076  0.24496333  0.62568388  1
  Zn  Zn106  1  0.87567453  0.87291447  0.49532273  1
  Zn  Zn107  1  0.18139510  0.18540226  0.18811222  1
  Zn  Zn108  1  0.18506417  0.18902245  0.68656228  1
  Zn  Zn109  1  0.18616003  0.68856770  0.18845494  1
  Zn  Zn110  1  0.19012777  0.68763134  0.69093712  1
  Zn  Zn111  1  0.68963190  0.19944052  0.18271652  1
  Zn  Zn112  1  0.69460047  0.18197573  0.69737626  1
  Zn  Zn113  1  0.68390809  0.68442785  0.18965494  1
  Zn  Zn114  1  0.68642791  0.69285186  0.68986603  1
  Zn  Zn115  1  0.30905326  0.31374189  0.31299015  1
  Zn  Zn116  1  0.31165566  0.30929189  0.81563262  1
  Zn  Zn117  1  0.31577599  0.81317272  0.30820899  1
  Zn  Zn118  1  0.30998184  0.80805305  0.80967817  1
  Zn  Zn119  1  0.81154644  0.31533620  0.31045534  1
  Zn  Zn120  1  0.83484650  0.27394679  0.83383559  1
  Zn  Zn121  1  0.81397639  0.81104176  0.31143457  1
  Zn  Zn122  1  0.80433418  0.80959270  0.81355075  1
  Zn  Zn123  1  0.18703003  0.43536300  0.43680656  1
  Zn  Zn124  1  0.18974535  0.44126922  0.93945716  1
  Zn  Zn125  1  0.18602345  0.93712850  0.43787787  1
  Zn  Zn126  1  0.19377240  0.93494693  0.93758984  1
  Zn  Zn127  1  0.68792398  0.43895165  0.43946674  1
  Zn  Zn128  1  0.68717652  0.43674030  0.93607307  1
  Zn  Zn129  1  0.68716847  0.93202306  0.44434375  1
  Zn  Zn130  1  0.69427684  0.93099024  0.94655174  1
  Zn  Zn131  1  0.31684612  0.05699035  0.05826235  1
  Zn  Zn132  1  0.31182832  0.06195367  0.56037762  1
  Zn  Zn133  1  0.31309762  0.56408535  0.06113594  1
  Zn  Zn134  1  0.31396272  0.56350799  0.56408663  1
  Zn  Zn135  1  0.81250170  0.05997413  0.07183178  1
  Zn  Zn136  1  0.81586594  0.05955148  0.55803789  1
  Zn  Zn137  1  0.81126644  0.56355402  0.06219656  1
  Zn  Zn138  1  0.81108787  0.56155849  0.56211348  1
  Zn  Zn139  1  0.43370407  0.43895279  0.19031751  1
  Zn  Zn140  1  0.43985762  0.43982355  0.68877552  1
  Zn  Zn141  1  0.43697956  0.93763985  0.18838091  1
  Zn  Zn142  1  0.41469198  0.92972828  0.69880742  1
  Zn  Zn143  1  0.93742534  0.45102139  0.18587846  1
  Zn  Zn144  1  0.93780639  0.43482165  0.68342334  1
  Zn  Zn145  1  0.93100199  0.93522356  0.18628365  1
  Zn  Zn146  1  0.93987994  0.93908645  0.67128918  1
  Zn  Zn147  1  0.06163462  0.06158382  0.30826231  1
  Zn  Zn148  1  0.07577514  0.06475462  0.81013175  1
  Zn  Zn149  1  0.05808986  0.56352838  0.31358460  1
  Zn  Zn150  1  0.06344640  0.56487655  0.81372112  1
  Zn  Zn151  1  0.54551290  0.06514849  0.31225154  1
  Zn  Zn152  1  0.60658783  0.03287716  0.84388531  1
  Zn  Zn153  1  0.55826696  0.56778740  0.31546233  1
  Zn  Zn154  1  0.56347338  0.56168039  0.81557041  1
  Zn  Zn155  1  0.43738287  0.18546926  0.43841405  1
  Zn  Zn156  1  0.46644938  0.13497632  0.90767154  1
  Zn  Zn157  1  0.43457760  0.69114714  0.43373074  1
  Zn  Zn158  1  0.43698111  0.69135297  0.94290893  1
  Zn  Zn159  1  0.93808992  0.18789735  0.43403673  1
  Zn  Zn160  1  0.94304699  0.19492693  0.95240111  1
  Zn  Zn161  1  0.93544101  0.68752782  0.43528493  1
  Zn  Zn162  1  0.93896918  0.69014484  0.93397619  1
  Zn  Zn163  1  0.05812151  0.32212480  0.08130536  1
  Zn  Zn164  1  0.06306750  0.30976884  0.55734701  1
  Zn  Zn165  1  0.05989724  0.81644367  0.05966639  1
  Zn  Zn166  1  0.06134262  0.81008541  0.56452230  1
  Zn  Zn167  1  0.56209221  0.31180283  0.06570225  1
  Zn  Zn168  1  0.56409378  0.31272064  0.56325362  1
  Zn  Zn169  1  0.56554731  0.80549668  0.05788170  1
  Zn  Zn170  1  0.56390284  0.80556475  0.55253835  1
  O  O171  1  0.11308032  0.11145629  0.13183900  1
  O  O172  1  0.12137084  0.11929865  0.61649685  1
  O  O173  1  0.13418462  0.62067447  0.11097789  1
  O  O174  1  0.12619406  0.61592490  0.62035923  1
  O  O175  1  0.61700716  0.13463033  0.12073949  1
  O  O176  1  0.61235386  0.13471545  0.62476116  1
  O  O177  1  0.61490747  0.62658191  0.11640001  1
  O  O178  1  0.63241508  0.61092429  0.63018949  1
  O  O179  1  0.37986462  0.38098898  0.38124067  1
  O  O180  1  0.37515141  0.38159272  0.88307387  1
  O  O181  1  0.37928448  0.88347096  0.37852535  1
  O  O182  1  0.37125438  0.87278648  0.88074084  1
  O  O183  1  0.86918360  0.38351606  0.38493503  1
  O  O184  1  0.88377346  0.37793788  0.88483621  1
  O  O185  1  0.88445745  0.88126330  0.37209015  1
  O  O186  1  0.86613964  0.86437530  0.89489565  1
  O  O187  1  0.25550542  0.00648302  0.37471110  1
  O  O188  1  0.24995610  0.01751799  0.88070343  1
  O  O189  1  0.25190154  0.50431085  0.36917020  1
  O  O190  1  0.26176925  0.50683190  0.87385740  1
  O  O191  1  0.75556149  0.00067113  0.37576984  1
  O  O192  1  0.72208842  0.00494613  0.86636039  1
  O  O193  1  0.76328989  0.50719517  0.38375223  1
  O  O194  1  0.75650911  0.50860656  0.87034409  1
  O  O195  1  0.24537580  0.49703302  0.13354357  1
  O  O196  1  0.24302778  0.49233759  0.62540258  1
  O  O197  1  0.24195049  0.99182436  0.12587573  1
  O  O198  1  0.23882875  0.99023975  0.61645247  1
  O  O199  1  0.74359750  0.49368112  0.12448937  1
  O  O200  1  0.74316767  0.48874001  0.62584745  1
  O  O201  1  0.74890046  0.98564679  0.12889212  1
  O  O202  1  0.75359708  0.98492361  0.62084186  1
  O  O203  1  -0.01659450  0.34810196  0.18014781  1
  O  O204  1  0.01244445  0.37425041  0.75313424  1
  O  O205  1  0.00436256  0.86339327  0.25476583  1
  O  O206  1  0.00577569  0.86918869  0.75000071  1
  O  O207  1  0.50375950  0.36959190  0.25697940  1
  O  O208  1  0.50708732  0.36540031  0.75060711  1
  O  O209  1  0.49637184  0.86798832  0.25730041  1
  O  O210  1  0.51510218  0.89171285  0.73542386  1
  O  O211  1  0.49441387  0.13681456  0.24246520  1
  O  O212  1  0.48229893  0.13393740  0.73873877  1
  O  O213  1  0.49605226  0.63083514  0.24300081  1
  O  O214  1  0.48749750  0.61936233  0.75202952  1
  O  O215  1  0.99118654  0.12235472  0.23931883  1
  O  O216  1  1.00346358  0.13500461  0.74063344  1
  O  O217  1  0.99101153  0.63812747  0.25474301  1
  O  O218  1  0.99251613  0.63049544  0.74861210  1
  O  O219  1  0.36203821  0.26587993  0.00988650  1
  O  O220  1  0.36943193  0.25463401  0.50541908  1
  O  O221  1  0.37234389  0.76551210  0.00184869  1
  O  O222  1  0.36123816  0.74859632  0.50514575  1
  O  O223  1  0.87662792  0.26660862  0.02414549  1
  O  O224  1  0.86802011  0.25705351  0.49955006  1
  O  O225  1  0.86225301  0.74510174  -0.00093382  1
  O  O226  1  0.86414302  0.75070182  0.50097469  1
  O  O227  1  0.13218849  0.24063763  0.49211767  1
  O  O228  1  0.13708982  0.25981971  1.00625046  1
  O  O229  1  0.13333138  0.74465142  0.49673682  1
  O  O230  1  0.11720092  0.74357077  0.99029266  1
  O  O231  1  0.63024461  0.24705587  0.48960151  1
  O  O232  1  0.63729662  0.24774985  1.00851034  1
  O  O233  1  0.64118811  0.74780235  0.49302345  1
  O  O234  1  0.63652448  0.73578295  0.99129776  1
  O  O235  1  0.49330952  0.24959517  0.13791992  1
  O  O236  1  0.49408137  0.24415251  0.63106839  1
  O  O237  1  0.49835311  0.74052159  0.13060006  1
  O  O238  1  0.48447016  0.75274731  0.61401610  1
  O  O239  1  1.00092049  0.22548685  0.11449852  1
  O  O240  1  1.00346924  0.24088440  0.63024449  1
  O  O241  1  1.00545112  0.75132303  0.13934709  1
  O  O242  1  0.99887038  0.74632148  0.63785384  1
  O  O243  1  0.01324387  0.25015039  0.37554054  1
  O  O244  1  0.00660261  0.25908852  0.86992482  1
  O  O245  1  0.00732182  0.75496819  0.36708984  1
  O  O246  1  0.01247518  0.74485704  0.86157078  1
  O  O247  1  0.50876684  0.25137756  0.36758858  1
  O  O248  1  0.50134351  0.24467011  0.86214837  1
  O  O249  1  0.50005978  0.75939900  0.36937157  1
  O  O250  1  0.51368805  0.74308194  0.87719706  1
  O  O251  1  0.24368151  0.12941984  0.48872418  1
  O  O252  1  0.25961938  0.13423870  0.98861355  1
  O  O253  1  0.24336684  0.63055316  0.49513459  1
  O  O254  1  0.24192893  0.62105188  0.98666396  1
  O  O255  1  0.74924623  0.14023022  0.50778763  1
  O  O256  1  0.74475380  0.13562195  1.01327885  1
  O  O257  1  0.75603913  0.63557878  0.49324377  1
  O  O258  1  0.74607479  0.62946173  0.99354808  1
  O  O259  1  0.25484732  0.37236058  0.00905216  1
  O  O260  1  0.25768416  0.37074895  0.50504308  1
  O  O261  1  0.25971929  0.87518541  0.01191727  1
  O  O262  1  0.24826114  0.86588807  0.50831097  1
  O  O263  1  0.75091185  0.37734887  0.01405030  1
  O  O264  1  0.75431902  0.36525349  0.50646831  1
  O  O265  1  0.75874462  0.86035243  0.01067027  1
  O  O266  1  0.75156143  0.86295134  0.50879349  1
  O  O267  1  0.12964677  0.50847502  0.24068220  1
  O  O268  1  0.12636291  0.49432262  0.74325351  1
  O  O269  1  0.12420480  0.98577229  0.24219656  1
  O  O270  1  0.12660097  0.98773422  0.73943819  1
  O  O271  1  0.61798111  0.48798265  0.25806633  1
  O  O272  1  0.62950339  0.49197907  0.74443317  1
  O  O273  1  0.63884378  1.01509692  0.26299813  1
  O  O274  1  0.63055965  1.00709516  0.73212636  1
  O  O275  1  0.37357968  0.00357618  0.26339556  1
  O  O276  1  0.36437868  0.01674556  0.74481569  1
  O  O277  1  0.36487091  0.50315073  0.25928970  1
  O  O278  1  0.37292519  0.50532102  0.75826481  1
  O  O279  1  0.87510933  0.00883844  0.26000185  1
  O  O280  1  0.87685569  -0.01067413  0.75229258  1
  O  O281  1  0.88456917  0.51470010  0.26155810  1
  O  O282  1  0.87004327  0.50366167  0.75338645  1
  O  O283  1  0.12649073  0.36168264  0.37789431  1
  O  O284  1  0.12166958  0.37798423  0.86716045  1
  O  O285  1  0.12010151  0.87086569  0.36570245  1
  O  O286  1  0.13226877  0.86876612  0.86565018  1
  O  O287  1  0.62027661  0.36824108  0.37069296  1
  O  O288  1  0.62114643  0.37453391  0.86251152  1
  O  O289  1  0.61166212  0.87488521  0.37749033  1
  O  O290  1  0.62540095  0.85870556  0.88807251  1
  O  O291  1  0.38141266  0.13263911  0.12468162  1
  O  O292  1  0.37569909  0.13182163  0.63097619  1
  O  O293  1  0.38265152  0.62850732  0.12413232  1
  O  O294  1  0.36671355  0.63327903  0.63729054  1
  O  O295  1  0.88791643  0.12226086  0.13352065  1
  O  O296  1  0.89138277  0.12441267  0.61750936  1
  O  O297  1  0.87341354  0.61775280  0.14174089  1
  O  O298  1  0.87413883  0.62377523  0.63838034  1
  O  O299  1  0.25117509  0.25802530  0.12427303  1
  O  O300  1  0.25293310  0.25641056  0.61726304  1
  O  O301  1  0.24880180  0.76415392  0.12773420  1
  O  O302  1  0.25102441  0.75541364  0.61627987  1
  O  O303  1  0.75924262  0.26829977  0.12196326  1
  O  O304  1  0.75059090  0.26012617  0.61955315  1
  O  O305  1  0.74850586  0.74269258  0.11154106  1
  O  O306  1  0.75109646  0.75492226  0.61528778  1
  O  O307  1  0.24475348  0.24232146  0.37900532  1
  O  O308  1  0.24715358  0.24723089  0.88751929  1
  O  O309  1  0.24384909  0.74737310  0.38150188  1
  O  O310  1  0.23563635  0.74200942  0.87057898  1
  O  O311  1  0.73941728  0.25660358  0.38173483  1
  O  O312  1  0.74798324  0.26515050  0.90379223  1
  O  O313  1  0.75122813  0.74368214  0.38472040  1
  O  O314  1  0.74685910  0.73627714  0.88384464  1
  O  O315  1  -0.00309224  0.11485139  0.01320078  1
  O  O316  1  0.01122145  0.13179600  0.50623739  1
  O  O317  1  0.00992679  0.61601097  -0.00898315  1
  O  O318  1  0.00586456  0.61800079  0.50209674  1
  O  O319  1  0.51743203  0.13821911  0.01347881  1
  O  O320  1  0.49971006  0.11758306  0.51072306  1
  O  O321  1  0.50696781  0.62284715  0.00914909  1
  O  O322  1  0.49725391  0.61541911  0.49465483  1
  O  O323  1  0.49380916  0.37679848  0.49437632  1
  O  O324  1  0.49073501  0.37483651  0.99965072  1
  O  O325  1  0.49675563  0.88263639  0.49298668  1
  O  O326  1  0.48644042  0.87098763  1.00330850  1
  O  O327  1  0.98909391  0.38238754  0.50467291  1
  O  O328  1  0.99778159  0.39094114  0.99945811  1
  O  O329  1  1.00129414  0.86698529  0.48444307  1
  O  O330  1  0.98284721  0.87862084  1.00186447  1
  O  O331  1  0.49468964  0.49513399  0.38401961  1
  O  O332  1  0.48671649  0.49804926  0.87885639  1
  O  O333  1  0.49092762  0.99444736  0.38180762  1
  O  O334  1  0.50486174  1.02943021  0.88668899  1
  O  O335  1  0.99076029  0.50339568  0.38753752  1
  O  O336  1  0.99545022  0.49605153  0.88111102  1
  O  O337  1  0.99466216  0.98851012  0.36834184  1
  O  O338  1  0.99412677  1.01785533  0.86961635  1
  O  O339  1  0.00710912  0.00386979  0.12457499  1
  O  O340  1  0.01609034  0.00895553  0.62266746  1
  O  O341  1  0.01316518  0.50731453  0.11707243  1
  O  O342  1  0.00600040  0.50145481  0.61346351  1
  O  O343  1  0.49579614  0.01420893  0.12407445  1
  O  O344  1  0.50258254  0.00335354  0.62055039  1
  O  O345  1  0.49463313  0.51128458  0.12550034  1
  O  O346  1  0.50872226  0.49585917  0.61521347  1
  O  O347  1  0.25298387  0.38965951  0.24443174  1
  O  O348  1  0.23924761  0.37524625  0.74612585  1
  O  O349  1  0.23965300  0.87548704  0.24249072  1
  O  O350  1  0.24044205  0.86835679  0.73510377  1
  O  O351  1  0.74080187  0.37681831  0.23903330  1
  O  O352  1  0.74259472  0.37967855  0.74087901  1
  O  O353  1  0.75295948  0.86129913  0.23192807  1
  O  O354  1  0.75226925  0.87110978  0.73053302  1
  O  O355  1  0.24924330  0.12166847  0.26110623  1
  O  O356  1  0.25977653  0.13576484  0.75624278  1
  O  O357  1  0.24937726  0.61610285  0.25569739  1
  O  O358  1  0.25455120  0.62287704  0.76358136  1
  O  O359  1  0.75925748  0.12793675  0.24814990  1
  O  O360  1  0.76706164  0.12323048  0.75668108  1
  O  O361  1  0.76558647  0.63377315  0.25788011  1
  O  O362  1  0.75660195  0.61899642  0.75671225  1
  O  O363  1  0.36530806  0.11842508  0.37479970  1
  O  O364  1  0.36238012  0.13533189  0.85668961  1
  O  O365  1  0.36493828  0.61828639  0.37481297  1
  O  O366  1  0.36921994  0.62053705  0.87214406  1
  O  O367  1  0.88036668  0.11758818  0.36504202  1
  O  O368  1  0.86679665  0.16152283  0.87615572  1
  O  O369  1  0.86759074  0.61802903  0.36886900  1
  O  O370  1  0.86921767  0.61954935  0.86430375  1
  O  O371  1  0.14001375  0.39193265  0.12199088  1
  O  O372  1  0.12883438  0.38139817  0.63011820  1
  O  O373  1  0.13444174  0.87827835  0.12853598  1
  O  O374  1  0.12779002  0.88214501  0.62819812  1
  O  O375  1  0.63324192  0.37517288  0.13460533  1
  O  O376  1  0.63063591  0.37854131  0.63452761  1
  O  O377  1  0.64062935  0.86840171  0.11677379  1
  O  O378  1  0.63252481  0.87647375  0.61932370  1
  O  O379  1  0.12775343  0.25127125  0.26291804  1
  O  O380  1  0.11666751  0.26108249  0.74956418  1
  O  O381  1  0.11618463  0.75713835  0.25379167  1
  O  O382  1  0.11856941  0.76022316  0.75382845  1
  O  O383  1  0.61789104  0.25886602  0.25743285  1
  O  O384  1  0.61774806  0.25642496  0.75144082  1
  O  O385  1  0.60904592  0.74325708  0.25508738  1
  O  O386  1  0.63150875  0.74864909  0.76941138  1
  O  O387  1  0.38158663  0.25111931  0.24577424  1
  O  O388  1  0.38117203  0.25052431  0.74165065  1
  O  O389  1  0.38690824  0.74672260  0.24762518  1
  O  O390  1  0.37233184  0.74119782  0.73987710  1
  O  O391  1  0.87169003  0.24381500  0.24056167  1
  O  O392  1  0.89673143  0.26651109  0.74004432  1
  O  O393  1  0.88824207  0.73924993  0.25343770  1
  O  O394  1  0.88195622  0.74192180  0.75087783  1
  O  O395  1  0.38221979  0.49548257  0.49681777  1
  O  O396  1  0.37414870  0.48855034  0.99424541  1
  O  O397  1  0.38416738  1.00003768  0.49104837  1
  O  O398  1  0.37879502  0.97760355  1.00442629  1
  O  O399  1  0.88170536  0.49369329  0.49491753  1
  O  O400  1  0.88357194  0.50094809  0.99465371  1
  O  O401  1  0.87378056  0.99618712  0.48254356  1
  O  O402  1  0.87041031  0.98844014  0.99806862  1
  O  O403  1  0.12144312  -0.00967763  0.00971810  1
  O  O404  1  0.12839093  0.01319824  0.50348955  1
  O  O405  1  0.12020573  0.51011805  0.00605859  1
  O  O406  1  0.11758332  0.50241373  0.50345569  1
  O  O407  1  0.62681359  0.01577325  0.00853148  1
  O  O408  1  0.61068392  0.00496503  0.49434073  1
  O  O409  1  0.62301094  0.51385538  -0.00764001  1
  O  O410  1  0.61443820  0.49363896  0.50989630  1
  O  O411  1  0.36361686  0.37352853  0.12097992  1
  O  O412  1  0.36961445  0.37042272  0.62149833  1
  O  O413  1  0.35873202  0.87356792  0.13155937  1
  O  O414  1  0.36279714  0.86557506  0.62191017  1
  O  O415  1  0.85671515  0.38671106  0.12251713  1
  O  O416  1  0.86551104  0.37557177  0.61224283  1
  O  O417  1  0.86546706  0.87445478  0.11104691  1
  O  O418  1  0.86686600  0.86994055  0.61602558  1
  O  O419  1  0.13026237  0.12894291  0.37877850  1
  O  O420  1  0.14620290  0.13313186  0.86843013  1
  O  O421  1  0.12949227  0.63048433  0.38135297  1
  O  O422  1  0.13272824  0.63066287  0.88194243  1
  O  O423  1  0.63589207  0.12872710  0.37002768  1
  O  O424  1  0.63599406  0.13810720  0.90008061  1
  O  O425  1  0.64317688  0.62208979  0.36945732  1
  O  O426  1  0.63342412  0.62695674  0.88061800  1
