# generated using pymatgen
data_V85Zn86O256
_symmetry_space_group_name_H-M   'P 1'
_cell_length_a   16.99335615
_cell_length_b   16.96439373
_cell_length_c   16.98552485
_cell_angle_alpha   89.98311793
_cell_angle_beta   90.01660484
_cell_angle_gamma   90.01554153
_symmetry_Int_Tables_number   1
_chemical_formula_structural   V85Zn86O256
_chemical_formula_sum   'V85 Zn86 O256'
_cell_volume   4896.62021462
_cell_formula_units_Z   1
loop_
 _symmetry_equiv_pos_site_id
 _symmetry_equiv_pos_as_xyz
  1  'x, y, z'
loop_
 _atom_site_type_symbol
 _atom_site_label
 _atom_site_symmetry_multiplicity
 _atom_site_fract_x
 _atom_site_fract_y
 _atom_site_fract_z
 _atom_site_occupancy
  V  V0  1  0.37488194  0.75090466  0.63101716  1
  V  V1  1  0.37369578  0.12749358  0.74153690  1
  V  V2  1  0.50148792  0.50649490  -0.00458690  1
  V  V3  1  -0.00194837  0.25271158  0.73887445  1
  V  V4  1  0.24632272  -0.00500758  0.74358090  1
  V  V5  1  0.74162257  0.62189791  0.38810154  1
  V  V6  1  0.49660091  0.25013630  0.74001722  1
  V  V7  1  0.76033709  0.24582603  0.49759521  1
  V  V8  1  0.25958842  0.37497909  0.63255578  1
  V  V9  1  0.87950976  0.86570542  0.50503516  1
  V  V10  1  0.37542234  0.62631369  0.24898198  1
  V  V11  1  0.12409364  0.62716874  0.49962291  1
  V  V12  1  0.23724666  0.12713885  0.38344773  1
  V  V13  1  0.74583197  0.37518258  0.11910207  1
  V  V14  1  0.50761958  0.75108681  0.24947719  1
  V  V15  1  0.50010174  0.00476708  -0.00050411  1
  V  V16  1  0.24754646  0.75228311  0.50252240  1
  V  V17  1  0.75218698  -0.00002714  0.75040282  1
  V  V18  1  0.00416142  0.74836799  0.25494869  1
  V  V19  1  -0.00115220  0.87136905  0.37813595  1
  V  V20  1  0.62284926  0.86610456  0.75209515  1
  V  V21  1  0.49873637  0.00039491  0.50121291  1
  V  V22  1  0.63325991  -0.00925538  0.12615648  1
  V  V23  1  0.61915713  0.36602086  0.24868226  1
  V  V24  1  0.37286360  0.49714379  0.37904344  1
  V  V25  1  0.50276811  0.12848944  0.13481546  1
  V  V26  1  0.62549157  0.00098411  0.62870605  1
  V  V27  1  0.49822294  0.87330234  0.37313523  1
  V  V28  1  0.07805286  0.44124630  0.18167591  1
  V  V29  1  0.25177383  0.00245561  0.25187139  1
  V  V30  1  0.50631459  0.62677087  0.12040225  1
  V  V31  1  0.62569706  0.37572014  0.74754458  1
  V  V32  1  0.49912720  0.37507489  0.87313161  1
  V  V33  1  0.75280352  0.12690801  0.87474156  1
  V  V34  1  0.37164209  0.00156170  0.37750130  1
  V  V35  1  0.74926039  0.50557817  0.75205888  1
  V  V36  1  0.24670220  0.62861534  0.37465387  1
  V  V37  1  0.50209729  0.86802295  0.87289409  1
  V  V38  1  0.87217250  0.49640223  0.37934458  1
  V  V39  1  0.12142361  0.00412650  0.62458997  1
  V  V40  1  0.24321919  0.74840863  -0.00498054  1
  V  V41  1  0.37528324  -0.00090347  0.87196694  1
  V  V42  1  0.37441329  0.37504035  -0.00112512  1
  V  V43  1  0.63127767  0.73748226  0.88291512  1
  V  V44  1  0.62722824  0.50285507  0.61584083  1
  V  V45  1  0.37417049  0.87401913  0.00213452  1
  V  V46  1  0.86617439  0.87209008  -0.00042485  1
  V  V47  1  0.24974569  0.12455028  0.87270208  1
  V  V48  1  0.87598517  0.63660849  0.74875531  1
  V  V49  1  0.87460361  0.74973451  0.12501714  1
  V  V50  1  0.36516746  0.50176879  0.87051117  1
  V  V51  1  -0.00178754  0.00742917  0.49503056  1
  V  V52  1  0.50231851  0.62832175  0.62307410  1
  V  V53  1  0.87105222  0.37338041  -0.00559943  1
  V  V54  1  0.62360706  0.25171131  0.87337422  1
  V  V55  1  0.01115385  0.62593277  0.12693170  1
  V  V56  1  0.88136016  0.24971358  0.13457598  1
  V  V57  1  0.11706898  0.26108288  0.37203975  1
  V  V58  1  0.25910562  0.25817665  0.50153897  1
  V  V59  1  0.00239656  0.49401328  0.50102516  1
  V  V60  1  0.00097476  0.00101244  -0.00441189  1
  V  V61  1  0.12443293  0.86220207  0.74863437  1
  V  V62  1  0.62318678  0.50328735  0.12020456  1
  V  V63  1  0.62688788  0.12770118  0.49871872  1
  V  V64  1  0.74283321  0.50551767  0.25245319  1
  V  V65  1  0.87080591  0.50626058  0.87490647  1
  V  V66  1  0.25114151  0.37920027  0.13087466  1
  V  V67  1  -0.00173535  0.63377472  0.62967351  1
  V  V68  1  0.62046449  0.74236363  0.39189199  1
  V  V69  1  0.49598404  0.36718837  0.37297515  1
  V  V70  1  0.49778069  0.49757223  0.49888172  1
  V  V71  1  0.12854090  0.00200448  0.12270002  1
  V  V72  1  0.12860655  0.87128774  0.25724632  1
  V  V73  1  0.00529898  0.85707940  0.87401143  1
  V  V74  1  0.00442343  0.37428717  0.86709090  1
  V  V75  1  0.87556483  0.12866611  0.73996479  1
  V  V76  1  0.75747346  0.86503807  0.62940468  1
  V  V77  1  0.12662146  0.25140863  0.86591057  1
  V  V78  1  0.37788150  0.24954141  0.13195535  1
  V  V79  1  0.75916657  0.37028624  0.62383369  1
  V  V80  1  0.12684043  0.48982346  0.63723220  1
  V  V81  1  0.37028344  0.62176853  0.74703300  1
  V  V82  1  0.00999458  0.49697263  -0.00425329  1
  V  V83  1  0.25020044  0.24894598  -0.00041406  1
  V  V84  1  0.36952381  0.87531872  0.50733908  1
  Zn  Zn85  1  0.62683509  0.12725834  0.00114781  1
  Zn  Zn86  1  0.37563019  0.13154704  0.25618755  1
  Zn  Zn87  1  0.12360989  0.12449133  -0.00160172  1
  Zn  Zn88  1  0.24803688  0.50255893  0.24518407  1
  Zn  Zn89  1  0.74743080  0.72777390  0.00682566  1
  Zn  Zn90  1  0.87877088  0.00035105  0.87433681  1
  Zn  Zn91  1  0.75197089  0.74274642  0.50769973  1
  Zn  Zn92  1  0.00090345  0.13008302  0.61962830  1
  Zn  Zn93  1  0.23840766  0.62952024  0.86344423  1
  Zn  Zn94  1  0.75020447  0.09553489  0.36135491  1
  Zn  Zn95  1  0.37573004  0.74954380  0.12368379  1
  Zn  Zn96  1  0.88060911  0.36807040  0.50122703  1
  Zn  Zn97  1  0.66632992  0.91183386  0.28162403  1
  Zn  Zn98  1  0.74887545  0.25152376  -0.00181429  1
  Zn  Zn99  1  0.49690887  0.12975898  0.62089448  1
  Zn  Zn100  1  -0.00008101  0.12787051  0.13005859  1
  Zn  Zn101  1  -0.00176937  0.37353927  0.36124582  1
  Zn  Zn102  1  0.87684023  0.62615557  0.25439031  1
  Zn  Zn103  1  0.87628271  0.10329504  0.26407397  1
  Zn  Zn104  1  0.25171468  0.87368338  0.12666481  1
  Zn  Zn105  1  0.62246817  0.24235108  0.36853832  1
  Zn  Zn106  1  0.12703911  0.62337070  -0.00335368  1
  Zn  Zn107  1  0.18805323  0.18739339  0.19122828  1
  Zn  Zn108  1  0.18698404  0.18973067  0.68349395  1
  Zn  Zn109  1  0.18943854  0.69024069  0.18186586  1
  Zn  Zn110  1  0.18866488  0.68362440  0.68120261  1
  Zn  Zn111  1  0.69272556  0.18217385  0.18598580  1
  Zn  Zn112  1  0.68789574  0.18854030  0.68526129  1
  Zn  Zn113  1  0.72441293  0.73680007  0.23406180  1
  Zn  Zn114  1  0.68426567  0.68573339  0.69229107  1
  Zn  Zn115  1  0.30868864  0.31340692  0.31320801  1
  Zn  Zn116  1  0.31310898  0.31306841  0.80856341  1
  Zn  Zn117  1  0.31476480  0.81028763  0.31550678  1
  Zn  Zn118  1  0.31040697  0.81267637  0.81243922  1
  Zn  Zn119  1  0.80408955  0.30532496  0.31113391  1
  Zn  Zn120  1  0.81351125  0.31404721  0.80948337  1
  Zn  Zn121  1  0.82046540  0.91841479  0.30540491  1
  Zn  Zn122  1  0.81057007  0.81416570  0.82008108  1
  Zn  Zn123  1  0.18755146  0.43682635  0.43875075  1
  Zn  Zn124  1  0.18766644  0.43422341  0.93572062  1
  Zn  Zn125  1  0.18299830  0.93760932  0.43897411  1
  Zn  Zn126  1  0.18689182  0.93436740  0.93296752  1
  Zn  Zn127  1  0.68462584  0.42960538  0.43803247  1
  Zn  Zn128  1  0.68697353  0.55585489  0.93668971  1
  Zn  Zn129  1  0.68709251  0.93207333  0.44991645  1
  Zn  Zn130  1  0.68655357  0.94013164  0.93841125  1
  Zn  Zn131  1  0.31388686  0.06413962  0.06294076  1
  Zn  Zn132  1  0.30628503  0.06476467  0.56254384  1
  Zn  Zn133  1  0.31448595  0.56359751  0.06190733  1
  Zn  Zn134  1  0.31072042  0.55803514  0.56268927  1
  Zn  Zn135  1  0.81443972  0.06297012  0.06252941  1
  Zn  Zn136  1  0.81563593  0.05844284  0.55608176  1
  Zn  Zn137  1  0.82189612  0.56179298  0.06828983  1
  Zn  Zn138  1  0.81680093  0.55941655  0.56595583  1
  Zn  Zn139  1  0.43489107  0.43998388  0.18856444  1
  Zn  Zn140  1  0.43685789  0.43942558  0.68710753  1
  Zn  Zn141  1  0.44031133  0.93974123  0.18727894  1
  Zn  Zn142  1  0.43904069  0.93699600  0.68827533  1
  Zn  Zn143  1  0.91574786  0.43734072  0.18834935  1
  Zn  Zn144  1  0.93847633  0.44239059  0.68845478  1
  Zn  Zn145  1  0.94472923  0.93543499  0.18074619  1
  Zn  Zn146  1  0.94015573  0.93705307  0.68945408  1
  Zn  Zn147  1  0.05791785  0.06546188  0.30931530  1
  Zn  Zn148  1  0.06249316  0.06395917  0.81042812  1
  Zn  Zn149  1  0.06105567  0.56623101  0.32124249  1
  Zn  Zn150  1  0.06285056  0.56699166  0.81256033  1
  Zn  Zn151  1  0.56136563  0.06312770  0.31313540  1
  Zn  Zn152  1  0.56267725  0.06319728  0.81158015  1
  Zn  Zn153  1  0.56120431  0.56269745  0.31239132  1
  Zn  Zn154  1  0.55444946  0.56315399  0.80340380  1
  Zn  Zn155  1  0.43365927  0.18684491  0.43934126  1
  Zn  Zn156  1  0.43565975  0.18718494  0.93499429  1
  Zn  Zn157  1  0.43489383  0.68425965  0.44167971  1
  Zn  Zn158  1  0.43432663  0.68944043  0.93392936  1
  Zn  Zn159  1  0.93368064  0.18309175  0.42674865  1
  Zn  Zn160  1  0.93803807  0.18702374  0.93618036  1
  Zn  Zn161  1  0.93670294  0.68573957  0.43706596  1
  Zn  Zn162  1  0.93583638  0.68279789  0.94188559  1
  Zn  Zn163  1  0.06024080  0.30672829  0.05101087  1
  Zn  Zn164  1  0.07261274  0.30985721  0.55377309  1
  Zn  Zn165  1  0.06309635  0.81685976  0.06499583  1
  Zn  Zn166  1  0.06757485  0.81440623  0.56572829  1
  Zn  Zn167  1  0.56158606  0.31312987  0.05821000  1
  Zn  Zn168  1  0.56389090  0.31633679  0.55992526  1
  Zn  Zn169  1  0.56267104  0.81225804  0.05901945  1
  Zn  Zn170  1  0.55823247  0.81547512  0.56665796  1
  O  O171  1  0.12792584  0.11289752  0.12365541  1
  O  O172  1  0.12181426  0.10909272  0.63315696  1
  O  O173  1  0.11577201  0.62540050  0.11852678  1
  O  O174  1  0.11729219  0.61348682  0.61978579  1
  O  O175  1  0.61631829  0.12177713  0.12124603  1
  O  O176  1  0.62281939  0.11506310  0.62079337  1
  O  O177  1  0.60796767  0.61689380  0.12785042  1
  O  O178  1  0.61496341  0.61555816  0.63176856  1
  O  O179  1  0.38162033  0.38762128  0.36481760  1
  O  O180  1  0.37951305  0.38232351  0.87713128  1
  O  O181  1  0.38154406  0.87906351  0.38656797  1
  O  O182  1  0.38366568  0.87903846  0.88085383  1
  O  O183  1  0.87648270  0.38567288  0.37314821  1
  O  O184  1  0.87959956  0.38425127  0.87869580  1
  O  O185  1  0.89336144  0.87825005  0.38740732  1
  O  O186  1  0.88875660  0.87628636  0.88085685  1
  O  O187  1  0.25133155  0.00735722  0.37211426  1
  O  O188  1  0.25414236  0.00446441  0.86405149  1
  O  O189  1  0.25651271  0.50937808  0.37332409  1
  O  O190  1  0.26313450  0.50153840  0.88108194  1
  O  O191  1  0.73307863  -0.02035524  0.36038400  1
  O  O192  1  0.75006494  0.00988491  0.86785065  1
  O  O193  1  0.75197179  0.50106142  0.37127180  1
  O  O194  1  0.75814912  0.49690465  0.86360795  1
  O  O195  1  0.25431461  0.48868156  0.12425134  1
  O  O196  1  0.23677799  0.48817240  0.61835611  1
  O  O197  1  0.24700497  0.99780763  0.13372579  1
  O  O198  1  0.24298238  1.00104190  0.63739860  1
  O  O199  1  0.74684911  0.49316401  0.13389091  1
  O  O200  1  0.74256156  0.49374112  0.62984150  1
  O  O201  1  0.73127052  1.00570099  0.11671930  1
  O  O202  1  0.74015851  0.99048791  0.62930960  1
  O  O203  1  0.01060156  0.39075488  0.23948816  1
  O  O204  1  -0.00784283  0.36845414  0.75998146  1
  O  O205  1  0.00935193  0.86861675  0.25887242  1
  O  O206  1  0.00952379  0.87705690  0.76486314  1
  O  O207  1  0.50844346  0.38528414  0.25877126  1
  O  O208  1  0.50322821  0.36850862  0.75375318  1
  O  O209  1  0.49050384  0.86525472  0.26131307  1
  O  O210  1  0.51076991  0.88097358  0.76100422  1
  O  O211  1  0.49490372  0.12365834  0.23821056  1
  O  O212  1  0.49244144  0.13221671  0.74790189  1
  O  O213  1  0.49264514  0.63052986  0.24367057  1
  O  O214  1  0.48663660  0.62209978  0.73264443  1
  O  O215  1  0.98953369  0.11884086  0.24245264  1
  O  O216  1  0.99108007  0.13428967  0.74891516  1
  O  O217  1  1.00467881  0.63141243  0.24551729  1
  O  O218  1  0.99247727  0.62000949  0.73669452  1
  O  O219  1  0.36830109  0.25579898  0.00416730  1
  O  O220  1  0.35888046  0.25068207  0.49847571  1
  O  O221  1  0.37014574  0.76028983  0.00089564  1
  O  O222  1  0.36876375  0.75689257  0.50780702  1
  O  O223  1  0.87267135  0.26364155  -0.00080721  1
  O  O224  1  0.86424029  0.25007660  0.49863913  1
  O  O225  1  0.87242358  0.75429914  0.00523619  1
  O  O226  1  0.87420560  0.76131867  0.49827859  1
  O  O227  1  0.13807050  0.24941608  0.48256790  1
  O  O228  1  0.13284827  0.24613933  0.98673847  1
  O  O229  1  0.13361941  0.73771775  0.50777508  1
  O  O230  1  0.14142880  0.75431891  1.00502385  1
  O  O231  1  0.62588893  0.23538918  0.50230516  1
  O  O232  1  0.62678518  0.24853830  0.98759011  1
  O  O233  1  0.62236588  0.75288052  0.49412130  1
  O  O234  1  0.62850262  0.75012534  0.98775369  1
  O  O235  1  0.49004884  0.24002338  0.11410663  1
  O  O236  1  0.50401691  0.25133954  0.63637363  1
  O  O237  1  0.49955494  0.74489979  0.13218036  1
  O  O238  1  0.48905972  0.73953438  0.61721623  1
  O  O239  1  0.98483973  0.25167698  0.11666095  1
  O  O240  1  1.01091726  0.25095428  0.63567761  1
  O  O241  1  0.99912842  0.74084561  0.12777826  1
  O  O242  1  1.00630235  0.73160573  0.62080979  1
  O  O243  1  0.01162170  0.25515282  0.37987659  1
  O  O244  1  0.00760516  0.25640104  0.86777811  1
  O  O245  1  -0.00016147  0.75576312  0.36677943  1
  O  O246  1  0.00057023  0.75927868  0.87998196  1
  O  O247  1  0.49976081  0.26373990  0.38064330  1
  O  O248  1  0.50584600  0.25273442  0.86589802  1
  O  O249  1  0.50009542  0.75415096  0.37283250  1
  O  O250  1  0.51105100  0.76208292  0.88175731  1
  O  O251  1  0.25182025  0.13750776  0.49403492  1
  O  O252  1  0.25148781  0.13156083  0.99062077  1
  O  O253  1  0.24253882  0.62853688  0.49447580  1
  O  O254  1  0.25257460  0.63976655  1.00118446  1
  O  O255  1  0.74227796  0.13087149  0.50283913  1
  O  O256  1  0.75013541  0.12788917  0.98489460  1
  O  O257  1  0.75502441  0.62244507  0.49270070  1
  O  O258  1  0.75950323  0.61534758  0.99506224  1
  O  O259  1  0.25545520  0.36825992  0.00767329  1
  O  O260  1  0.24761764  0.36477185  0.50643458  1
  O  O261  1  0.25849102  0.86815607  -0.00148734  1
  O  O262  1  0.25773563  0.86522022  0.49314132  1
  O  O263  1  0.75732187  0.37790268  0.00983332  1
  O  O264  1  0.75124380  0.36675852  0.50918854  1
  O  O265  1  0.76516501  0.87449017  -0.00770210  1
  O  O266  1  0.76131338  0.87167128  0.51311110  1
  O  O267  1  0.12807672  0.50345460  0.24602829  1
  O  O268  1  0.12116597  0.49949074  0.73490486  1
  O  O269  1  0.13660260  0.99404560  0.24506951  1
  O  O270  1  0.13062725  0.99270203  0.74676284  1
  O  O271  1  0.63183474  0.49641229  0.24286083  1
  O  O272  1  0.63161712  0.49556939  0.74317713  1
  O  O273  1  0.61337393  0.99909110  0.23222123  1
  O  O274  1  0.63055314  0.99230546  0.74486484  1
  O  O275  1  0.36320076  -0.00262726  0.25673183  1
  O  O276  1  0.36714578  0.00252994  0.75381636  1
  O  O277  1  0.37343588  0.51348148  0.25774026  1
  O  O278  1  0.37880641  0.50860398  0.75903246  1
  O  O279  1  0.86960338  -0.00863008  0.23627177  1
  O  O280  1  0.86913719  0.00749947  0.75327105  1
  O  O281  1  0.85842935  0.50340469  0.25863302  1
  O  O282  1  0.86721716  0.50538580  0.75764390  1
  O  O283  1  0.12109877  0.36655828  0.37411896  1
  O  O284  1  0.11520911  0.36638075  0.87596862  1
  O  O285  1  0.11849919  0.87616486  0.36352474  1
  O  O286  1  0.11319422  0.87487467  0.86484357  1
  O  O287  1  0.61345544  0.37602513  0.36407948  1
  O  O288  1  0.61661978  0.36094745  0.86414443  1
  O  O289  1  0.60855075  0.86533714  0.37994281  1
  O  O290  1  0.61953483  0.86952183  0.87046345  1
  O  O291  1  0.38248130  0.13346353  0.12637957  1
  O  O292  1  0.37771384  0.11765281  0.63795579  1
  O  O293  1  0.38397528  0.62592882  0.13451009  1
  O  O294  1  0.37889287  0.62985372  0.62776735  1
  O  O295  1  0.87057517  0.14581882  0.11968368  1
  O  O296  1  0.87494624  0.12064191  0.63717232  1
  O  O297  1  0.89428130  0.62613448  0.13193247  1
  O  O298  1  0.88984502  0.61895773  0.63251611  1
  O  O299  1  0.25624928  0.25456798  0.11830894  1
  O  O300  1  0.24151118  0.26241677  0.61226328  1
  O  O301  1  0.25716203  0.75536906  0.11346415  1
  O  O302  1  0.25937253  0.74420433  0.61010021  1
  O  O303  1  0.75589024  0.26293303  0.11994381  1
  O  O304  1  0.74279695  0.26060348  0.61418316  1
  O  O305  1  0.77215165  0.73418257  0.12568996  1
  O  O306  1  0.74132119  0.76158212  0.62631671  1
  O  O307  1  0.24807869  0.24548457  0.38411470  1
  O  O308  1  0.24377989  0.24708260  0.87742868  1
  O  O309  1  0.25858658  0.73629274  0.38697034  1
  O  O310  1  0.25718713  0.74795503  0.89046491  1
  O  O311  1  0.73798266  0.26135888  0.39230118  1
  O  O312  1  0.74127990  0.24502617  0.87185712  1
  O  O313  1  0.73303393  0.73501436  0.38347127  1
  O  O314  1  0.73318209  0.75034481  0.87876472  1
  O  O315  1  0.00180377  0.11617930  0.00412901  1
  O  O316  1  -0.00385816  0.11021826  0.50140078  1
  O  O317  1  -0.00015375  0.61185348  0.00964482  1
  O  O318  1  0.00504715  0.61574755  0.50761062  1
  O  O319  1  0.49798209  0.11390105  0.00251770  1
  O  O320  1  0.50586615  0.11800476  0.50147762  1
  O  O321  1  0.49000187  0.61788214  0.00757766  1
  O  O322  1  0.49480847  0.61140634  0.51118646  1
  O  O323  1  0.50460237  0.38827890  0.49021982  1
  O  O324  1  0.49273920  0.38233676  0.99194911  1
  O  O325  1  0.49054656  0.88135449  0.49452490  1
  O  O326  1  0.49335851  0.88515275  0.99319717  1
  O  O327  1  0.99964480  0.38578481  0.50125051  1
  O  O328  1  0.99253409  0.37840578  0.98702543  1
  O  O329  1  0.99820539  0.87575984  0.49578860  1
  O  O330  1  0.99929311  0.87981394  0.98705309  1
  O  O331  1  0.49247563  0.49652746  0.38202444  1
  O  O332  1  0.49346754  0.49591925  0.87943403  1
  O  O333  1  0.49337221  0.99202844  0.38061951  1
  O  O334  1  0.49738340  0.99273686  0.88178699  1
  O  O335  1  0.99080734  0.49732546  0.38284117  1
  O  O336  1  0.99413519  0.49118547  0.87954414  1
  O  O337  1  1.01264207  0.99075372  0.39120460  1
  O  O338  1  1.00204376  0.99776501  0.88649157  1
  O  O339  1  0.01311507  -0.00231939  0.10998744  1
  O  O340  1  0.00608120  0.00209629  0.61712230  1
  O  O341  1  0.00572929  0.49785911  0.12349198  1
  O  O342  1  0.01039746  0.50365524  0.61870593  1
  O  O343  1  0.50246577  0.00995545  0.11585541  1
  O  O344  1  0.51219869  -0.00136568  0.62019196  1
  O  O345  1  0.50051764  0.50614549  0.11504150  1
  O  O346  1  0.50712620  0.50266415  0.61727137  1
  O  O347  1  0.25221730  0.37796062  0.23506755  1
  O  O348  1  0.24847069  0.36709180  0.73205887  1
  O  O349  1  0.24530994  0.88013005  0.25284202  1
  O  O350  1  0.23515593  0.88281351  0.75819754  1
  O  O351  1  0.73916550  0.38463569  0.24242782  1
  O  O352  1  0.74537600  0.38293288  0.74229144  1
  O  O353  1  0.74926229  0.84440923  0.25493647  1
  O  O354  1  0.74402003  0.87994455  0.74745551  1
  O  O355  1  0.25405222  0.11617948  0.25928406  1
  O  O356  1  0.25673364  0.12029555  0.75334187  1
  O  O357  1  0.25665265  0.62802510  0.25684124  1
  O  O358  1  0.26407899  0.62844850  0.74739441  1
  O  O359  1  0.76579516  0.14867315  0.26020086  1
  O  O360  1  0.75594367  0.12289435  0.75643467  1
  O  O361  1  0.75073440  0.62062241  0.26699809  1
  O  O362  1  0.75844157  0.61212889  0.74203919  1
  O  O363  1  0.36716477  0.11684963  0.37443484  1
  O  O364  1  0.36999887  0.11733139  0.86446204  1
  O  O365  1  0.36903614  0.61771530  0.36895207  1
  O  O366  1  0.37613632  0.61828942  0.86351256  1
  O  O367  1  0.86324240  0.11385815  0.37997879  1
  O  O368  1  0.86694986  0.12439806  0.86590260  1
  O  O369  1  0.86785585  0.61124843  0.37601995  1
  O  O370  1  0.88608862  0.61085978  0.86620455  1
  O  O371  1  0.13001138  0.37258105  0.12283193  1
  O  O372  1  0.13010401  0.38712462  0.62041324  1
  O  O373  1  0.12778105  0.88678818  0.13644827  1
  O  O374  1  0.11706435  0.88487209  0.64307774  1
  O  O375  1  0.62884874  0.38166321  0.12800471  1
  O  O376  1  0.63212433  0.38425317  0.63001511  1
  O  O377  1  0.61961256  0.89084527  0.11886557  1
  O  O378  1  0.62908134  0.87992917  0.63519641  1
  O  O379  1  0.13520202  0.24659825  0.27286945  1
  O  O380  1  0.11713757  0.24455494  0.76044069  1
  O  O381  1  0.11700491  0.75974982  0.24203050  1
  O  O382  1  0.13210108  0.76355659  0.74278020  1
  O  O383  1  0.62483143  0.26348847  0.24719752  1
  O  O384  1  0.61698690  0.25371043  0.75384080  1
  O  O385  1  0.60907504  0.74326271  0.26587258  1
  O  O386  1  0.62723737  0.76015103  0.76330141  1
  O  O387  1  0.37095910  0.25124899  0.23513169  1
  O  O388  1  0.38474241  0.23912401  0.75571652  1
  O  O389  1  0.38505186  0.73996946  0.25128997  1
  O  O390  1  0.37043062  0.74817815  0.73600352  1
  O  O391  1  0.87905054  0.26888320  0.23253222  1
  O  O392  1  0.88606371  0.24235091  0.75377937  1
  O  O393  1  0.89586821  0.74569800  0.23918941  1
  O  O394  1  0.86633651  0.73511084  0.75881543  1
  O  O395  1  0.38185900  0.50329383  0.48817407  1
  O  O396  1  0.38392581  0.49507513  0.99189528  1
  O  O397  1  0.37617177  0.99239424  0.49873851  1
  O  O398  1  0.37984611  0.99380893  0.99250703  1
  O  O399  1  0.88358432  0.49513515  0.49440982  1
  O  O400  1  0.88644326  0.48838743  0.99427423  1
  O  O401  1  0.89280194  0.98572075  0.50802217  1
  O  O402  1  0.88443036  0.99103437  1.00014285  1
  O  O403  1  0.12284253  -0.00074379  0.00671712  1
  O  O404  1  0.11151479  -0.01044375  0.51286138  1
  O  O405  1  0.11231801  0.49369380  0.00023760  1
  O  O406  1  0.11817458  0.50918747  0.50416142  1
  O  O407  1  0.61511412  0.00428190  0.00596741  1
  O  O408  1  0.62068209  0.00809578  0.50991731  1
  O  O409  1  0.60902340  0.49975752  0.00293533  1
  O  O410  1  0.61974081  0.49663036  0.51113364  1
  O  O411  1  0.37008889  0.36874287  0.11891782  1
  O  O412  1  0.35883256  0.38354552  0.62504576  1
  O  O413  1  0.37656941  0.87694748  0.11136627  1
  O  O414  1  0.38048902  0.86786278  0.61494521  1
  O  O415  1  0.86602095  0.36945446  0.11343588  1
  O  O416  1  0.86184723  0.38197626  0.62457974  1
  O  O417  1  0.89134495  0.85899966  0.10900250  1
  O  O418  1  0.86741144  0.87592646  0.62243253  1
  O  O419  1  0.13548395  0.12754672  0.37414270  1
  O  O420  1  0.13352338  0.13202628  0.87473748  1
  O  O421  1  0.13492977  0.62264727  0.38674241  1
  O  O422  1  0.12839398  0.61805602  0.88330827  1
  O  O423  1  0.62849319  0.12377940  0.38381028  1
  O  O424  1  0.63215168  0.13572403  0.87219048  1
  O  O425  1  0.62841193  0.62844609  0.37895298  1
  O  O426  1  0.61897588  0.63428823  0.87033775  1
