# generated using pymatgen
data_V85Zn86O256
_symmetry_space_group_name_H-M   'P 1'
_cell_length_a   16.96899946
_cell_length_b   16.95776892
_cell_length_c   16.95161285
_cell_angle_alpha   90.04125382
_cell_angle_beta   90.01049267
_cell_angle_gamma   89.94217294
_symmetry_Int_Tables_number   1
_chemical_formula_structural   V85Zn86O256
_chemical_formula_sum   'V85 Zn86 O256'
_cell_volume   4877.93077484
_cell_formula_units_Z   1
loop_
 _symmetry_equiv_pos_site_id
 _symmetry_equiv_pos_as_xyz
  1  'x, y, z'
loop_
 _atom_site_type_symbol
 _atom_site_label
 _atom_site_symmetry_multiplicity
 _atom_site_fract_x
 _atom_site_fract_y
 _atom_site_fract_z
 _atom_site_occupancy
  V  V0  1  0.25076192  0.74738847  0.50165833  1
  V  V1  1  0.50114959  0.37567794  0.37647929  1
  V  V2  1  0.37544535  0.37625337  0.50446334  1
  V  V3  1  0.75210915  0.37245982  0.62587155  1
  V  V4  1  0.42473868  -0.05099075  0.94516599  1
  V  V5  1  0.75184312  0.24801595  0.50290766  1
  V  V6  1  0.00685838  0.50003965  0.50977967  1
  V  V7  1  0.12433113  0.74216006  0.37449569  1
  V  V8  1  0.12046994  0.00087455  0.62606664  1
  V  V9  1  0.12435632  0.72970014  0.87447646  1
  V  V10  1  0.37192152  0.12135818  0.75355575  1
  V  V11  1  0.37152365  0.50434627  0.38201329  1
  V  V12  1  0.00003386  0.87232601  0.37611002  1
  V  V13  1  0.00252521  0.14339924  0.12612143  1
  V  V14  1  0.61442061  0.00092558  0.12170372  1
  V  V15  1  0.88792639  0.24504964  0.62693542  1
  V  V16  1  0.37168491  0.75527155  0.11922603  1
  V  V17  1  0.62569161  0.75164044  0.37597652  1
  V  V18  1  0.00663850  0.87225829  0.87134790  1
  V  V19  1  0.74993298  0.12478390  0.86769387  1
  V  V20  1  0.50013973  0.75401401  0.24999676  1
  V  V21  1  0.49938641  0.62729828  0.12441320  1
  V  V22  1  0.37432840  0.63056413  0.75968192  1
  V  V23  1  0.75351086  0.87533155  0.63694926  1
  V  V24  1  0.88351321  0.12037460  0.74601546  1
  V  V25  1  0.87647400  0.87296676  0.50579915  1
  V  V26  1  0.74577298  0.75464443  -0.00246174  1
  V  V27  1  0.12293140  0.01036320  0.12223535  1
  V  V28  1  -0.00106694  0.00492978  0.50134179  1
  V  V29  1  0.74924654  0.87793558  0.12385112  1
  V  V30  1  0.24873590  0.24898341  0.49810712  1
  V  V31  1  0.62324681  0.37505385  0.75108984  1
  V  V32  1  0.36315065  0.49580923  0.87711053  1
  V  V33  1  0.87085357  -0.00287429  0.86984121  1
  V  V34  1  0.87639458  0.63760683  0.74432142  1
  V  V35  1  0.00442567  0.63940405  0.62915141  1
  V  V36  1  0.62208959  0.12045952  -0.00327447  1
  V  V37  1  0.75470188  0.75169292  0.50696834  1
  V  V38  1  0.24906292  -0.00173945  0.75586553  1
  V  V39  1  0.50008601  0.25072837  0.75069100  1
  V  V40  1  0.87519267  0.50010316  0.37716168  1
  V  V41  1  0.37376890  0.63067080  0.25314698  1
  V  V42  1  0.62680698  0.12413916  0.50181693  1
  V  V43  1  0.49827309  0.24829829  0.24325129  1
  V  V44  1  0.62670795  0.62690153  0.00152676  1
  V  V45  1  0.24398441  0.72728616  -0.00278943  1
  V  V46  1  0.11347185  0.37625852  0.76443423  1
  V  V47  1  0.24572591  0.87665240  0.11481298  1
  V  V48  1  0.87721392  0.74998369  0.12404776  1
  V  V49  1  0.63078756  0.00080524  0.63249478  1
  V  V50  1  0.87752191  0.87906714  -0.00017151  1
  V  V51  1  0.49995954  0.12547589  0.62671399  1
  V  V52  1  0.74790928  0.62757199  0.87107933  1
  V  V53  1  0.87760884  0.37386515  0.50033719  1
  V  V54  1  0.38362973  0.75108261  0.63150277  1
  V  V55  1  0.80485364  0.44959688  0.19320563  1
  V  V56  1  0.62446015  0.25120083  0.37549621  1
  V  V57  1  0.00320134  0.37029401  0.36499406  1
  V  V58  1  0.62531188  0.50081431  0.62551735  1
  V  V59  1  0.36869112  0.12434629  0.25004894  1
  V  V60  1  0.60813560  0.75287098  0.87238040  1
  V  V61  1  0.12105866  0.50621048  0.11391753  1
  V  V62  1  0.23782185  0.13756944  0.87270797  1
  V  V63  1  0.75052657  0.50029343  0.75067564  1
  V  V64  1  0.12608967  0.87181937  0.24774752  1
  V  V65  1  0.23601308  0.38375098  0.62602835  1
  V  V66  1  0.24868987  0.87275443  0.62836543  1
  V  V67  1  0.75357388  0.00073351  0.24823031  1
  V  V68  1  0.62591357  0.62671491  0.50276970  1
  V  V69  1  0.13237121  0.37136435  0.24402758  1
  V  V70  1  0.50195754  0.50234088  0.50430119  1
  V  V71  1  0.62473583  0.87627019  0.25007769  1
  V  V72  1  0.88593616  0.48811462  0.87316858  1
  V  V73  1  0.37322584  0.25229167  0.62583885  1
  V  V74  1  0.88088593  0.13639484  0.24497571  1
  V  V75  1  0.49867256  0.37694760  0.88322382  1
  V  V76  1  0.75193167  0.12380521  0.37411581  1
  V  V77  1  0.50010226  -0.00124644  0.49808589  1
  V  V78  1  0.12258699  0.12554366  0.50181874  1
  V  V79  1  0.62764516  0.49642602  0.13056580  1
  V  V80  1  0.75022555  0.25277322  0.01647883  1
  V  V81  1  0.87653967  0.62938473  0.25217291  1
  V  V82  1  0.26969212  0.48356410  0.22144082  1
  V  V83  1  0.60739305  0.87444936  0.75427386  1
  V  V84  1  0.75050550  0.62329077  0.37445360  1
  Zn  Zn85  1  0.24092606  0.50603056  0.75047801  1
  Zn  Zn86  1  0.00389020  0.00584120  0.00063449  1
  Zn  Zn87  1  0.50065507  0.49828344  -0.00088084  1
  Zn  Zn88  1  0.62703777  0.25020826  0.87585470  1
  Zn  Zn89  1  0.87732294  -0.00035050  0.37357266  1
  Zn  Zn90  1  0.24625258  0.62227811  0.37375747  1
  Zn  Zn91  1  0.50227856  0.63025468  0.63215818  1
  Zn  Zn92  1  0.12179151  0.86844456  0.75273680  1
  Zn  Zn93  1  0.63039908  0.37913558  0.24990263  1
  Zn  Zn94  1  0.00425248  0.61939075  0.10870803  1
  Zn  Zn95  1  0.36870249  -0.00288382  0.37879502  1
  Zn  Zn96  1  0.86474964  0.37471242  0.00472885  1
  Zn  Zn97  1  0.37571025  0.87497966  0.50032746  1
  Zn  Zn98  1  0.24987218  0.11994122  0.37790099  1
  Zn  Zn99  1  0.00281799  0.74636335  0.24766806  1
  Zn  Zn100  1  0.00674128  0.24649984  0.77259937  1
  Zn  Zn101  1  0.49707220  0.87566820  0.37554993  1
  Zn  Zn102  1  0.09941327  0.18575080  -0.04238925  1
  Zn  Zn103  1  0.49144932  0.13577720  0.10870141  1
  Zn  Zn104  1  0.12191717  0.24522009  0.36621361  1
  Zn  Zn105  1  0.12845025  0.62074191  0.50949756  1
  Zn  Zn106  1  0.24946158  -0.00102644  0.25278807  1
  Zn  Zn107  1  0.26743173  0.27243842  0.03884848  1
  Zn  Zn108  1  0.18241694  0.19098843  0.68704685  1
  Zn  Zn109  1  0.18986525  0.67897424  0.18428746  1
  Zn  Zn110  1  0.18990149  0.68732623  0.69371924  1
  Zn  Zn111  1  0.68148921  0.18396478  0.18935398  1
  Zn  Zn112  1  0.69166738  0.18710132  0.69110885  1
  Zn  Zn113  1  0.69089039  0.68709062  0.18763055  1
  Zn  Zn114  1  0.68555804  0.69231907  0.68940332  1
  Zn  Zn115  1  0.31488782  0.30882228  0.31178683  1
  Zn  Zn116  1  0.31000336  0.31715416  0.81171281  1
  Zn  Zn117  1  0.31043265  0.81625277  0.31561724  1
  Zn  Zn118  1  0.31231794  0.81384576  0.82253452  1
  Zn  Zn119  1  0.81414717  0.30979804  0.31533676  1
  Zn  Zn120  1  0.81290768  0.30658327  0.81166641  1
  Zn  Zn121  1  0.81267920  0.81331659  0.31646380  1
  Zn  Zn122  1  0.80963896  0.81276726  0.81613496  1
  Zn  Zn123  1  0.18639068  0.43621898  0.43704367  1
  Zn  Zn124  1  0.17791439  0.39357832  0.96277844  1
  Zn  Zn125  1  0.18691424  0.93329597  0.43731043  1
  Zn  Zn126  1  0.19205793  0.94138683  0.93995463  1
  Zn  Zn127  1  0.68976125  0.43744251  0.43725042  1
  Zn  Zn128  1  0.68735202  0.43845559  0.93997233  1
  Zn  Zn129  1  0.68802351  0.93781566  0.43849497  1
  Zn  Zn130  1  0.68537238  0.93951529  0.93348343  1
  Zn  Zn131  1  0.31882207  0.10977823  0.05324495  1
  Zn  Zn132  1  0.31082946  0.06219494  0.56575559  1
  Zn  Zn133  1  0.31225096  0.46273463  0.05399740  1
  Zn  Zn134  1  0.31416910  0.56733765  0.56867095  1
  Zn  Zn135  1  0.81177179  0.06643786  0.06212400  1
  Zn  Zn136  1  0.81347106  0.06007765  0.56523204  1
  Zn  Zn137  1  0.83828298  0.57842872  0.04309833  1
  Zn  Zn138  1  0.81680335  0.56297947  0.56410534  1
  Zn  Zn139  1  0.44587356  0.44087723  0.19280524  1
  Zn  Zn140  1  0.43470628  0.44084580  0.69248991  1
  Zn  Zn141  1  0.43096561  0.94091643  0.18628115  1
  Zn  Zn142  1  0.43518591  0.94021538  0.68486225  1
  Zn  Zn143  1  0.99347836  0.38263480  0.13510493  1
  Zn  Zn144  1  0.93825273  0.43831326  0.68819503  1
  Zn  Zn145  1  0.94135958  0.93842885  0.18842359  1
  Zn  Zn146  1  0.93910543  0.93500285  0.68911110  1
  Zn  Zn147  1  0.06450656  0.06068690  0.31251906  1
  Zn  Zn148  1  0.05835166  0.05631912  0.81102767  1
  Zn  Zn149  1  0.06472056  0.55384006  0.30170984  1
  Zn  Zn150  1  0.05985688  0.55401911  0.80639740  1
  Zn  Zn151  1  0.56275513  0.06423976  0.31165608  1
  Zn  Zn152  1  0.55770563  0.05628583  0.81720286  1
  Zn  Zn153  1  0.56205181  0.56333906  0.31313137  1
  Zn  Zn154  1  0.55777014  0.56497274  0.81191438  1
  Zn  Zn155  1  0.43703408  0.18567394  0.43504875  1
  Zn  Zn156  1  0.43340357  0.18685989  0.93125254  1
  Zn  Zn157  1  0.43888387  0.69082502  0.44166058  1
  Zn  Zn158  1  0.43081287  0.68454899  0.94214997  1
  Zn  Zn159  1  0.93797106  0.18641979  0.43432064  1
  Zn  Zn160  1  0.92575556  0.18422534  0.94445722  1
  Zn  Zn161  1  0.93946947  0.68780385  0.44331529  1
  Zn  Zn162  1  0.94101284  0.68541786  0.93054031  1
  Zn  Zn163  1  0.03901153  0.33018662  -0.04857678  1
  Zn  Zn164  1  0.06157752  0.31218016  0.55804939  1
  Zn  Zn165  1  0.06300971  0.80894708  0.05706885  1
  Zn  Zn166  1  0.06487919  0.81201070  0.56200904  1
  Zn  Zn167  1  0.56872233  0.31182269  0.06097661  1
  Zn  Zn168  1  0.56323899  0.31269878  0.56381892  1
  Zn  Zn169  1  0.55496604  0.82028467  0.05598513  1
  Zn  Zn170  1  0.56540017  0.81571543  0.56433936  1
  O  O171  1  0.11035837  0.11141370  0.13681837  1
  O  O172  1  0.12819943  0.11529445  0.61209346  1
  O  O173  1  0.11745538  0.61502851  0.12531799  1
  O  O174  1  0.10924492  0.62977019  0.62968544  1
  O  O175  1  0.62171649  0.11637045  0.11606940  1
  O  O176  1  0.62292443  0.11689024  0.62464677  1
  O  O177  1  0.61953362  0.62072195  0.12364418  1
  O  O178  1  0.62376079  0.62079011  0.62109495  1
  O  O179  1  0.38151499  0.38438998  0.38440810  1
  O  O180  1  0.38606221  0.38901996  0.86058908  1
  O  O181  1  0.37912639  0.87746271  0.38201004  1
  O  O182  1  0.36340732  0.88980877  0.88644384  1
  O  O183  1  0.88042222  0.38283066  0.37828987  1
  O  O184  1  0.87464370  0.38560437  0.86561541  1
  O  O185  1  0.87992963  0.87732955  0.38750687  1
  O  O186  1  0.87837021  0.87937102  0.88197813  1
  O  O187  1  0.24811905  0.00057844  0.37224879  1
  O  O188  1  0.24040704  0.00699590  0.85735896  1
  O  O189  1  0.26623959  0.50439678  0.38733164  1
  O  O190  1  0.26447339  0.49250952  0.87178982  1
  O  O191  1  0.75091311  0.00637465  0.36675523  1
  O  O192  1  0.76366877  0.00681843  0.87968060  1
  O  O193  1  0.76355630  0.51059592  0.38657621  1
  O  O194  1  0.74113059  0.50743596  0.85839091  1
  O  O195  1  0.23725316  0.51837381  0.12590302  1
  O  O196  1  0.25542361  0.48535387  0.62470198  1
  O  O197  1  0.23315151  0.98946025  0.13336180  1
  O  O198  1  0.23835626  0.99088839  0.62721616  1
  O  O199  1  0.74682714  0.50512446  0.12885357  1
  O  O200  1  0.74776077  0.49471381  0.63341569  1
  O  O201  1  0.74501715  0.99652586  0.13234870  1
  O  O202  1  0.73742441  0.99087115  0.62040448  1
  O  O203  1  0.01887891  0.38005301  0.25485145  1
  O  O204  1  0.01088195  0.37114245  0.74471323  1
  O  O205  1  0.00947522  0.87008078  0.25687210  1
  O  O206  1  -0.00138061  0.87493774  0.76640259  1
  O  O207  1  0.50162102  0.36689684  0.26042737  1
  O  O208  1  0.50685091  0.36943212  0.75327778  1
  O  O209  1  0.50728082  0.87027183  0.25052574  1
  O  O210  1  0.50920460  0.87604343  0.74582780  1
  O  O211  1  0.49650433  0.13748586  0.25569353  1
  O  O212  1  0.49166924  0.12889497  0.74558363  1
  O  O213  1  0.49460475  0.63282155  0.24408373  1
  O  O214  1  0.48248627  0.62370095  0.74739332  1
  O  O215  1  0.98726373  0.11894694  0.24412513  1
  O  O216  1  0.98719605  0.12658213  0.75143233  1
  O  O217  1  0.98343364  0.62576029  0.25133589  1
  O  O218  1  0.98739024  0.62061149  0.73852045  1
  O  O219  1  0.37060472  0.21185635  0.01758030  1
  O  O220  1  0.36920417  0.25493831  0.50650599  1
  O  O221  1  0.35999931  0.74384338  0.00996350  1
  O  O222  1  0.36661988  0.75053155  0.51132480  1
  O  O223  1  0.85382747  0.24801124  0.00485349  1
  O  O224  1  0.87017378  0.25251467  0.50564218  1
  O  O225  1  0.86618041  0.76430241  0.00570698  1
  O  O226  1  0.86614381  0.76021471  0.49775497  1
  O  O227  1  0.13119853  0.24088537  0.49914449  1
  O  O228  1  0.14002084  0.28285301  0.99634899  1
  O  O229  1  0.13223988  0.74568178  0.49276098  1
  O  O230  1  0.13428578  0.74608671  0.99103967  1
  O  O231  1  0.63103077  0.24362426  0.49634026  1
  O  O232  1  0.63473243  0.24076168  0.99620463  1
  O  O233  1  0.63235584  0.74625742  0.49634396  1
  O  O234  1  0.62783749  0.74940930  0.99428828  1
  O  O235  1  0.50881189  0.25132815  0.13940527  1
  O  O236  1  0.49540137  0.24457004  0.63101473  1
  O  O237  1  0.49275346  0.74790851  0.12943014  1
  O  O238  1  0.48636799  0.75394327  0.62190045  1
  O  O239  1  1.00610443  0.23897465  0.13294812  1
  O  O240  1  0.98801599  0.24955330  0.61937155  1
  O  O241  1  0.98596374  0.74729053  0.12453702  1
  O  O242  1  0.99686824  0.73827473  0.62102686  1
  O  O243  1  0.00032153  0.26615841  0.37997057  1
  O  O244  1  0.00520647  0.24044307  0.88827878  1
  O  O245  1  0.00752708  0.75459763  0.37621003  1
  O  O246  1  0.01588240  0.75576412  0.88286168  1
  O  O247  1  0.50778411  0.25710568  0.37359141  1
  O  O248  1  0.49961200  0.25763910  0.86531143  1
  O  O249  1  0.50911833  0.75043729  0.36953496  1
  O  O250  1  0.50950129  0.74591879  0.88250028  1
  O  O251  1  0.24228020  0.13275333  0.50120362  1
  O  O252  1  0.23439373  0.11514398  0.97033137  1
  O  O253  1  0.24731353  0.63594524  0.50255247  1
  O  O254  1  0.24819258  0.63290421  1.00116618  1
  O  O255  1  0.74591449  0.12782868  0.49540503  1
  O  O256  1  0.74311320  0.13251152  0.99252301  1
  O  O257  1  0.74908299  0.63345961  0.49569541  1
  O  O258  1  0.74432482  0.63578440  0.99267144  1
  O  O259  1  0.28117592  0.37317837  -0.00539818  1
  O  O260  1  0.25487607  0.37015533  0.50884910  1
  O  O261  1  0.24381937  0.86872101  0.01352129  1
  O  O262  1  0.24833366  0.86326018  0.51095532  1
  O  O263  1  0.74644669  0.35715790  -0.00379550  1
  O  O264  1  0.75841750  0.36904867  0.50531372  1
  O  O265  1  0.75570083  0.87270393  0.00356041  1
  O  O266  1  0.75662953  0.86999018  0.50790393  1
  O  O267  1  0.14746281  0.49536958  0.24714335  1
  O  O268  1  0.12566222  0.48317482  0.74628542  1
  O  O269  1  0.12297793  0.98830413  0.24244443  1
  O  O270  1  0.12921365  0.99540428  0.73956422  1
  O  O271  1  0.62326159  0.50066253  0.24071555  1
  O  O272  1  0.63044449  0.49733090  0.74214089  1
  O  O273  1  0.63658680  0.99826745  0.24417055  1
  O  O274  1  0.62130009  0.98799561  0.74400963  1
  O  O275  1  0.37430974  0.00853081  0.25982521  1
  O  O276  1  0.36105922  0.01095430  0.73460568  1
  O  O277  1  0.37677375  0.51315821  0.26670791  1
  O  O278  1  0.37269546  0.51092984  0.75962151  1
  O  O279  1  0.86412063  0.00270458  0.25056995  1
  O  O280  1  0.87756283  0.00565869  0.75807967  1
  O  O281  1  0.86350173  0.51122710  0.25900017  1
  O  O282  1  0.86609694  0.50400597  0.75661452  1
  O  O283  1  0.11556328  0.37693534  0.36995172  1
  O  O284  1  0.11426630  0.38123045  0.86618369  1
  O  O285  1  0.12038092  0.86141024  0.36923342  1
  O  O286  1  0.11691848  0.87587683  0.87680093  1
  O  O287  1  0.61997083  0.36998556  0.37554322  1
  O  O288  1  0.61686640  0.37454027  0.86704671  1
  O  O289  1  0.62546114  0.86916989  0.36794673  1
  O  O290  1  0.62780527  0.87019742  0.86094607  1
  O  O291  1  0.38896780  0.10697224  0.14914160  1
  O  O292  1  0.37926113  0.13373207  0.63074791  1
  O  O293  1  0.38684075  0.63860663  0.13784849  1
  O  O294  1  0.37950764  0.63566992  0.63430662  1
  O  O295  1  0.88902556  0.11978533  0.13514167  1
  O  O296  1  0.86717684  0.13227219  0.63505551  1
  O  O297  1  0.85570761  0.63877057  0.14272984  1
  O  O298  1  0.88104403  0.62393733  0.63743768  1
  O  O299  1  0.25296848  0.18939283  0.11114032  1
  O  O300  1  0.25332880  0.25979259  0.61545845  1
  O  O301  1  0.25377306  0.75187257  0.11623798  1
  O  O302  1  0.25476939  0.75682902  0.62131445  1
  O  O303  1  0.74129888  0.24778938  0.11549575  1
  O  O304  1  0.75704960  0.25460981  0.62015829  1
  O  O305  1  0.75710913  0.75950696  0.12013865  1
  O  O306  1  0.74468788  0.75955888  0.61405377  1
  O  O307  1  0.24976513  0.25090584  0.39091808  1
  O  O308  1  0.25098461  0.23742313  0.86611906  1
  O  O309  1  0.24289318  0.74673197  0.38481698  1
  O  O310  1  0.23846402  0.74900655  0.88903492  1
  O  O311  1  0.74495785  0.24423624  0.38277862  1
  O  O312  1  0.74769547  0.23731665  0.87756714  1
  O  O313  1  0.74554369  0.74538352  0.38777262  1
  O  O314  1  0.74028473  0.74547104  0.87989752  1
  O  O315  1  0.00477552  0.12750720  0.01551345  1
  O  O316  1  0.00463632  0.11243445  0.49614671  1
  O  O317  1  -0.05571828  0.61722704  0.01549724  1
  O  O318  1  -0.00134872  0.61918293  0.51491409  1
  O  O319  1  0.51869814  0.13053587  -0.00597603  1
  O  O320  1  0.50803152  0.12080851  0.50806983  1
  O  O321  1  0.50724891  0.62890814  0.01405438  1
  O  O322  1  0.50882277  0.61976487  0.50448361  1
  O  O323  1  0.49533008  0.38115200  0.49647233  1
  O  O324  1  0.50339829  0.37352327  0.98693522  1
  O  O325  1  0.50105023  0.88599244  0.50076624  1
  O  O326  1  0.48373246  0.88781479  1.00447824  1
  O  O327  1  0.99424922  0.38385242  0.49331151  1
  O  O328  1  0.97440405  0.37842195  1.02409083  1
  O  O329  1  0.99327660  0.88142863  0.49791021  1
  O  O330  1  0.99044451  0.87492312  0.99099906  1
  O  O331  1  0.49303904  0.49740840  0.38457770  1
  O  O332  1  0.49708725  0.49040750  0.87503423  1
  O  O333  1  0.50706677  1.00055742  0.39079971  1
  O  O334  1  0.48616103  1.00026345  0.88065703  1
  O  O335  1  0.98846045  0.49452715  0.37783663  1
  O  O336  1  0.98358226  0.50320823  0.87642807  1
  O  O337  1  1.00066896  0.99042194  0.38449723  1
  O  O338  1  0.98886088  0.99311221  0.88127366  1
  O  O339  1  0.01194805  -0.00148302  0.12258402  1
  O  O340  1  0.01250374  -0.00790567  0.61702114  1
  O  O341  1  0.01942557  0.50255585  0.13989119  1
  O  O342  1  -0.00796394  0.50868728  0.61409837  1
  O  O343  1  0.51399893  0.00099999  0.13327487  1
  O  O344  1  0.51077813  0.00551302  0.61796030  1
  O  O345  1  0.50806489  0.51161967  0.12364843  1
  O  O346  1  0.50680480  0.49919222  0.61841500  1
  O  O347  1  0.24369472  0.38804252  0.26942751  1
  O  O348  1  0.23826731  0.37569184  0.73775303  1
  O  O349  1  0.23580101  0.87025831  0.24384189  1
  O  O350  1  0.24939667  0.88119320  0.74183757  1
  O  O351  1  0.75096229  0.38355097  0.25237112  1
  O  O352  1  0.74380455  0.38126361  0.74556186  1
  O  O353  1  0.74567337  0.88262571  0.24631820  1
  O  O354  1  0.74796526  0.87175848  0.73868832  1
  O  O355  1  0.26676863  0.12560033  0.25685184  1
  O  O356  1  0.25329428  0.11844877  0.74749130  1
  O  O357  1  0.26560531  0.61485408  0.25079040  1
  O  O358  1  0.26749862  0.61915233  0.74175769  1
  O  O359  1  0.75933069  0.11806463  0.25130882  1
  O  O360  1  0.76032878  0.12673257  0.76173231  1
  O  O361  1  0.75656897  0.63562852  0.26956700  1
  O  O362  1  0.75820742  0.61901852  0.74748673  1
  O  O363  1  0.37453974  0.11954566  0.36828688  1
  O  O364  1  0.36186606  0.12623524  0.85661993  1
  O  O365  1  0.37629078  0.62136948  0.37111466  1
  O  O366  1  0.37739705  0.61679097  0.86488769  1
  O  O367  1  0.87110217  0.12185074  0.36246568  1
  O  O368  1  0.86850425  0.11513292  0.86890865  1
  O  O369  1  0.87064024  0.61974049  0.37352117  1
  O  O370  1  0.86602103  0.61706911  0.85881414  1
  O  O371  1  0.12709158  0.38784392  0.14168806  1
  O  O372  1  0.13596718  0.37692832  0.61789679  1
  O  O373  1  0.12762152  0.87378747  0.13225954  1
  O  O374  1  0.13244283  0.87876210  0.62861866  1
  O  O375  1  0.62137354  0.39246026  0.12599443  1
  O  O376  1  0.63294737  0.38002639  0.62993652  1
  O  O377  1  0.63091535  0.88137914  0.12937544  1
  O  O378  1  0.63127983  0.88054428  0.63691426  1
  O  O379  1  0.14096398  0.27249483  0.25343919  1
  O  O380  1  0.11995145  0.26937097  0.74087178  1
  O  O381  1  0.12431454  0.75211325  0.25621581  1
  O  O382  1  0.13310064  0.75170954  0.77056791  1
  O  O383  1  0.61973735  0.25333811  0.26030844  1
  O  O384  1  0.61736272  0.25500987  0.75069142  1
  O  O385  1  0.62137759  0.75562780  0.25515938  1
  O  O386  1  0.62487335  0.76426802  0.75701558  1
  O  O387  1  0.38581018  0.23844733  0.25664090  1
  O  O388  1  0.38010595  0.24545344  0.74224825  1
  O  O389  1  0.37877812  0.74500169  0.24783386  1
  O  O390  1  0.36775195  0.74060068  0.74752085  1
  O  O391  1  0.87051225  0.23461859  0.24988121  1
  O  O392  1  0.88109315  0.24155194  0.74232275  1
  O  O393  1  0.87571884  0.74674742  0.24401132  1
  O  O394  1  0.87039018  0.73588342  0.75381356  1
  O  O395  1  0.38387308  0.49881379  0.49992728  1
  O  O396  1  0.38420905  0.51273718  0.97976843  1
  O  O397  1  0.38655902  0.99984729  0.50379355  1
  O  O398  1  0.37143170  1.01387808  1.00362487  1
  O  O399  1  0.88264382  0.49457363  0.49359242  1
  O  O400  1  0.84594121  0.49021946  0.97120610  1
  O  O401  1  0.88368653  0.99444866  0.49910068  1
  O  O402  1  0.87548988  0.99067019  0.99631017  1
  O  O403  1  0.12340415  -0.00382845  0.01812047  1
  O  O404  1  0.11775014  0.00420323  0.50527522  1
  O  O405  1  0.12643395  0.48695581  0.01627329  1
  O  O406  1  0.11082374  0.50493939  0.49240717  1
  O  O407  1  0.63403531  0.00755432  0.01030962  1
  O  O408  1  0.62100156  0.00539446  0.50965462  1
  O  O409  1  0.62455618  0.51068657  0.00868711  1
  O  O410  1  0.62251565  0.50623168  0.50633346  1
  O  O411  1  0.34108659  0.42158969  0.15831682  1
  O  O412  1  0.36878920  0.36931523  0.62209819  1
  O  O413  1  0.36102272  0.86187055  0.13678862  1
  O  O414  1  0.36498112  0.86841447  0.62440300  1
  O  O415  1  0.86687326  0.39290496  0.14023480  1
  O  O416  1  0.87016578  0.36640059  0.62096748  1
  O  O417  1  0.87086823  0.87031050  0.11950122  1
  O  O418  1  0.86738061  0.88171546  0.61484019  1
  O  O419  1  0.12515358  0.12741109  0.38658100  1
  O  O420  1  0.13192129  0.12879144  0.85969005  1
  O  O421  1  0.12416574  0.63418888  0.37275649  1
  O  O422  1  0.11713473  0.63118932  0.87114549  1
  O  O423  1  0.63330812  0.13127939  0.38075721  1
  O  O424  1  0.63488490  0.12048498  0.87804972  1
  O  O425  1  0.63369252  0.62845334  0.38260820  1
  O  O426  1  0.62881774  0.63403141  0.87741501  1
