# generated using pymatgen
data_V85Zn86O256
_symmetry_space_group_name_H-M   'P 1'
_cell_length_a   16.92753009
_cell_length_b   16.93069966
_cell_length_c   16.92578421
_cell_angle_alpha   90.01717704
_cell_angle_beta   90.05429266
_cell_angle_gamma   89.96982288
_symmetry_Int_Tables_number   1
_chemical_formula_structural   V85Zn86O256
_chemical_formula_sum   'V85 Zn86 O256'
_cell_volume   4850.84083893
_cell_formula_units_Z   1
loop_
 _symmetry_equiv_pos_site_id
 _symmetry_equiv_pos_as_xyz
  1  'x, y, z'
loop_
 _atom_site_type_symbol
 _atom_site_label
 _atom_site_symmetry_multiplicity
 _atom_site_fract_x
 _atom_site_fract_y
 _atom_site_fract_z
 _atom_site_occupancy
  V  V0  1  0.13283619  0.62315467  -0.00554841  1
  V  V1  1  0.23507154  0.62735210  0.37690155  1
  V  V2  1  0.74866271  -0.00229105  0.24556767  1
  V  V3  1  0.25476454  0.75215110  0.00418040  1
  V  V4  1  0.86639326  0.62434021  0.24825981  1
  V  V5  1  0.00145296  0.12431105  0.12245400  1
  V  V6  1  0.00334446  0.50344337  0.49888120  1
  V  V7  1  0.12623414  0.87538248  0.75059513  1
  V  V8  1  0.13061583  0.36829678  0.25593942  1
  V  V9  1  0.62030170  0.50452652  0.61165618  1
  V  V10  1  0.38574501  0.87361582  0.00587674  1
  V  V11  1  0.37553674  -0.00186334  0.88054881  1
  V  V12  1  0.00273403  0.37333550  0.87477103  1
  V  V13  1  0.62811644  0.38471735  0.25201478  1
  V  V14  1  0.37738383  0.23928463  0.12543523  1
  V  V15  1  0.13084354  0.37634432  0.74355495  1
  V  V16  1  0.00277889  0.87314787  0.87343420  1
  V  V17  1  0.48780903  0.62384418  0.12669243  1
  V  V18  1  0.36729835  0.38048090  0.50479433  1
  V  V19  1  0.62607388  0.75792939  0.87380665  1
  V  V20  1  0.86901955  0.49863627  0.36811918  1
  V  V21  1  0.31399424  0.17670988  0.80939962  1
  V  V22  1  0.37422767  0.87848437  0.49248602  1
  V  V23  1  0.25492354  0.50004811  0.25032634  1
  V  V24  1  0.00391776  0.24667644  0.25508675  1
  V  V25  1  0.61848950  0.75426749  0.38291127  1
  V  V26  1  0.49649801  0.12027457  0.63502652  1
  V  V27  1  0.74866228  0.87827246  0.62037994  1
  V  V28  1  0.25105813  0.87580436  0.62276455  1
  V  V29  1  0.74910340  0.50348352  0.74738981  1
  V  V30  1  0.25238391  0.36852634  0.11943722  1
  V  V31  1  0.37962024  0.50598899  0.38047491  1
  V  V32  1  -0.00096837  0.62700286  0.12460548  1
  V  V33  1  0.86824729  0.24711742  0.12093404  1
  V  V34  1  0.74043436  0.62372612  0.37697311  1
  V  V35  1  0.75036465  0.12983998  0.88555033  1
  V  V36  1  0.75020325  0.63100858  0.88246905  1
  V  V37  1  0.13268506  0.74493419  0.86977481  1
  V  V38  1  0.61075558  0.00017133  0.11857081  1
  V  V39  1  0.12494743  0.00106159  0.62514641  1
  V  V40  1  0.75134689  0.38118740  0.12961442  1
  V  V41  1  0.12601805  0.49718075  0.12464708  1
  V  V42  1  0.50055393  0.37894987  0.38360656  1
  V  V43  1  0.00242117  -0.00066936  -0.00153191  1
  V  V44  1  0.76307404  0.74825831  0.50534038  1
  V  V45  1  0.49402151  0.00254250  0.49512264  1
  V  V46  1  0.87587121  0.12186073  0.25038056  1
  V  V47  1  0.62303982  0.37616348  0.74937302  1
  V  V48  1  0.25495131  0.00124010  0.25569923  1
  V  V49  1  0.12196301  0.86873267  0.25546525  1
  V  V50  1  -0.00061385  0.62971913  0.62193393  1
  V  V51  1  0.72800776  -0.00388034  0.74876021  1
  V  V52  1  0.87591018  0.50081396  0.87214559  1
  V  V53  1  0.74787767  0.37637781  0.62477598  1
  V  V54  1  0.13220849  0.50148949  0.62038880  1
  V  V55  1  0.25718030  0.00053164  0.75332029  1
  V  V56  1  0.00121947  0.24947498  0.75126208  1
  V  V57  1  0.62301264  0.11679565  0.50701517  1
  V  V58  1  0.87347513  0.63381831  0.74429440  1
  V  V59  1  0.86862538  0.36985179  -0.00260257  1
  V  V60  1  0.87315750  -0.01350404  0.37777321  1
  V  V61  1  0.87421766  -0.00164246  0.86876877  1
  V  V62  1  0.00056601  0.37202142  0.37363034  1
  V  V63  1  0.37063180  0.25158207  0.62013193  1
  V  V64  1  0.61226887  0.13075470  0.00603505  1
  V  V65  1  0.50583271  0.38475236  0.88094560  1
  V  V66  1  0.87352477  0.25013776  0.62533998  1
  V  V67  1  0.62461633  0.24902823  0.37524562  1
  V  V68  1  0.37214132  0.50834161  0.87916087  1
  V  V69  1  -0.00567850  -0.00673647  0.50079199  1
  V  V70  1  0.38387392  0.37681132  0.00671452  1
  V  V71  1  0.62089630  0.62216382  0.00266690  1
  V  V72  1  0.87456979  0.86444725  -0.00191575  1
  V  V73  1  0.87442119  0.37370101  0.49841059  1
  V  V74  1  0.50237762  0.62411999  0.61243236  1
  V  V75  1  -0.00206561  0.12328781  0.62637744  1
  V  V76  1  0.23697176  0.74740702  0.49537443  1
  V  V77  1  0.37677316  0.75096451  0.62582117  1
  V  V78  1  0.74810259  0.24706151  0.50181914  1
  V  V79  1  0.74969123  0.87040033  0.11931600  1
  V  V80  1  0.13751671  0.13107470  -0.00481892  1
  V  V81  1  0.50193169  0.24519761  0.24626589  1
  V  V82  1  0.12429400  0.12972750  0.48944194  1
  V  V83  1  0.00110718  0.49790349  -0.00131759  1
  V  V84  1  0.74990780  0.12137387  0.37714618  1
  Zn  Zn85  1  0.86942927  0.12480390  0.74987693  1
  Zn  Zn86  1  0.13741875  0.24892740  0.87582394  1
  Zn  Zn87  1  0.49898081  0.25105948  0.75404316  1
  Zn  Zn88  1  0.00223784  0.74524113  0.25831874  1
  Zn  Zn89  1  0.49406487  0.75632165  0.24194503  1
  Zn  Zn90  1  0.62392930  0.87261395  0.24885831  1
  Zn  Zn91  1  0.25073181  0.87262270  0.12772386  1
  Zn  Zn92  1  0.36973004  0.63852007  0.25053911  1
  Zn  Zn93  1  0.37375237  0.62770230  0.75150808  1
  Zn  Zn94  1  0.63011003  0.25608093  0.88282814  1
  Zn  Zn95  1  0.62439638  0.50047442  0.12304864  1
  Zn  Zn96  1  0.38633692  0.11496039  0.25498851  1
  Zn  Zn97  1  0.00087846  0.86107409  0.38420658  1
  Zn  Zn98  1  0.12738623  -0.00371055  0.12465539  1
  Zn  Zn99  1  0.50464655  0.88258980  0.86768446  1
  Zn  Zn100  1  0.50802179  0.75425256  0.74565076  1
  Zn  Zn101  1  0.87012614  0.74715610  0.12291614  1
  Zn  Zn102  1  0.25891282  0.13220595  0.37269302  1
  Zn  Zn103  1  0.24282246  0.25684534  0.49346903  1
  Zn  Zn104  1  0.24886233  0.50822529  0.75185175  1
  Zn  Zn105  1  -0.00233643  0.75258058  0.74396382  1
  Zn  Zn106  1  0.49604220  0.88133510  0.36948027  1
  Zn  Zn107  1  0.18913610  0.18480507  0.18548988  1
  Zn  Zn108  1  0.18288171  0.19207556  0.67620239  1
  Zn  Zn109  1  0.18772374  0.68692244  0.18615880  1
  Zn  Zn110  1  0.19054687  0.68287859  0.68563835  1
  Zn  Zn111  1  0.68635525  0.18786951  0.18594479  1
  Zn  Zn112  1  0.68465349  0.18541846  0.69140418  1
  Zn  Zn113  1  0.68352464  0.68992864  0.19116728  1
  Zn  Zn114  1  0.68603357  0.69034182  0.68502913  1
  Zn  Zn115  1  0.31541419  0.30565006  0.31713903  1
  Zn  Zn116  1  0.31755864  0.33999510  0.80936358  1
  Zn  Zn117  1  0.31040972  0.81272383  0.31157734  1
  Zn  Zn118  1  0.31442660  0.81360178  0.81466201  1
  Zn  Zn119  1  0.81223386  0.30871894  0.31038109  1
  Zn  Zn120  1  0.81154722  0.31174770  0.81080236  1
  Zn  Zn121  1  0.80979424  0.80637384  0.30950601  1
  Zn  Zn122  1  0.80685426  0.81424900  0.80908378  1
  Zn  Zn123  1  0.18827050  0.43901509  0.43530567  1
  Zn  Zn124  1  0.19030843  0.43311374  0.93701016  1
  Zn  Zn125  1  0.18587433  0.93978444  0.43486610  1
  Zn  Zn126  1  0.19226002  0.93849730  0.93723401  1
  Zn  Zn127  1  0.68847264  0.43733330  0.43649168  1
  Zn  Zn128  1  0.69140220  0.44231028  0.93799864  1
  Zn  Zn129  1  0.68639273  0.93416755  0.44224186  1
  Zn  Zn130  1  0.68866739  0.94210940  0.94117010  1
  Zn  Zn131  1  0.31413595  0.05514715  0.06881426  1
  Zn  Zn132  1  0.31275983  0.06482314  0.56210109  1
  Zn  Zn133  1  0.31189271  0.55792630  0.05862036  1
  Zn  Zn134  1  0.31358513  0.56764304  0.56050070  1
  Zn  Zn135  1  0.81445608  0.05566331  0.06035670  1
  Zn  Zn136  1  0.81113436  0.05797859  0.56660397  1
  Zn  Zn137  1  0.81186104  0.55996779  0.05973852  1
  Zn  Zn138  1  0.81306321  0.56372747  0.55873247  1
  Zn  Zn139  1  0.44253163  0.44019589  0.19045589  1
  Zn  Zn140  1  0.43917952  0.44160510  0.68868216  1
  Zn  Zn141  1  0.43567836  0.93118079  0.18809128  1
  Zn  Zn142  1  0.44162954  0.93600545  0.68827074  1
  Zn  Zn143  1  0.93797518  0.43662943  0.18709884  1
  Zn  Zn144  1  0.93965626  0.44006493  0.68609421  1
  Zn  Zn145  1  0.93901276  0.93418747  0.18688836  1
  Zn  Zn146  1  0.93225340  0.93212421  0.68508658  1
  Zn  Zn147  1  0.06316713  0.05196140  0.31223362  1
  Zn  Zn148  1  0.06673909  0.06406957  0.81348416  1
  Zn  Zn149  1  0.05921674  0.55870921  0.30889967  1
  Zn  Zn150  1  0.06273774  0.56327188  0.80803175  1
  Zn  Zn151  1  0.56484959  0.06139158  0.31220459  1
  Zn  Zn152  1  0.55861227  0.06743008  0.82127406  1
  Zn  Zn153  1  0.55991138  0.56600641  0.31019357  1
  Zn  Zn154  1  0.55844672  0.56851108  0.80621237  1
  Zn  Zn155  1  0.43577890  0.18879383  0.43600394  1
  Zn  Zn156  1  0.44361948  0.19943844  0.94219366  1
  Zn  Zn157  1  0.43111901  0.68950330  0.43837424  1
  Zn  Zn158  1  0.44449835  0.69042031  0.94195452  1
  Zn  Zn159  1  0.93725046  0.18182688  0.43703176  1
  Zn  Zn160  1  0.93859200  0.18593808  0.93606115  1
  Zn  Zn161  1  0.93751133  0.68459851  0.43450044  1
  Zn  Zn162  1  0.94382279  0.68639851  0.93269166  1
  Zn  Zn163  1  0.06194084  0.30873176  0.06432695  1
  Zn  Zn164  1  0.06070043  0.31389530  0.56319572  1
  Zn  Zn165  1  0.06693338  0.81049199  0.06467392  1
  Zn  Zn166  1  0.06021998  0.81291991  0.56451554  1
  Zn  Zn167  1  0.56420471  0.31194068  0.06430115  1
  Zn  Zn168  1  0.55824740  0.30833488  0.56501129  1
  Zn  Zn169  1  0.56640499  0.80581196  0.05779134  1
  Zn  Zn170  1  0.56700482  0.81636551  0.56366303  1
  O  O171  1  0.11335228  0.12468923  0.11478100  1
  O  O172  1  0.11557367  0.11761951  0.61838055  1
  O  O173  1  0.11758273  0.61655273  0.11833996  1
  O  O174  1  0.11158290  0.61368110  0.62854726  1
  O  O175  1  0.63224784  0.11440867  0.11384481  1
  O  O176  1  0.60966600  0.13405409  0.61798947  1
  O  O177  1  0.63253213  0.62236236  0.11230340  1
  O  O178  1  0.61263022  0.61903673  0.62783359  1
  O  O179  1  0.38349267  0.38345251  0.38218864  1
  O  O180  1  0.38704818  0.38207889  0.88706587  1
  O  O181  1  0.37659343  0.87229715  0.38926673  1
  O  O182  1  0.37463075  0.88371442  0.88502044  1
  O  O183  1  0.87861811  0.37992095  0.37685921  1
  O  O184  1  0.87959890  0.37755424  0.88134643  1
  O  O185  1  0.87456655  0.88468072  0.36872095  1
  O  O186  1  0.87970533  0.88010459  0.87943835  1
  O  O187  1  0.24338559  0.00574318  0.35987843  1
  O  O188  1  0.25977249  0.00232585  0.86663696  1
  O  O189  1  0.25710690  0.50618584  0.36839553  1
  O  O190  1  0.26754889  0.49275454  0.87603246  1
  O  O191  1  0.75343174  0.00217798  0.36851876  1
  O  O192  1  0.75491418  0.00650814  0.86611448  1
  O  O193  1  0.75816215  0.50909259  0.38155564  1
  O  O194  1  0.75728002  0.50886726  0.86687707  1
  O  O195  1  0.24661692  0.49262090  0.13330572  1
  O  O196  1  0.23478052  0.50519463  0.61813193  1
  O  O197  1  0.24525575  0.99480382  0.13763668  1
  O  O198  1  0.24470555  0.99584444  0.63103281  1
  O  O199  1  0.75247123  0.48448684  0.12379909  1
  O  O200  1  0.74297429  0.49627387  0.62798169  1
  O  O201  1  0.74825932  0.99170329  0.13152583  1
  O  O202  1  0.74817788  0.99277557  0.63819394  1
  O  O203  1  0.00737287  0.36598022  0.25257900  1
  O  O204  1  0.00687374  0.36837456  0.75422284  1
  O  O205  1  0.01108537  0.87273644  0.25007619  1
  O  O206  1  0.00782924  0.87430059  0.75448480  1
  O  O207  1  0.50978217  0.36852001  0.25968484  1
  O  O208  1  0.50909971  0.37527148  0.75745635  1
  O  O209  1  0.50656873  0.87394188  0.25354757  1
  O  O210  1  0.49641520  0.86753713  0.75460633  1
  O  O211  1  0.50606006  0.14036917  0.25259367  1
  O  O212  1  0.50471661  0.12947627  0.73842501  1
  O  O213  1  0.49568583  0.62833813  0.23773309  1
  O  O214  1  0.49228472  0.63421928  0.73856001  1
  O  O215  1  0.99818158  0.12805475  0.24235867  1
  O  O216  1  0.99961220  0.13301473  0.74497821  1
  O  O217  1  0.98911180  0.62067795  0.24028219  1
  O  O218  1  0.99021370  0.62524655  0.74107919  1
  O  O219  1  0.37957132  0.26471089  0.01205317  1
  O  O220  1  0.37715442  0.26233773  0.50711797  1
  O  O221  1  0.36703026  0.76208338  -0.01035448  1
  O  O222  1  0.36663390  0.75887112  0.50912135  1
  O  O223  1  0.88333734  0.25783994  0.00868516  1
  O  O224  1  0.87017369  0.25312421  0.50516111  1
  O  O225  1  0.88226084  0.76118578  -0.00085139  1
  O  O226  1  0.86117048  0.75085658  0.49424788  1
  O  O227  1  0.12174731  0.23393767  0.50815305  1
  O  O228  1  0.12260891  0.23669738  0.99789947  1
  O  O229  1  0.13878178  0.75613826  0.50277288  1
  O  O230  1  0.12965417  0.74083774  0.99163791  1
  O  O231  1  0.62869750  0.24165251  0.49508658  1
  O  O232  1  0.62847104  0.23561012  1.00391697  1
  O  O233  1  0.63653159  0.75375550  0.48691186  1
  O  O234  1  0.62869175  0.73369195  0.98780630  1
  O  O235  1  0.49146930  0.25742420  0.13535222  1
  O  O236  1  0.48859025  0.24226737  0.63144606  1
  O  O237  1  0.51207672  0.72926379  0.12467921  1
  O  O238  1  0.49406389  0.74266575  0.62115164  1
  O  O239  1  0.99081116  0.24286224  0.13373277  1
  O  O240  1  0.99454247  0.24554753  0.63473395  1
  O  O241  1  0.99942810  0.73380468  0.12407703  1
  O  O242  1  1.00202069  0.73514100  0.62397041  1
  O  O243  1  -0.00713544  0.25245996  0.36162112  1
  O  O244  1  -0.00119772  0.25382534  0.86199590  1
  O  O245  1  -0.00038670  0.74915948  0.37230428  1
  O  O246  1  0.01348343  0.75691552  0.87190222  1
  O  O247  1  0.50805567  0.26014029  0.36966352  1
  O  O248  1  0.50719557  0.26594857  0.87226641  1
  O  O249  1  0.51281788  0.74901668  0.38134839  1
  O  O250  1  0.51714415  0.74871964  0.87450999  1
  O  O251  1  0.23211400  0.12144470  0.49919513  1
  O  O252  1  0.23491005  0.11992438  1.00747350  1
  O  O253  1  0.25022369  0.63940143  0.49306040  1
  O  O254  1  0.23798691  0.62824108  1.00222641  1
  O  O255  1  0.74191404  0.12796927  0.50023514  1
  O  O256  1  0.74729225  0.11719664  0.98844120  1
  O  O257  1  0.75385647  0.63697598  0.49138725  1
  O  O258  1  0.74643888  0.62223794  0.98776788  1
  O  O259  1  0.25796622  0.37755505  0.01430234  1
  O  O260  1  0.26298536  0.37653087  0.49769243  1
  O  O261  1  0.25639954  0.86634021  0.00164286  1
  O  O262  1  0.25404878  0.86973041  0.50203474  1
  O  O263  1  0.76319420  0.37571889  0.00516777  1
  O  O264  1  0.75489511  0.36703903  0.50517364  1
  O  O265  1  0.76392956  0.88404821  0.00681261  1
  O  O266  1  0.75173059  0.86798924  0.51093356  1
  O  O267  1  0.13389427  0.49027497  0.24373861  1
  O  O268  1  0.12356176  0.49297933  0.73995316  1
  O  O269  1  0.13054493  0.98926286  0.24549466  1
  O  O270  1  0.13585786  0.99751854  0.74642574  1
  O  O271  1  0.62493388  0.48755690  0.25100851  1
  O  O272  1  0.63073908  0.49209925  0.74328031  1
  O  O273  1  0.63319158  1.00108385  0.23650093  1
  O  O274  1  0.63025818  1.00280484  0.75573927  1
  O  O275  1  0.36013667  -0.00218536  0.24500069  1
  O  O276  1  0.36209330  -0.00072629  0.75393159  1
  O  O277  1  0.36387713  0.49980679  0.25770239  1
  O  O278  1  0.37256998  0.49458334  0.76679600  1
  O  O279  1  0.86900065  0.00399441  0.25530300  1
  O  O280  1  0.87536596  0.00211224  0.76265387  1
  O  O281  1  0.87898429  0.50334807  0.26157937  1
  O  O282  1  0.86989779  0.50651352  0.75506482  1
  O  O283  1  0.11823222  0.37960731  0.36199993  1
  O  O284  1  0.12042746  0.36895706  0.86802855  1
  O  O285  1  0.11966484  0.88117124  0.36033842  1
  O  O286  1  0.12222117  0.86960978  0.86905307  1
  O  O287  1  0.62088352  0.37053948  0.37018293  1
  O  O288  1  0.62355977  0.37827454  0.86952851  1
  O  O289  1  0.62347066  0.86444233  0.37503322  1
  O  O290  1  0.62724318  0.86158305  0.88670925  1
  O  O291  1  0.37247423  0.13615485  0.13011952  1
  O  O292  1  0.38815049  0.13434613  0.61916690  1
  O  O293  1  0.38548316  0.62126806  0.12174852  1
  O  O294  1  0.38543406  0.63331277  0.62234878  1
  O  O295  1  0.88305311  0.12886946  0.12654758  1
  O  O296  1  0.88095784  0.13089985  0.62726446  1
  O  O297  1  0.87963755  0.62273632  0.12976257  1
  O  O298  1  0.88310762  0.61616403  0.63502852  1
  O  O299  1  0.26179541  0.25973928  0.13413031  1
  O  O300  1  0.26520419  0.24518869  0.61755871  1
  O  O301  1  0.24498424  0.74920449  0.10819879  1
  O  O302  1  0.25445631  0.75540627  0.61288975  1
  O  O303  1  0.76378971  0.25616420  0.12917312  1
  O  O304  1  0.75371558  0.25494980  0.62162458  1
  O  O305  1  0.74883295  0.76634174  0.12917298  1
  O  O306  1  0.74953721  0.75162000  0.61045968  1
  O  O307  1  0.24553892  0.24741450  0.37944246  1
  O  O308  1  0.25905587  0.24471215  0.86185045  1
  O  O309  1  0.25060899  0.74276209  0.38732355  1
  O  O310  1  0.23778422  0.75405707  0.88333399  1
  O  O311  1  0.74578544  0.24170711  0.38150866  1
  O  O312  1  0.74936596  0.23421278  0.86891012  1
  O  O313  1  0.74316797  0.74383137  0.38300612  1
  O  O314  1  0.74212388  0.74110627  0.87310673  1
  O  O315  1  0.00324132  0.11748064  0.00575222  1
  O  O316  1  0.00629966  0.11694302  0.50647607  1
  O  O317  1  0.00821094  0.61727888  0.00501440  1
  O  O318  1  -0.01009039  0.61173570  0.50759246  1
  O  O319  1  0.51349417  0.12724067  -0.00020993  1
  O  O320  1  0.50611154  0.12190426  0.50811783  1
  O  O321  1  0.51282899  0.62392170  0.01031685  1
  O  O322  1  0.49722917  0.62715827  0.51291593  1
  O  O323  1  0.49641714  0.37223202  0.48746922  1
  O  O324  1  0.49686595  0.37679893  0.99518452  1
  O  O325  1  0.49254148  0.88596954  0.50330691  1
  O  O326  1  0.48833740  0.86882562  0.99530132  1
  O  O327  1  0.99305651  0.37861479  0.49211854  1
  O  O328  1  0.99318738  0.37845395  0.99600868  1
  O  O329  1  1.00134929  0.88861532  0.50247060  1
  O  O330  1  0.99679911  0.88206738  0.99516665  1
  O  O331  1  0.48959370  0.49391438  0.36813959  1
  O  O332  1  0.49346129  0.49104819  0.87084555  1
  O  O333  1  0.50657915  1.00083204  0.39050562  1
  O  O334  1  0.48098697  1.00270334  0.87075171  1
  O  O335  1  0.99190854  0.49390231  0.38115737  1
  O  O336  1  0.99575894  0.49290593  0.87823980  1
  O  O337  1  0.98874172  0.99757218  0.38394121  1
  O  O338  1  0.99437765  0.99504081  0.87946222  1
  O  O339  1  -0.00120032  0.00822854  0.11524803  1
  O  O340  1  0.00110317  0.00447984  0.62066223  1
  O  O341  1  0.00469304  0.50633232  0.11915689  1
  O  O342  1  0.00475547  0.50594235  0.61537324  1
  O  O343  1  0.51299012  -0.00031645  0.12810111  1
  O  O344  1  0.49451940  0.01536984  0.61731317  1
  O  O345  1  0.50648411  0.51649146  0.13033592  1
  O  O346  1  0.50642947  0.51441743  0.62809737  1
  O  O347  1  0.24493794  0.38067869  0.24484670  1
  O  O348  1  0.23494262  0.38317688  0.74670019  1
  O  O349  1  0.23960528  0.88293310  0.25128194  1
  O  O350  1  0.24488354  0.88295636  0.74476013  1
  O  O351  1  0.74182334  0.36844956  0.24176678  1
  O  O352  1  0.74523158  0.38274896  0.74385178  1
  O  O353  1  0.74859753  0.88556466  0.24292257  1
  O  O354  1  0.74698401  0.89254869  0.75047683  1
  O  O355  1  0.24582852  0.11005402  0.24962515  1
  O  O356  1  0.24924643  0.12214310  0.74888388  1
  O  O357  1  0.24975811  0.61635780  0.25515468  1
  O  O358  1  0.25950342  0.62092062  0.74676887  1
  O  O359  1  0.75430924  0.11428802  0.25302531  1
  O  O360  1  0.74834535  0.11179999  0.75704289  1
  O  O361  1  0.75978254  0.62677806  0.25694922  1
  O  O362  1  0.75636773  0.62059751  0.75470068  1
  O  O363  1  0.37443136  0.12882998  0.36728109  1
  O  O364  1  0.37469615  0.12640893  0.87595416  1
  O  O365  1  0.36568578  0.61714366  0.37474610  1
  O  O366  1  0.38383193  0.61020833  0.88120342  1
  O  O367  1  0.86767840  0.11636615  0.36831433  1
  O  O368  1  0.86625262  0.11689874  0.87486221  1
  O  O369  1  0.86518570  0.61617100  0.36661917  1
  O  O370  1  0.86923191  0.62058572  0.86980772  1
  O  O371  1  0.13276346  0.37732591  0.13142273  1
  O  O372  1  0.11570018  0.38613194  0.63286738  1
  O  O373  1  0.12641826  0.87703795  0.13496872  1
  O  O374  1  0.12995392  0.88183782  0.63146965  1
  O  O375  1  0.63449220  0.37600245  0.13269315  1
  O  O376  1  0.62668696  0.38129156  0.63099589  1
  O  O377  1  0.63134602  0.88656640  0.11877239  1
  O  O378  1  0.64617083  0.86404129  0.63106577  1
  O  O379  1  0.11546733  0.25729235  0.24121637  1
  O  O380  1  0.11822361  0.25735227  0.74863290  1
  O  O381  1  0.12512063  0.76390762  0.24499559  1
  O  O382  1  0.12500207  0.75544514  0.75514489  1
  O  O383  1  0.62151947  0.25752567  0.25537529  1
  O  O384  1  0.62752197  0.26677459  0.75175683  1
  O  O385  1  0.62455745  0.75254157  0.26716830  1
  O  O386  1  0.62873517  0.74349581  0.76931777  1
  O  O387  1  0.38740656  0.25476642  0.24122220  1
  O  O388  1  0.36973193  0.24609908  0.74987790  1
  O  O389  1  0.37941744  0.75081898  0.25242461  1
  O  O390  1  0.36942320  0.75359555  0.73293155  1
  O  O391  1  0.88214428  0.24117726  0.24217689  1
  O  O392  1  0.88256056  0.24865995  0.74300095  1
  O  O393  1  0.87781894  0.73815224  0.24400305  1
  O  O394  1  0.87655353  0.73712551  0.75712322  1
  O  O395  1  0.37288722  0.49524100  0.49046118  1
  O  O396  1  0.37495347  0.48895530  0.99140982  1
  O  O397  1  0.38230666  0.99233930  0.50482985  1
  O  O398  1  0.36901275  0.98556568  0.99425066  1
  O  O399  1  0.88149733  0.49219033  0.49014194  1
  O  O400  1  0.88169075  0.49123548  0.99262055  1
  O  O401  1  0.88146040  1.00656781  0.49036830  1
  O  O402  1  0.88621497  0.99375127  0.98834612  1
  O  O403  1  0.11492678  0.00787389  -0.00161784  1
  O  O404  1  0.11572383  0.00799429  0.50547231  1
  O  O405  1  0.12196379  0.50412621  0.00304367  1
  O  O406  1  0.11135173  0.49160353  0.50464414  1
  O  O407  1  0.62671343  0.01085551  0.01169365  1
  O  O408  1  0.62064291  0.01205423  0.50178809  1
  O  O409  1  0.63131352  0.51645113  0.00065205  1
  O  O410  1  0.62647411  0.49531926  0.51262128  1
  O  O411  1  0.37076797  0.37440025  0.12193856  1
  O  O412  1  0.38470370  0.36895404  0.61515356  1
  O  O413  1  0.37270427  0.87514570  0.10933028  1
  O  O414  1  0.36770416  0.87034147  0.61550200  1
  O  O415  1  0.87133929  0.36709827  0.11932320  1
  O  O416  1  0.86933527  0.37077442  0.61934474  1
  O  O417  1  0.86975924  0.87397546  0.11485501  1
  O  O418  1  0.85095374  0.86892142  0.63989905  1
  O  O419  1  0.11679772  0.12206730  0.38901289  1
  O  O420  1  0.12277697  0.12975404  0.88964555  1
  O  O421  1  0.13611908  0.61487783  0.37200144  1
  O  O422  1  0.11872238  0.63236562  0.88273505  1
  O  O423  1  0.63192372  0.12910293  0.38385364  1
  O  O424  1  0.63207242  0.12615564  0.89010687  1
  O  O425  1  0.63524976  0.63198574  0.37111256  1
  O  O426  1  0.63186798  0.62693367  0.88324039  1
