# generated using pymatgen
data_V85Zn86O256
_symmetry_space_group_name_H-M   'P 1'
_cell_length_a   16.94578975
_cell_length_b   16.95365627
_cell_length_c   16.94930868
_cell_angle_alpha   89.95600666
_cell_angle_beta   90.02336329
_cell_angle_gamma   89.94086740
_symmetry_Int_Tables_number   1
_chemical_formula_structural   V85Zn86O256
_chemical_formula_sum   'V85 Zn86 O256'
_cell_volume   4869.41490443
_cell_formula_units_Z   1
loop_
 _symmetry_equiv_pos_site_id
 _symmetry_equiv_pos_as_xyz
  1  'x, y, z'
loop_
 _atom_site_type_symbol
 _atom_site_label
 _atom_site_symmetry_multiplicity
 _atom_site_fract_x
 _atom_site_fract_y
 _atom_site_fract_z
 _atom_site_occupancy
  V  V0  1  0.25604393  0.50285106  0.75268017  1
  V  V1  1  0.50062355  0.87549782  0.37400005  1
  V  V2  1  0.76144292  0.63058670  0.36331488  1
  V  V3  1  0.12441264  0.74957069  0.87486305  1
  V  V4  1  0.50246493  0.00208923  0.51298660  1
  V  V5  1  -0.00006612  0.74997661  0.75127411  1
  V  V6  1  0.62815426  0.24693003  0.37550843  1
  V  V7  1  0.87428249  0.11402814  0.75410348  1
  V  V8  1  0.25313356  0.12845824  0.37411668  1
  V  V9  1  0.62357648  0.74583638  0.37489160  1
  V  V10  1  0.62268058  0.25513258  0.88124927  1
  V  V11  1  0.11897601  0.75269369  0.37343219  1
  V  V12  1  -0.00272196  0.12522245  0.62688200  1
  V  V13  1  -0.00718193  0.00458796  -0.00626354  1
  V  V14  1  0.61652813  0.37698330  0.75051458  1
  V  V15  1  0.49477836  0.62383169  0.62938129  1
  V  V16  1  0.62870354  0.12901868  0.00183920  1
  V  V17  1  0.50017376  0.00016573  0.00338673  1
  V  V18  1  0.50254933  0.12634912  0.12766773  1
  V  V19  1  0.12613305  0.86641740  0.23705731  1
  V  V20  1  0.14065859  0.24732019  0.87818788  1
  V  V21  1  0.62600986  0.11988785  0.51062714  1
  V  V22  1  0.74118032  0.37268399  0.13072155  1
  V  V23  1  0.36885668  0.49686655  0.37145882  1
  V  V24  1  0.50139589  0.37373039  0.37301087  1
  V  V25  1  0.12448963  -0.00019024  0.62653322  1
  V  V26  1  -0.00191714  0.49950170  0.50240242  1
  V  V27  1  0.75700001  0.10836782  0.36265215  1
  V  V28  1  0.76721522  0.25823208  -0.00465991  1
  V  V29  1  0.49930820  0.86953523  0.87862132  1
  V  V30  1  0.74345171  0.88550556  0.62596967  1
  V  V31  1  -0.00296123  0.49438505  0.00195050  1
  V  V32  1  0.13718685  0.37971670  0.25617815  1
  V  V33  1  0.88585835  0.25256233  0.14371582  1
  V  V34  1  0.25747339  0.01430250  0.75268253  1
  V  V35  1  0.87317560  0.75410333  0.62616122  1
  V  V36  1  0.50127087  0.23840254  0.74759774  1
  V  V37  1  0.87018533  0.62753932  0.75682935  1
  V  V38  1  -0.00532686  -0.00444982  0.49454246  1
  V  V39  1  0.39454464  0.37655187  -0.00214382  1
  V  V40  1  0.74951699  0.73563057  -0.00596361  1
  V  V41  1  0.12429722  0.62580300  0.50053400  1
  V  V42  1  0.07837740  0.20555896  0.32477800  1
  V  V43  1  0.00169381  0.37598920  0.36751517  1
  V  V44  1  0.38071490  0.23681824  0.62827953  1
  V  V45  1  0.75194028  0.87633615  0.12078248  1
  V  V46  1  0.37509252  0.12332706  0.24993992  1
  V  V47  1  0.12274503  0.62441816  0.00141024  1
  V  V48  1  -0.00240378  0.24995475  0.75447423  1
  V  V49  1  0.87528801  0.74312465  0.13458335  1
  V  V50  1  0.37208121  0.87678893  0.00576110  1
  V  V51  1  0.37590788  -0.00173876  0.37487245  1
  V  V52  1  0.25640952  0.62586377  0.87316552  1
  V  V53  1  0.63274588  0.00355137  0.13197912  1
  V  V54  1  0.75048850  0.11544497  0.87746873  1
  V  V55  1  0.24832168  0.24927166  0.50061781  1
  V  V56  1  0.13686898  0.12727944  -0.00310832  1
  V  V57  1  0.24811031  0.75550513  0.00436080  1
  V  V58  1  0.87135188  0.37523781  0.49793103  1
  V  V59  1  0.37082562  0.24769094  0.11948651  1
  V  V60  1  0.12524842  0.50051749  0.62839587  1
  V  V61  1  -0.00497275  0.62493998  0.13787688  1
  V  V62  1  0.37409642  0.75105268  0.12728544  1
  V  V63  1  0.13352507  -0.00365215  0.11898968  1
  V  V64  1  0.37343569  0.74590472  0.63503463  1
  V  V65  1  0.62422032  0.50171361  0.61697445  1
  V  V66  1  0.74906013  0.75102534  0.50287301  1
  V  V67  1  0.12479467  0.37458542  0.75432383  1
  V  V68  1  0.37478518  0.87297626  0.49962712  1
  V  V69  1  0.61994032  0.88393620  0.75044136  1
  V  V70  1  0.75141789  0.37542689  0.62276109  1
  V  V71  1  0.38709411  0.49855655  0.87906386  1
  V  V72  1  0.37551370  0.37396856  0.50219302  1
  V  V73  1  0.24582469  0.37251618  0.11172319  1
  V  V74  1  0.87553833  0.49459024  0.87687575  1
  V  V75  1  0.50463857  0.25117096  0.24774972  1
  V  V76  1  0.25210304  0.37435996  0.62803321  1
  V  V77  1  0.12900599  0.50040154  0.12936739  1
  V  V78  1  0.74798528  0.50456723  0.75350522  1
  V  V79  1  -0.00774003  0.87616178  0.87318269  1
  V  V80  1  0.25012815  0.87409576  0.62732057  1
  V  V81  1  0.12405986  0.12985875  0.50243123  1
  V  V82  1  0.37412476  0.62244952  0.25019619  1
  V  V83  1  0.24705885  0.62163621  0.37189676  1
  V  V84  1  0.63024027  0.87583817  0.25005647  1
  Zn  Zn85  1  0.75195860  0.24578770  0.49766177  1
  Zn  Zn86  1  -0.00124990  0.62600203  0.62660842  1
  Zn  Zn87  1  -0.00742438  0.86798463  0.36346056  1
  Zn  Zn88  1  0.24791768  -0.00364479  0.24855769  1
  Zn  Zn89  1  0.49874917  0.50492961  0.49462570  1
  Zn  Zn90  1  0.74969210  0.49967842  0.23927241  1
  Zn  Zn91  1  0.62306696  0.62885652  0.50128794  1
  Zn  Zn92  1  0.61133711  0.60909658  -0.00221772  1
  Zn  Zn93  1  0.86907596  0.88150342  0.48885647  1
  Zn  Zn94  1  0.63331124  0.74342125  0.87103066  1
  Zn  Zn95  1  0.50129438  0.74648676  0.24828739  1
  Zn  Zn96  1  -0.00260758  0.36908636  0.88328489  1
  Zn  Zn97  1  0.87361905  0.25096746  0.62771924  1
  Zn  Zn98  1  0.12604510  0.87601613  0.75189900  1
  Zn  Zn99  1  0.87179314  0.87426350  -0.00542904  1
  Zn  Zn100  1  0.87847846  0.50857964  0.36473130  1
  Zn  Zn101  1  0.74060540  0.00364415  0.74984696  1
  Zn  Zn102  1  0.36638547  0.01270985  0.87842547  1
  Zn  Zn103  1  0.50089497  0.74571060  0.75336350  1
  Zn  Zn104  1  0.49800228  0.61153913  0.11699436  1
  Zn  Zn105  1  -0.01417323  0.11734791  0.14516840  1
  Zn  Zn106  1  0.24946989  0.75011570  0.50019288  1
  Zn  Zn107  1  0.18926030  0.18073700  0.17778837  1
  Zn  Zn108  1  0.18683476  0.19028179  0.68744766  1
  Zn  Zn109  1  0.18931625  0.68595764  0.18791797  1
  Zn  Zn110  1  0.18791784  0.68645889  0.68896540  1
  Zn  Zn111  1  0.69238741  0.19524321  0.18724013  1
  Zn  Zn112  1  0.68775374  0.19000141  0.68958573  1
  Zn  Zn113  1  0.68231883  0.68599735  0.18058938  1
  Zn  Zn114  1  0.68340577  0.69079101  0.68982615  1
  Zn  Zn115  1  0.31113150  0.30995238  0.30908324  1
  Zn  Zn116  1  0.32029527  0.31379337  0.81375868  1
  Zn  Zn117  1  0.30525641  0.81066897  0.31179291  1
  Zn  Zn118  1  0.31365677  0.81888590  0.81561872  1
  Zn  Zn119  1  0.81366925  0.31293573  0.31292819  1
  Zn  Zn120  1  0.81076818  0.31277859  0.81086712  1
  Zn  Zn121  1  0.81287441  0.81821130  0.31104536  1
  Zn  Zn122  1  0.80901292  0.81700804  0.81138012  1
  Zn  Zn123  1  0.18655317  0.43741309  0.43912133  1
  Zn  Zn124  1  0.18554367  0.43818775  0.93672076  1
  Zn  Zn125  1  0.18375245  0.93826255  0.43557549  1
  Zn  Zn126  1  0.18537321  0.93688885  0.93216857  1
  Zn  Zn127  1  0.66732505  0.46231850  0.40214516  1
  Zn  Zn128  1  0.69097131  0.43601939  0.93406329  1
  Zn  Zn129  1  0.68775802  0.93874391  0.43747431  1
  Zn  Zn130  1  0.68030026  0.93447155  0.94001504  1
  Zn  Zn131  1  0.31216818  0.06218929  0.06207969  1
  Zn  Zn132  1  0.31241643  0.05932107  0.56141957  1
  Zn  Zn133  1  0.31349825  0.56197948  0.05997771  1
  Zn  Zn134  1  0.31214108  0.56259968  0.55998275  1
  Zn  Zn135  1  0.81467198  0.06560027  0.06920271  1
  Zn  Zn136  1  0.81132158  0.06696094  0.56084745  1
  Zn  Zn137  1  0.81067161  0.55727617  0.06362265  1
  Zn  Zn138  1  0.81291537  0.56562065  0.56318533  1
  Zn  Zn139  1  0.42334842  0.43202787  0.19220774  1
  Zn  Zn140  1  0.43777562  0.43843203  0.68792118  1
  Zn  Zn141  1  0.43946469  0.93573494  0.18816141  1
  Zn  Zn142  1  0.43552334  0.93525661  0.69079035  1
  Zn  Zn143  1  0.93024107  0.43470265  0.18765358  1
  Zn  Zn144  1  0.93726627  0.43717012  0.68976182  1
  Zn  Zn145  1  0.93977926  0.93073010  0.17589999  1
  Zn  Zn146  1  0.93668571  0.93593381  0.68566313  1
  Zn  Zn147  1  0.02279739  0.02675828  0.28469580  1
  Zn  Zn148  1  0.06702784  0.06333228  0.81427451  1
  Zn  Zn149  1  0.06254126  0.55933533  0.31318898  1
  Zn  Zn150  1  0.06144949  0.56401989  0.81443379  1
  Zn  Zn151  1  0.56601964  0.06295769  0.31674788  1
  Zn  Zn152  1  0.53586206  0.07287700  0.82718451  1
  Zn  Zn153  1  0.55454180  0.53452516  0.26039779  1
  Zn  Zn154  1  0.56594982  0.56862231  0.81485778  1
  Zn  Zn155  1  0.44038462  0.18564527  0.44107120  1
  Zn  Zn156  1  0.43962717  0.19123898  0.93717989  1
  Zn  Zn157  1  0.43726342  0.68755892  0.44123301  1
  Zn  Zn158  1  0.43890512  0.68473584  0.94111128  1
  Zn  Zn159  1  0.93112876  0.18517782  0.44093376  1
  Zn  Zn160  1  0.94046959  0.18063811  0.93389482  1
  Zn  Zn161  1  0.93770952  0.69207460  0.44199767  1
  Zn  Zn162  1  0.93377136  0.68479611  0.94189975  1
  Zn  Zn163  1  0.05933663  0.30888450  0.06606702  1
  Zn  Zn164  1  0.06093783  0.31347211  0.56437190  1
  Zn  Zn165  1  0.05650748  0.81230498  0.06168886  1
  Zn  Zn166  1  0.06282551  0.81239451  0.56295802  1
  Zn  Zn167  1  0.57366376  0.44550116  0.08001417  1
  Zn  Zn168  1  0.56337959  0.31107690  0.56050133  1
  Zn  Zn169  1  0.56330814  0.80521295  0.06434368  1
  Zn  Zn170  1  0.56095950  0.81435286  0.56509002  1
  O  O171  1  0.11657169  0.11565880  0.11386441  1
  O  O172  1  0.11881012  0.11779470  0.62274905  1
  O  O173  1  0.12007648  0.61730447  0.12192422  1
  O  O174  1  0.12441712  0.61812289  0.61829316  1
  O  O175  1  0.62550873  0.12020145  0.12331359  1
  O  O176  1  0.63439130  0.12686207  0.60925644  1
  O  O177  1  0.61274284  0.62988748  0.11762225  1
  O  O178  1  0.61894381  0.61685205  0.62274971  1
  O  O179  1  0.37543117  0.37868651  0.38217010  1
  O  O180  1  0.37474488  0.38042078  0.89097829  1
  O  O181  1  0.37737067  0.87831162  0.37945544  1
  O  O182  1  0.38127375  0.88167128  0.88779948  1
  O  O183  1  0.88451734  0.37511855  0.38328454  1
  O  O184  1  0.87985057  0.38998043  0.86390064  1
  O  O185  1  0.88131301  0.87319490  0.37648023  1
  O  O186  1  0.88781358  0.87418801  0.87336943  1
  O  O187  1  0.25552336  0.01215036  0.37687316  1
  O  O188  1  0.24926332  -0.00181524  0.85752368  1
  O  O189  1  0.25590552  0.50873456  0.38097283  1
  O  O190  1  0.25380869  0.50689138  0.86990451  1
  O  O191  1  0.74808736  0.00812138  0.37101360  1
  O  O192  1  0.74208888  0.01272393  0.87746006  1
  O  O193  1  0.76202277  0.52948462  0.39620168  1
  O  O194  1  0.75916789  0.49534254  0.85943477  1
  O  O195  1  0.23596361  0.49202576  0.11878966  1
  O  O196  1  0.24663167  0.49581528  0.63348229  1
  O  O197  1  0.23822231  1.00117292  0.12451814  1
  O  O198  1  0.24400940  0.99420438  0.63166278  1
  O  O199  1  0.75435197  0.47855663  0.12185640  1
  O  O200  1  0.74384586  0.49353649  0.62912296  1
  O  O201  1  0.74425132  0.99191151  0.12349209  1
  O  O202  1  0.75323347  0.98828161  0.62486086  1
  O  O203  1  0.01047669  0.37762744  0.26388133  1
  O  O204  1  0.00756560  0.36597369  0.75044950  1
  O  O205  1  0.01868584  0.87718449  0.24847616  1
  O  O206  1  0.00252026  0.86880490  0.75510428  1
  O  O207  1  0.48615431  0.36051045  0.26257290  1
  O  O208  1  0.51425362  0.37203690  0.74431098  1
  O  O209  1  0.51118936  0.87222606  0.25577805  1
  O  O210  1  0.50245609  0.87320698  0.76076216  1
  O  O211  1  0.49444250  0.12949620  0.24719137  1
  O  O212  1  0.51690860  0.14191595  0.73535470  1
  O  O213  1  0.48251056  0.62688203  0.25486902  1
  O  O214  1  0.50204196  0.62618731  0.73398804  1
  O  O215  1  1.02506178  0.14546567  0.26713339  1
  O  O216  1  0.99325936  0.12943799  0.74855754  1
  O  O217  1  1.00418785  0.62133216  0.23690567  1
  O  O218  1  0.99186818  0.63256232  0.74816603  1
  O  O219  1  0.38234325  0.26268292  0.00682337  1
  O  O220  1  0.37113998  0.25619556  0.50746828  1
  O  O221  1  0.36600179  0.75710243  0.00639340  1
  O  O222  1  0.37112506  0.75868785  0.50798545  1
  O  O223  1  0.86676286  0.25376108  -0.01365778  1
  O  O224  1  0.87310689  0.26086707  0.50660618  1
  O  O225  1  0.86358151  0.75157623  0.00654792  1
  O  O226  1  0.86848910  0.75564322  0.51126639  1
  O  O227  1  0.13495890  0.24304662  0.51019544  1
  O  O228  1  0.11745985  0.23588531  0.99329790  1
  O  O229  1  0.12636012  0.74278335  0.49447500  1
  O  O230  1  0.13113126  0.74571546  0.99624116  1
  O  O231  1  0.62362619  0.23702081  0.49319001  1
  O  O232  1  0.63536791  0.24512045  0.98680885  1
  O  O233  1  0.63229860  0.75462672  0.49316329  1
  O  O234  1  0.64404494  0.75488656  1.00073309  1
  O  O235  1  0.48663426  0.24271717  0.13659276  1
  O  O236  1  0.49319733  0.25861370  0.63634301  1
  O  O237  1  0.48309528  0.74953720  0.12732083  1
  O  O238  1  0.48951027  0.74326643  0.62530557  1
  O  O239  1  0.99012499  0.24439997  0.12872064  1
  O  O240  1  1.00169484  0.24327133  0.63841543  1
  O  O241  1  0.98481277  0.74017462  0.11773315  1
  O  O242  1  0.99074889  0.75137871  0.63234406  1
  O  O243  1  0.00815711  0.25703132  0.38357347  1
  O  O244  1  0.00726024  0.24935168  0.86483376  1
  O  O245  1  0.01492077  0.74784227  0.37885139  1
  O  O246  1  0.00344353  0.75457827  0.87110337  1
  O  O247  1  0.50559469  0.25166190  0.36914437  1
  O  O248  1  0.51204128  0.25179033  0.85937093  1
  O  O249  1  0.50821934  0.75645549  0.37561473  1
  O  O250  1  0.49338162  0.76117834  0.87483460  1
  O  O251  1  0.24402092  0.12774054  0.49356888  1
  O  O252  1  0.23632876  0.12681853  1.00308450  1
  O  O253  1  0.24149747  0.62485641  0.49042785  1
  O  O254  1  0.24364356  0.63434662  0.99339619  1
  O  O255  1  0.73888986  0.12445887  0.49121998  1
  O  O256  1  0.74714682  0.13439032  0.99398487  1
  O  O257  1  0.74907950  0.64303863  0.50336855  1
  O  O258  1  0.75073324  0.63535781  1.00245565  1
  O  O259  1  0.24737683  0.37212271  0.01022305  1
  O  O260  1  0.25852579  0.37014111  0.50513886  1
  O  O261  1  0.25597200  0.86348437  -0.00768443  1
  O  O262  1  0.25414395  0.87793248  0.51195224  1
  O  O263  1  0.75246751  0.35998710  0.00350125  1
  O  O264  1  0.76453049  0.37969366  0.50466029  1
  O  O265  1  0.75151569  0.87362404  0.01108252  1
  O  O266  1  0.74908710  0.86838550  0.50823106  1
  O  O267  1  0.12375815  0.49130173  0.24138361  1
  O  O268  1  0.13279541  0.49470553  0.74855475  1
  O  O269  1  0.12449105  0.98937114  0.23491224  1
  O  O270  1  0.13295575  1.00007519  0.73932230  1
  O  O271  1  0.64885917  0.49186970  0.29225097  1
  O  O272  1  0.63178055  0.49535324  0.73973786  1
  O  O273  1  0.61896108  0.99283569  0.23867783  1
  O  O274  1  0.61908378  0.98657094  0.75842261  1
  O  O275  1  0.37291719  0.00437544  0.25656861  1
  O  O276  1  0.35988392  -0.00203745  0.74891928  1
  O  O277  1  0.36770407  0.50598021  0.26374374  1
  O  O278  1  0.36096441  0.49005909  0.75895366  1
  O  O279  1  0.93484110  0.03388099  0.21472333  1
  O  O280  1  0.87244839  0.01160593  0.74633493  1
  O  O281  1  0.86403117  0.49421110  0.25419949  1
  O  O282  1  0.86846791  0.50906205  0.75175708  1
  O  O283  1  0.12057236  0.37731672  0.36690252  1
  O  O284  1  0.12191024  0.36652673  0.87032402  1
  O  O285  1  0.12096326  0.86653826  0.36843446  1
  O  O286  1  0.11547763  0.86519654  0.87217060  1
  O  O287  1  0.60667652  0.36208263  0.38915416  1
  O  O288  1  0.63542456  0.36493764  0.86113709  1
  O  O289  1  0.62394359  0.86802703  0.36726014  1
  O  O290  1  0.61803023  0.86561669  0.86988093  1
  O  O291  1  0.37885285  0.13120940  0.12784312  1
  O  O292  1  0.37333719  0.13806520  0.61801767  1
  O  O293  1  0.37174799  0.62935224  0.13545166  1
  O  O294  1  0.37974137  0.63403012  0.61972314  1
  O  O295  1  0.87610736  0.15038354  0.10987443  1
  O  O296  1  0.87967375  0.12942006  0.63294729  1
  O  O297  1  0.88036110  0.63423218  0.12162465  1
  O  O298  1  0.87539609  0.63807392  0.63443389  1
  O  O299  1  0.26301326  0.25534797  0.12789490  1
  O  O300  1  0.25947073  0.25686582  0.62324247  1
  O  O301  1  0.26001790  0.74457457  0.11491230  1
  O  O302  1  0.25473139  0.75715988  0.62386431  1
  O  O303  1  0.76042152  0.25420953  0.11130704  1
  O  O304  1  0.74830769  0.26527594  0.62150042  1
  O  O305  1  0.75905066  0.75501451  0.11680005  1
  O  O306  1  0.75479928  0.75908742  0.62068242  1
  O  O307  1  0.25944761  0.23645920  0.38299661  1
  O  O308  1  0.23985008  0.25193072  0.86787845  1
  O  O309  1  0.23841753  0.74099907  0.37934347  1
  O  O310  1  0.24653174  0.74380888  0.87994337  1
  O  O311  1  0.73511617  0.25479554  0.37741293  1
  O  O312  1  0.74532357  0.24466895  0.88156269  1
  O  O313  1  0.74630331  0.74638884  0.38328261  1
  O  O314  1  0.75497596  0.75446226  0.89096689  1
  O  O315  1  0.00709844  0.11030623  -0.00275897  1
  O  O316  1  0.00460868  0.11798469  0.50645898  1
  O  O317  1  0.00652958  0.61542345  0.00671833  1
  O  O318  1  0.00550512  0.61654190  0.50324338  1
  O  O319  1  0.51125955  0.12273117  0.01200797  1
  O  O320  1  0.51394285  0.11574198  0.49646991  1
  O  O321  1  0.49181117  0.61275943  0.00340450  1
  O  O322  1  0.50261608  0.62318192  0.51102283  1
  O  O323  1  0.48650197  0.37365743  0.49408061  1
  O  O324  1  0.49089009  0.38080834  1.00993387  1
  O  O325  1  0.49529052  0.88163843  0.49330819  1
  O  O326  1  0.49163904  0.87620533  0.99923559  1
  O  O327  1  0.99381615  0.38149959  0.49472129  1
  O  O328  1  1.00732224  0.39003026  1.00116010  1
  O  O329  1  0.99981476  0.88983589  0.50499754  1
  O  O330  1  0.99794064  0.88118132  0.98819947  1
  O  O331  1  0.48809882  0.48682856  0.37363918  1
  O  O332  1  0.48405612  0.50095158  0.86007515  1
  O  O333  1  0.49353698  0.99352252  0.38075035  1
  O  O334  1  0.51441537  0.97966874  0.89289215  1
  O  O335  1  0.99827541  0.49283977  0.38472954  1
  O  O336  1  0.99395076  0.49876434  0.88333327  1
  O  O337  1  1.01101873  0.99808498  0.39401758  1
  O  O338  1  1.00906944  0.99072307  0.88499764  1
  O  O339  1  0.01965691  -0.01452460  0.09730252  1
  O  O340  1  0.00844632  0.00474578  0.62089523  1
  O  O341  1  0.00633963  0.50435867  0.11960400  1
  O  O342  1  0.00709670  0.50053724  0.61983744  1
  O  O343  1  0.50738864  0.00619043  0.12154024  1
  O  O344  1  0.49347906  -0.00597997  0.61177793  1
  O  O345  1  0.50795140  0.49742076  0.15729065  1
  O  O346  1  0.50658142  0.50547900  0.62176895  1
  O  O347  1  0.24193709  0.37286178  0.23980637  1
  O  O348  1  0.24437947  0.38090630  0.74725812  1
  O  O349  1  0.23170998  0.87981473  0.25647094  1
  O  O350  1  0.24804095  0.88085147  0.73824565  1
  O  O351  1  0.74937086  0.36439089  0.23318246  1
  O  O352  1  0.74405040  0.38305660  0.73906535  1
  O  O353  1  0.73764157  0.87010656  0.23727102  1
  O  O354  1  0.74051562  0.88066084  0.74387076  1
  O  O355  1  0.25506941  0.12184138  0.25764060  1
  O  O356  1  0.24971243  0.11280155  0.74434041  1
  O  O357  1  0.25815036  0.62863846  0.26370720  1
  O  O358  1  0.24492202  0.61481116  0.76018141  1
  O  O359  1  0.74350962  0.12834414  0.26436145  1
  O  O360  1  0.75582966  0.12415656  0.75789866  1
  O  O361  1  0.74799802  0.63008424  0.26254208  1
  O  O362  1  0.75757054  0.61605203  0.74215843  1
  O  O363  1  0.37052816  0.11827909  0.37223204  1
  O  O364  1  0.42661077  0.10636244  0.86841877  1
  O  O365  1  0.36700385  0.61753105  0.37338064  1
  O  O366  1  0.36124834  0.61648349  0.87998303  1
  O  O367  1  0.85492177  0.12956278  0.38050091  1
  O  O368  1  0.86370087  0.12725166  0.86595723  1
  O  O369  1  0.86491824  0.63483767  0.37521212  1
  O  O370  1  0.87956993  0.61598201  0.86193449  1
  O  O371  1  0.12969463  0.37880632  0.13301905  1
  O  O372  1  0.13201232  0.38100008  0.63252111  1
  O  O373  1  0.12814240  0.87395628  0.13058888  1
  O  O374  1  0.13277412  0.88281973  0.62630497  1
  O  O375  1  0.64249791  0.36089737  0.12234335  1
  O  O376  1  0.63158813  0.38379211  0.62679701  1
  O  O377  1  0.63123815  0.88118434  0.13090851  1
  O  O378  1  0.63228404  0.87249719  0.63495872  1
  O  O379  1  0.13497484  0.25698671  0.25490595  1
  O  O380  1  0.11875865  0.25357413  0.75780861  1
  O  O381  1  0.12978641  0.75908250  0.25521501  1
  O  O382  1  0.11758996  0.74986390  0.75658891  1
  O  O383  1  0.61163197  0.24495515  0.25857848  1
  O  O384  1  0.61984816  0.25897905  0.75367329  1
  O  O385  1  0.62295033  0.75832932  0.25771579  1
  O  O386  1  0.62054441  0.76237099  0.75251775  1
  O  O387  1  0.38015898  0.24106749  0.24337295  1
  O  O388  1  0.39229411  0.25460116  0.74449353  1
  O  O389  1  0.37208555  0.74336302  0.24320826  1
  O  O390  1  0.37455644  0.75535988  0.73796859  1
  O  O391  1  0.87802607  0.24774406  0.24292819  1
  O  O392  1  0.88341227  0.24337185  0.74929672  1
  O  O393  1  0.86970874  0.75133488  0.23276426  1
  O  O394  1  0.87729707  0.74476594  0.74649494  1
  O  O395  1  0.37498592  0.49086534  0.49057483  1
  O  O396  1  0.36837501  0.48482289  0.99335729  1
  O  O397  1  0.38132339  0.99351654  0.49337320  1
  O  O398  1  0.38034032  0.99288829  1.00080698  1
  O  O399  1  0.88787294  0.49616639  0.50325828  1
  O  O400  1  0.88317450  0.50624911  0.98796055  1
  O  O401  1  0.89135403  1.00032170  0.50865486  1
  O  O402  1  0.89035840  0.99866364  1.00407975  1
  O  O403  1  0.12544093  0.01034964  -0.00144902  1
  O  O404  1  0.11978641  0.00682676  0.51193357  1
  O  O405  1  0.11854437  0.50624585  0.00687017  1
  O  O406  1  0.11496523  0.50326133  0.50623873  1
  O  O407  1  0.62114593  0.00619776  0.01463719  1
  O  O408  1  0.61706862  0.01090136  0.49668180  1
  O  O409  1  0.62978985  0.49574914  0.00000653  1
  O  O410  1  0.62255044  0.50109765  0.50753139  1
  O  O411  1  0.36562760  0.36907769  0.11466022  1
  O  O412  1  0.37010362  0.37125918  0.61733693  1
  O  O413  1  0.37517065  0.86888177  0.11431575  1
  O  O414  1  0.36747424  0.86778762  0.61990128  1
  O  O415  1  0.87044189  0.35714346  0.12338632  1
  O  O416  1  0.86770070  0.37574660  0.61947256  1
  O  O417  1  0.86837046  0.86296614  0.12036956  1
  O  O418  1  0.86487912  0.86474044  0.62783434  1
  O  O419  1  0.13415056  0.13506411  0.38109220  1
  O  O420  1  0.12442170  0.13214708  0.88737587  1
  O  O421  1  0.13040330  0.62832877  0.37909411  1
  O  O422  1  0.13305729  0.63065489  0.88143688  1
  O  O423  1  0.63289052  0.13146911  0.38283263  1
  O  O424  1  0.63072238  0.13462624  0.88059519  1
  O  O425  1  0.63789449  0.64207392  0.38108143  1
  O  O426  1  0.62245230  0.63229041  0.88285058  1
