# generated using pymatgen
data_V85Zn86O256
_symmetry_space_group_name_H-M   'P 1'
_cell_length_a   16.94967399
_cell_length_b   16.95279095
_cell_length_c   16.93165737
_cell_angle_alpha   90.03152482
_cell_angle_beta   90.02337202
_cell_angle_gamma   89.97747946
_symmetry_Int_Tables_number   1
_chemical_formula_structural   V85Zn86O256
_chemical_formula_sum   'V85 Zn86 O256'
_cell_volume   4865.21337439
_cell_formula_units_Z   1
loop_
 _symmetry_equiv_pos_site_id
 _symmetry_equiv_pos_as_xyz
  1  'x, y, z'
loop_
 _atom_site_type_symbol
 _atom_site_label
 _atom_site_symmetry_multiplicity
 _atom_site_fract_x
 _atom_site_fract_y
 _atom_site_fract_z
 _atom_site_occupancy
  V  V0  1  -0.00346558  0.13698724  0.62148226  1
  V  V1  1  0.37223270  0.50268534  0.38225749  1
  V  V2  1  0.61984331  0.12531303  0.50890570  1
  V  V3  1  0.49242698  0.25345856  0.24900018  1
  V  V4  1  0.87792913  0.49824413  0.37767989  1
  V  V5  1  0.50103056  0.62547523  0.62879129  1
  V  V6  1  0.87206224  0.62029219  0.76318299  1
  V  V7  1  0.49572521  0.37755994  0.37990584  1
  V  V8  1  0.49624220  0.13280999  0.12172165  1
  V  V9  1  0.62013809  0.12301319  0.00107240  1
  V  V10  1  0.37219508  0.75326350  0.11959274  1
  V  V11  1  0.62768633  0.87407587  0.25086835  1
  V  V12  1  0.86595441  0.75009241  0.62998948  1
  V  V13  1  0.49721682  0.38164327  0.86569234  1
  V  V14  1  0.87774467  0.63612111  0.25196198  1
  V  V15  1  0.74537480  0.12272612  0.37479250  1
  V  V16  1  0.50028058  0.62532622  0.11969141  1
  V  V17  1  0.38346348  -0.01783572  0.88729824  1
  V  V18  1  0.84028920  0.71015188  0.07351103  1
  V  V19  1  0.38378550  0.76353881  0.61685503  1
  V  V20  1  0.87180271  0.87818094  0.50555712  1
  V  V21  1  0.75139282  0.50007680  0.76443270  1
  V  V22  1  0.37287723  -0.00165286  0.37675793  1
  V  V23  1  0.21839918  0.84281446  0.60483621  1
  V  V24  1  0.49987166  0.50025163  0.50164585  1
  V  V25  1  0.49910322  0.75074173  0.25052749  1
  V  V26  1  0.37730207  0.62395194  0.75336824  1
  V  V27  1  0.12581448  0.01222475  0.62664754  1
  V  V28  1  0.50023569  0.75717279  0.76680944  1
  V  V29  1  0.12234926  0.88451630  0.75082208  1
  V  V30  1  0.25497789  0.36607787  0.12671407  1
  V  V31  1  0.25146468  0.25521561  0.49180557  1
  V  V32  1  0.62039039  0.25108597  0.86741943  1
  V  V33  1  0.12406363  0.13496298  0.48738469  1
  V  V34  1  0.12620136  0.75242200  0.87327279  1
  V  V35  1  0.24500218  -0.00562269  0.25139382  1
  V  V36  1  0.24218689  0.87204868  0.12873418  1
  V  V37  1  0.38251245  0.24832444  0.61937905  1
  V  V38  1  0.64113466  0.74864911  0.88465871  1
  V  V39  1  0.00196167  0.49338779  -0.01596723  1
  V  V40  1  0.37985074  0.37578608  0.00382256  1
  V  V41  1  0.74698431  -0.00049882  0.24611554  1
  V  V42  1  0.49450155  0.87540391  0.37944502  1
  V  V43  1  0.12410365  0.50404253  0.62023222  1
  V  V44  1  0.74756790  0.75642021  0.50421326  1
  V  V45  1  0.59115701  -0.02578863  0.10293084  1
  V  V46  1  -0.00048843  0.00212428  0.49541552  1
  V  V47  1  0.00408357  0.24663515  0.25667963  1
  V  V48  1  -0.00048240  0.11848385  0.12061936  1
  V  V49  1  0.12626350  0.62047508  -0.00300808  1
  V  V50  1  0.75188590  0.37075884  0.12490766  1
  V  V51  1  0.74906865  0.37801774  0.62974765  1
  V  V52  1  0.62259917  0.37508102  0.24909610  1
  V  V53  1  0.62613692  0.62635141  0.50163616  1
  V  V54  1  0.11759695  0.49169846  0.12320591  1
  V  V55  1  0.88300556  0.37054446  -0.01511149  1
  V  V56  1  0.88173509  0.88510676  0.00223304  1
  V  V57  1  0.38691091  0.12400722  0.74575395  1
  V  V58  1  0.62720113  0.49827469  0.63295279  1
  V  V59  1  0.01017883  0.85952077  0.36972867  1
  V  V60  1  0.74942765  0.25338632  0.49918443  1
  V  V61  1  0.49662582  0.00242526  0.50699057  1
  V  V62  1  0.75236245  0.50032134  0.25255436  1
  V  V63  1  0.25410900  0.00252474  0.74383134  1
  V  V64  1  0.25662573  0.12733133  0.87690437  1
  V  V65  1  0.25347958  0.62056691  0.87363826  1
  V  V66  1  0.62476510  0.74999575  0.37631190  1
  V  V67  1  0.63321774  0.87403735  0.74938072  1
  V  V68  1  0.12566809  0.37079325  0.25959762  1
  V  V69  1  0.36905004  0.62692921  0.24953833  1
  V  V70  1  -0.00022173  0.75089377  0.75055948  1
  V  V71  1  0.25715509  0.37478934  0.62148562  1
  V  V72  1  0.12164196  -0.00355687  0.11890769  1
  V  V73  1  0.25417883  0.49652282  0.75129944  1
  V  V74  1  0.00432691  0.89199054  0.87991590  1
  V  V75  1  0.87173386  0.12478584  0.74976674  1
  V  V76  1  0.62420025  0.50122566  0.12192217  1
  V  V77  1  0.87753807  0.24906703  0.12716985  1
  V  V78  1  0.74843400  0.24733486  -0.00134492  1
  V  V79  1  0.75764081  0.87832544  0.11728167  1
  V  V80  1  0.24724652  0.50293654  0.24845559  1
  V  V81  1  0.37261546  0.12565737  0.24487621  1
  V  V82  1  0.00953674  0.64793679  0.13340829  1
  V  V83  1  0.23706794  0.63875173  0.38818989  1
  V  V84  1  0.25101870  0.75778944  -0.00539947  1
  Zn  Zn85  1  0.00037239  0.62527142  0.62157795  1
  Zn  Zn86  1  0.12508513  0.12541078  -0.00105955  1
  Zn  Zn87  1  0.62716762  -0.00534602  0.62509980  1
  Zn  Zn88  1  0.87090102  0.00280667  0.87500527  1
  Zn  Zn89  1  0.50439753  0.25019444  0.74247340  1
  Zn  Zn90  1  0.49789458  0.50443111  -0.00719145  1
  Zn  Zn91  1  0.24656324  0.12971996  0.37018001  1
  Zn  Zn92  1  0.74546984  0.11927168  0.87259207  1
  Zn  Zn93  1  0.65735566  0.62824548  -0.00031283  1
  Zn  Zn94  1  0.11747766  0.37230268  0.75353661  1
  Zn  Zn95  1  0.00910401  0.50368278  0.49438174  1
  Zn  Zn96  1  0.87438896  0.25630458  0.62708910  1
  Zn  Zn97  1  0.12208264  0.25997057  0.87990690  1
  Zn  Zn98  1  0.00213106  0.37077036  0.38017927  1
  Zn  Zn99  1  -0.00266873  0.25734650  0.76698966  1
  Zn  Zn100  1  0.75375924  -0.00474226  0.74398924  1
  Zn  Zn101  1  0.62167357  0.24918192  0.37353508  1
  Zn  Zn102  1  0.87352231  0.12240625  0.25051537  1
  Zn  Zn103  1  0.87308184  -0.00335349  0.37386388  1
  Zn  Zn104  1  0.87876793  0.37681926  0.49984680  1
  Zn  Zn105  1  0.25555176  0.24709194  0.00473440  1
  Zn  Zn106  1  0.75145445  0.62742385  0.37637859  1
  Zn  Zn107  1  0.18471025  0.18522609  0.18757534  1
  Zn  Zn108  1  0.19091172  0.19302108  0.68912920  1
  Zn  Zn109  1  0.18110829  0.68625309  0.18363607  1
  Zn  Zn110  1  0.18686920  0.69042614  0.67854803  1
  Zn  Zn111  1  0.68154795  0.18565990  0.18605269  1
  Zn  Zn112  1  0.68887397  0.18620473  0.68528197  1
  Zn  Zn113  1  0.68919749  0.68668834  0.18816688  1
  Zn  Zn114  1  0.68874317  0.68599986  0.69319627  1
  Zn  Zn115  1  0.31455208  0.31541108  0.31244541  1
  Zn  Zn116  1  0.31784128  0.31236437  0.81153625  1
  Zn  Zn117  1  0.30978442  0.81348607  0.31370064  1
  Zn  Zn118  1  0.30799495  0.81417220  0.79966323  1
  Zn  Zn119  1  0.81284669  0.31132572  0.31360895  1
  Zn  Zn120  1  0.80766704  0.30687531  0.80828427  1
  Zn  Zn121  1  0.81532463  0.81628927  0.31824911  1
  Zn  Zn122  1  0.81663767  0.81439666  0.81987693  1
  Zn  Zn123  1  0.19346887  0.44048229  0.43866172  1
  Zn  Zn124  1  0.19249971  0.43426875  0.93724997  1
  Zn  Zn125  1  0.18526970  0.93863835  0.43935369  1
  Zn  Zn126  1  0.19460391  0.94285527  0.93563651  1
  Zn  Zn127  1  0.68509803  0.43758390  0.43821582  1
  Zn  Zn128  1  0.68388772  0.43068815  0.94020592  1
  Zn  Zn129  1  0.68449935  0.93821099  0.43941777  1
  Zn  Zn130  1  0.68728872  0.93467042  0.93028124  1
  Zn  Zn131  1  0.31617916  0.05674771  0.06208363  1
  Zn  Zn132  1  0.31236158  0.06851818  0.55943718  1
  Zn  Zn133  1  0.31162207  0.55689228  0.06008681  1
  Zn  Zn134  1  0.31247936  0.56833161  0.56511240  1
  Zn  Zn135  1  0.80988053  0.06200142  0.06200374  1
  Zn  Zn136  1  0.80754495  0.06113472  0.56751359  1
  Zn  Zn137  1  0.82312074  0.54148741  0.06592208  1
  Zn  Zn138  1  0.81427148  0.56735912  0.56562232  1
  Zn  Zn139  1  0.43542974  0.44068500  0.18726644  1
  Zn  Zn140  1  0.43449472  0.43717611  0.68662331  1
  Zn  Zn141  1  0.43658177  0.93378170  0.17785065  1
  Zn  Zn142  1  0.44383948  0.93752898  0.69442714  1
  Zn  Zn143  1  0.93992240  0.43669165  0.18794272  1
  Zn  Zn144  1  0.93610930  0.43553414  0.69136336  1
  Zn  Zn145  1  0.93695880  0.93531743  0.19230907  1
  Zn  Zn146  1  0.93866309  0.94224820  0.68452254  1
  Zn  Zn147  1  0.06148111  0.05774580  0.30845551  1
  Zn  Zn148  1  0.05618345  0.09172812  0.82073301  1
  Zn  Zn149  1  0.06176329  0.56371676  0.31229099  1
  Zn  Zn150  1  0.06707957  0.56236683  0.80442202  1
  Zn  Zn151  1  0.56209451  0.06097404  0.30939073  1
  Zn  Zn152  1  0.55967521  0.05694837  0.81845560  1
  Zn  Zn153  1  0.56191245  0.56455193  0.31065291  1
  Zn  Zn154  1  0.56929884  0.56778948  0.81704919  1
  Zn  Zn155  1  0.43457381  0.18556538  0.43425071  1
  Zn  Zn156  1  0.43473825  0.18961304  0.93595520  1
  Zn  Zn157  1  0.43505180  0.68504580  0.43785563  1
  Zn  Zn158  1  0.43559229  0.68776423  0.93818059  1
  Zn  Zn159  1  0.92991333  0.18614747  0.43612004  1
  Zn  Zn160  1  0.93580837  0.18272606  0.93926384  1
  Zn  Zn161  1  0.93956988  0.68322601  0.44118186  1
  Zn  Zn162  1  0.94594435  0.69066437  0.93686220  1
  Zn  Zn163  1  0.06591875  0.30695043  0.06009659  1
  Zn  Zn164  1  0.06734086  0.32166334  0.56342545  1
  Zn  Zn165  1  0.05628565  0.80517209  0.07231608  1
  Zn  Zn166  1  0.05133546  0.81495640  0.56385638  1
  Zn  Zn167  1  0.56005623  0.31134602  0.05936863  1
  Zn  Zn168  1  0.56605886  0.31547561  0.56106912  1
  Zn  Zn169  1  0.56332948  0.80768809  0.06070302  1
  Zn  Zn170  1  0.55834805  0.81495541  0.56511758  1
  O  O171  1  0.11771143  0.11528661  0.12421535  1
  O  O172  1  0.11704886  0.12314340  0.61700242  1
  O  O173  1  0.12580522  0.60452569  0.11475167  1
  O  O174  1  0.12546762  0.60723719  0.63194195  1
  O  O175  1  0.61553638  0.12139689  0.11274540  1
  O  O176  1  0.62199805  0.12609643  0.61170303  1
  O  O177  1  0.61860172  0.62108076  0.12143721  1
  O  O178  1  0.61993928  0.62041571  0.62160057  1
  O  O179  1  0.38376587  0.39137502  0.36754437  1
  O  O180  1  0.39020423  0.37437590  0.88344135  1
  O  O181  1  0.38334681  0.88409286  0.36905613  1
  O  O182  1  0.36787912  0.88399122  0.86608314  1
  O  O183  1  0.87581899  0.38396996  0.37543465  1
  O  O184  1  0.87561603  0.35858973  0.88670521  1
  O  O185  1  0.88210846  0.87658457  0.39120495  1
  O  O186  1  0.88746426  0.88095125  0.88143294  1
  O  O187  1  0.25623425  -0.00007915  0.36890833  1
  O  O188  1  0.26201821  0.00350578  0.86074599  1
  O  O189  1  0.25806703  0.50874825  0.36792943  1
  O  O190  1  0.24938116  0.51427646  0.86799829  1
  O  O191  1  0.74645591  0.00551980  0.36644571  1
  O  O192  1  0.75103983  0.00117710  0.86453849  1
  O  O193  1  0.75143690  0.50074750  0.36292063  1
  O  O194  1  0.74124809  0.49324173  0.86373148  1
  O  O195  1  0.24216655  0.49059080  0.13107805  1
  O  O196  1  0.24841971  0.49501225  0.63049965  1
  O  O197  1  0.24766350  0.98900906  0.13159282  1
  O  O198  1  0.24126975  1.01271907  0.63418138  1
  O  O199  1  0.74487514  0.49192589  0.13618263  1
  O  O200  1  0.74342184  0.49633785  0.63077399  1
  O  O201  1  0.74564849  0.99222151  0.13200783  1
  O  O202  1  0.74046368  0.99953380  0.62985168  1
  O  O203  1  0.01024522  0.36565359  0.24935926  1
  O  O204  1  0.00149034  0.36805426  0.74717122  1
  O  O205  1  -0.00579620  0.87772861  0.27132864  1
  O  O206  1  0.00429881  0.87176815  0.75719234  1
  O  O207  1  0.50161356  0.37135897  0.25562197  1
  O  O208  1  0.49597530  0.37366723  0.76249362  1
  O  O209  1  0.50465736  0.86815632  0.25709293  1
  O  O210  1  0.50890133  0.86000638  0.75291387  1
  O  O211  1  0.49318972  0.13791189  0.24987675  1
  O  O212  1  0.48998373  0.12487583  0.75228216  1
  O  O213  1  0.49190174  0.63038450  0.24007870  1
  O  O214  1  0.49549450  0.63352712  0.74978236  1
  O  O215  1  0.99729080  0.13057650  0.24255279  1
  O  O216  1  0.98940326  0.12251064  0.73221799  1
  O  O217  1  0.99065196  0.61775656  0.23842202  1
  O  O218  1  0.99163203  0.63392687  0.74688827  1
  O  O219  1  0.37365168  0.26797038  -0.00213474  1
  O  O220  1  0.36550919  0.24093544  0.50764271  1
  O  O221  1  0.36488709  0.74530811  0.00879621  1
  O  O222  1  0.38430125  0.74791316  0.51793075  1
  O  O223  1  0.87166644  0.25132165  0.01066609  1
  O  O224  1  0.85905545  0.25126607  0.50119437  1
  O  O225  1  0.86251264  0.76374047  -0.01389275  1
  O  O226  1  0.86570852  0.75587519  0.50985449  1
  O  O227  1  0.13591430  0.24410114  0.50506232  1
  O  O228  1  0.13661124  0.24300139  0.99832073  1
  O  O229  1  0.15174185  0.76473271  0.57337969  1
  O  O230  1  0.13237751  0.74155023  0.99263656  1
  O  O231  1  0.63227085  0.24364308  0.49570624  1
  O  O232  1  0.62830048  0.24152242  0.99456804  1
  O  O233  1  0.63004562  0.74846661  0.49836474  1
  O  O234  1  0.62725156  0.74885193  0.99069546  1
  O  O235  1  0.50247023  0.24197016  0.13438244  1
  O  O236  1  0.48764850  0.25978524  0.62284706  1
  O  O237  1  0.49063916  0.74254532  0.12886369  1
  O  O238  1  0.49609956  0.74407533  0.63690439  1
  O  O239  1  0.99312034  0.24230972  0.13344219  1
  O  O240  1  0.99745474  0.24122526  0.61512961  1
  O  O241  1  0.95260381  0.73440640  0.09480347  1
  O  O242  1  0.98710566  0.75256577  0.63914278  1
  O  O243  1  -0.00958967  0.24984480  0.36044645  1
  O  O244  1  0.01983577  0.20220631  0.86821978  1
  O  O245  1  -0.00105246  0.76035940  0.38180560  1
  O  O246  1  0.00686654  0.75982629  0.86443281  1
  O  O247  1  0.49818365  0.26186281  0.36890003  1
  O  O248  1  0.50477975  0.25944255  0.87191864  1
  O  O249  1  0.50240300  0.75615336  0.37097308  1
  O  O250  1  0.50517588  0.74817399  0.86854655  1
  O  O251  1  0.23942000  0.13398564  0.49506192  1
  O  O252  1  0.26086943  0.12586095  0.98796958  1
  O  O253  1  0.25222727  0.62548239  0.48694702  1
  O  O254  1  0.24699382  0.63037423  0.99113995  1
  O  O255  1  0.74052963  0.13138169  0.49245541  1
  O  O256  1  0.73914626  0.13105702  0.99977981  1
  O  O257  1  0.74411629  0.63842204  0.49995146  1
  O  O258  1  0.77570761  0.63913657  1.02630715  1
  O  O259  1  0.26268266  0.37570650  0.01023046  1
  O  O260  1  0.24963886  0.36680678  0.50710652  1
  O  O261  1  0.24505959  0.86143027  0.00541899  1
  O  O262  1  0.24963859  0.88660084  0.52084646  1
  O  O263  1  0.75894338  0.36741079  0.00706563  1
  O  O264  1  0.74737873  0.36713317  0.50509161  1
  O  O265  1  0.75693361  0.88009097  0.01246189  1
  O  O266  1  0.75528731  0.86485634  0.49715740  1
  O  O267  1  0.12789060  0.49120698  0.24136877  1
  O  O268  1  0.14144550  0.49945367  0.74128947  1
  O  O269  1  0.13967983  1.00492602  0.24106831  1
  O  O270  1  0.13268751  1.00567181  0.74308072  1
  O  O271  1  0.63162982  0.49849864  0.24012767  1
  O  O272  1  0.63457666  0.51039524  0.73904920  1
  O  O273  1  0.63103909  0.99034398  0.24124076  1
  O  O274  1  0.61852299  0.98146517  0.75254969  1
  O  O275  1  0.36530519  0.00473360  0.25540300  1
  O  O276  1  0.36909235  0.00645944  0.74742259  1
  O  O277  1  0.37037955  0.51315376  0.25553705  1
  O  O278  1  0.36545357  0.51133699  0.74503057  1
  O  O279  1  0.85927600  0.00144162  0.25231425  1
  O  O280  1  0.87578225  0.01138566  0.74912290  1
  O  O281  1  0.86735415  0.50328116  0.25683864  1
  O  O282  1  0.86798266  0.51395611  0.74656687  1
  O  O283  1  0.12683360  0.38120117  0.36226185  1
  O  O284  1  0.13821392  0.37141153  0.86696756  1
  O  O285  1  0.10969115  0.87601507  0.38384459  1
  O  O286  1  0.12320272  0.87353902  0.86995400  1
  O  O287  1  0.61410343  0.37777010  0.36535549  1
  O  O288  1  0.60894457  0.36245982  0.88484345  1
  O  O289  1  0.61744513  0.86933644  0.36876783  1
  O  O290  1  0.62461946  0.85882531  0.86650942  1
  O  O291  1  0.38006570  0.12135449  0.13629269  1
  O  O292  1  0.37198362  0.13517682  0.63345257  1
  O  O293  1  0.37781638  0.63094692  0.13111225  1
  O  O294  1  0.38279251  0.63210436  0.63687819  1
  O  O295  1  0.87982273  0.13115499  0.12771346  1
  O  O296  1  0.88133614  0.12962556  0.62788560  1
  O  O297  1  0.88058164  0.62092214  0.13414202  1
  O  O298  1  0.87581929  0.63654800  0.63646460  1
  O  O299  1  0.24970208  0.26297645  0.12959394  1
  O  O300  1  0.25951220  0.25764254  0.61692120  1
  O  O301  1  0.25350330  0.75305147  0.11687546  1
  O  O302  1  0.27852044  0.75451627  0.64418813  1
  O  O303  1  0.75639784  0.25176379  0.12107485  1
  O  O304  1  0.74740468  0.26078054  0.61740633  1
  O  O305  1  0.76663383  0.75746599  0.12965222  1
  O  O306  1  0.75803836  0.74898434  0.62142561  1
  O  O307  1  0.25649506  0.25046151  0.38671423  1
  O  O308  1  0.25814524  0.23283797  0.87289919  1
  O  O309  1  0.25113953  0.73775157  0.37264633  1
  O  O310  1  0.24713351  0.74384009  0.87743923  1
  O  O311  1  0.74529113  0.24269596  0.38023422  1
  O  O312  1  0.73792715  0.24782683  0.88241726  1
  O  O313  1  0.74210861  0.75021706  0.38484857  1
  O  O314  1  0.73922961  0.74838402  0.87411309  1
  O  O315  1  0.00038925  0.12315706  0.01775998  1
  O  O316  1  0.00395609  0.12171849  0.50128010  1
  O  O317  1  0.00924164  0.61748595  0.00731885  1
  O  O318  1  -0.00612281  0.61555389  0.50887596  1
  O  O319  1  0.50369198  0.13028399  0.01042771  1
  O  O320  1  0.50929111  0.11510857  0.48807372  1
  O  O321  1  0.49473174  0.62221562  0.01318397  1
  O  O322  1  0.50657356  0.61963758  0.50686048  1
  O  O323  1  0.50564541  0.38346227  0.48674101  1
  O  O324  1  0.49246185  0.37946307  0.99576681  1
  O  O325  1  0.50566030  0.88365036  0.48585529  1
  O  O326  1  0.51210904  0.90704232  1.07223773  1
  O  O327  1  0.99777782  0.38398687  0.49719108  1
  O  O328  1  0.99424992  0.37976103  1.00383136  1
  O  O329  1  0.99213702  0.88427436  0.49588142  1
  O  O330  1  0.99486089  0.86821816  0.99146663  1
  O  O331  1  0.49276552  0.49756019  0.37813909  1
  O  O332  1  0.51134152  0.48572917  0.87558743  1
  O  O333  1  0.49221991  0.99241291  0.37690654  1
  O  O334  1  0.48266383  0.99483470  0.87359069  1
  O  O335  1  0.98994853  0.49577375  0.37217217  1
  O  O336  1  1.00848600  0.50631490  0.88574263  1
  O  O337  1  0.99675598  1.00021964  0.38678148  1
  O  O338  1  1.00486295  0.99335014  0.87155782  1
  O  O339  1  0.01087478  0.00516807  0.13608593  1
  O  O340  1  0.00561839  0.01166737  0.61235830  1
  O  O341  1  0.00968672  0.50336963  0.11962979  1
  O  O342  1  0.01786723  0.49794237  0.62938569  1
  O  O343  1  0.50428442  0.02591285  0.15112258  1
  O  O344  1  0.50214275  -0.00600896  0.60972347  1
  O  O345  1  0.50973888  0.50805625  0.12609562  1
  O  O346  1  0.50750437  0.50397208  0.62294076  1
  O  O347  1  0.24537984  0.38144724  0.24504518  1
  O  O348  1  0.25877527  0.38486152  0.74237557  1
  O  O349  1  0.24958122  0.88126937  0.24190123  1
  O  O350  1  0.23877684  0.88249645  0.72938668  1
  O  O351  1  0.74310352  0.37992315  0.24484889  1
  O  O352  1  0.75502765  0.38509608  0.74064476  1
  O  O353  1  0.74877403  0.88110223  0.24425433  1
  O  O354  1  0.73607910  0.86895564  0.75339126  1
  O  O355  1  0.25719254  0.11873860  0.25024781  1
  O  O356  1  0.26119810  0.11856914  0.75733927  1
  O  O357  1  0.25434768  0.62303125  0.24956548  1
  O  O358  1  0.25832952  0.62222200  0.75540876  1
  O  O359  1  0.74434387  0.11655049  0.25547358  1
  O  O360  1  0.75947102  0.12528399  0.75011198  1
  O  O361  1  0.75743215  0.61526237  0.25028683  1
  O  O362  1  0.76354303  0.61750466  0.75036131  1
  O  O363  1  0.37347222  0.11586746  0.36057937  1
  O  O364  1  0.37011722  0.11476410  0.86743241  1
  O  O365  1  0.36847755  0.62074486  0.36608648  1
  O  O366  1  0.36859577  0.63096792  0.86263183  1
  O  O367  1  0.85754870  0.12072741  0.37243606  1
  O  O368  1  0.87001244  0.12229859  0.86471738  1
  O  O369  1  0.87243285  0.61655024  0.36676992  1
  O  O370  1  0.88113173  0.63045878  0.86149610  1
  O  O371  1  0.13350466  0.37875722  0.13126618  1
  O  O372  1  0.14097467  0.38494108  0.63066830  1
  O  O373  1  0.13481411  0.87974527  0.12194574  1
  O  O374  1  0.11776370  0.89874611  0.63123081  1
  O  O375  1  0.62871324  0.38295470  0.12826051  1
  O  O376  1  0.63480969  0.38721286  0.62180884  1
  O  O377  1  0.64161375  0.87162648  0.13271737  1
  O  O378  1  0.61974692  0.86941571  0.64531817  1
  O  O379  1  0.11595546  0.25761265  0.24658072  1
  O  O380  1  0.12186326  0.24993216  0.75458901  1
  O  O381  1  0.07697338  0.73025463  0.16490209  1
  O  O382  1  0.11695496  0.75822922  0.75251648  1
  O  O383  1  0.61203822  0.25638484  0.25113130  1
  O  O384  1  0.62274941  0.24255738  0.76313932  1
  O  O385  1  0.61981678  0.75378388  0.25471051  1
  O  O386  1  0.61681870  0.75194436  0.75982085  1
  O  O387  1  0.38437684  0.24306298  0.25336117  1
  O  O388  1  0.37837107  0.24085567  0.73997223  1
  O  O389  1  0.37791622  0.74033459  0.24386012  1
  O  O390  1  0.39001495  0.74607936  0.74835042  1
  O  O391  1  0.87920307  0.24808990  0.23901391  1
  O  O392  1  0.87769301  0.23861527  0.74603572  1
  O  O393  1  0.87005019  0.73524917  0.25751200  1
  O  O394  1  0.87904680  0.74496496  0.74764341  1
  O  O395  1  0.38221147  0.50870921  0.48929350  1
  O  O396  1  0.37857425  0.48485925  1.00132807  1
  O  O397  1  0.38125521  1.00979347  0.48517058  1
  O  O398  1  0.36933839  0.99007333  0.98708217  1
  O  O399  1  0.86393613  0.50145269  0.48353291  1
  O  O400  1  0.88840056  0.48266159  0.99854871  1
  O  O401  1  0.88123354  0.99400277  0.50060367  1
  O  O402  1  0.87427070  0.98950543  0.99775771  1
  O  O403  1  0.13548637  0.00299721  0.01535142  1
  O  O404  1  0.11808908  0.01204200  0.50689128  1
  O  O405  1  0.12116278  0.49949511  0.00579696  1
  O  O406  1  0.13063340  0.49667216  0.51652538  1
  O  O407  1  0.62681850  0.00548795  0.00561357  1
  O  O408  1  0.61497767  0.00807730  0.49915480  1
  O  O409  1  0.63034635  0.50723303  0.01257879  1
  O  O410  1  0.62099156  0.50760755  0.50946851  1
  O  O411  1  0.36936090  0.37848246  0.11721477  1
  O  O412  1  0.36516768  0.36792641  0.62522423  1
  O  O413  1  0.36065427  0.85881159  0.13183843  1
  O  O414  1  0.38683375  0.86348180  0.62637097  1
  O  O415  1  0.87089306  0.36514246  0.12175740  1
  O  O416  1  0.86140823  0.37806505  0.61882562  1
  O  O417  1  0.87130587  0.87786550  0.11721302  1
  O  O418  1  0.88098100  0.86756842  0.61393247  1
  O  O419  1  0.12426987  0.12258838  0.38444941  1
  O  O420  1  0.15248175  0.11011461  0.88108578  1
  O  O421  1  0.13852657  0.62313707  0.37062081  1
  O  O422  1  0.13404272  0.63233776  0.87583370  1
  O  O423  1  0.63309473  0.12534704  0.37933859  1
  O  O424  1  0.61978296  0.13014491  0.88694781  1
  O  O425  1  0.62528266  0.63224867  0.38148388  1
  O  O426  1  0.62503450  0.64067348  0.88509738  1
