# generated using pymatgen
data_V85Zn86O256
_symmetry_space_group_name_H-M   'P 1'
_cell_length_a   16.92766342
_cell_length_b   16.93696716
_cell_length_c   16.93718167
_cell_angle_alpha   89.98219440
_cell_angle_beta   89.97790455
_cell_angle_gamma   89.94229248
_symmetry_Int_Tables_number   1
_chemical_formula_structural   V85Zn86O256
_chemical_formula_sum   'V85 Zn86 O256'
_cell_volume   4855.94247172
_cell_formula_units_Z   1
loop_
 _symmetry_equiv_pos_site_id
 _symmetry_equiv_pos_as_xyz
  1  'x, y, z'
loop_
 _atom_site_type_symbol
 _atom_site_label
 _atom_site_symmetry_multiplicity
 _atom_site_fract_x
 _atom_site_fract_y
 _atom_site_fract_z
 _atom_site_occupancy
  V  V0  1  -0.00015028  0.74829736  0.24842804  1
  V  V1  1  0.37648426  0.12686207  0.25706138  1
  V  V2  1  0.49759867  0.49801326  -0.01363924  1
  V  V3  1  0.74735585  0.62198575  0.37830347  1
  V  V4  1  0.37455113  0.11228584  0.75779698  1
  V  V5  1  0.24704309  0.37338745  0.12729142  1
  V  V6  1  -0.00141467  -0.00435779  0.50235102  1
  V  V7  1  0.24939878  0.74757407  0.50565264  1
  V  V8  1  0.62301476  0.37176914  0.24986303  1
  V  V9  1  0.25183364  0.50464782  0.75659818  1
  V  V10  1  0.37405563  0.37553800  0.50110490  1
  V  V11  1  0.74902267  0.25255733  -0.00501423  1
  V  V12  1  0.76154968  0.75804019  0.49613944  1
  V  V13  1  0.73356933  -0.00479625  0.74726286  1
  V  V14  1  0.87430456  0.62093081  0.25283074  1
  V  V15  1  0.12435679  0.37594200  0.75070878  1
  V  V16  1  0.37299377  0.87847813  0.49722280  1
  V  V17  1  0.37830318  0.25076549  0.62975160  1
  V  V18  1  0.00618363  0.12437211  0.61817126  1
  V  V19  1  0.12530688  0.87606312  0.24703434  1
  V  V20  1  0.62860245  0.76592849  0.86673548  1
  V  V21  1  0.12439667  0.74840138  0.37565714  1
  V  V22  1  0.37458232  0.62381884  0.24692592  1
  V  V23  1  0.01357349  0.25048284  0.24802271  1
  V  V24  1  0.74145341  0.37467113  0.63214622  1
  V  V25  1  0.63059013  -0.00371052  0.12444395  1
  V  V26  1  0.88081478  0.24673746  0.12495237  1
  V  V27  1  -0.00266882  0.00591648  0.00772834  1
  V  V28  1  0.88313469  0.12493042  0.24950677  1
  V  V29  1  0.38648123  0.25445399  0.12908761  1
  V  V30  1  0.00142488  0.37924475  0.37064606  1
  V  V31  1  0.50965411  0.77061225  0.74219134  1
  V  V32  1  0.87501769  0.12023384  0.75061768  1
  V  V33  1  0.13236776  0.00055963  0.62720729  1
  V  V34  1  0.74492477  0.12628844  0.87378276  1
  V  V35  1  0.24947053  0.37519363  0.62476291  1
  V  V36  1  0.74775522  0.37369992  0.12502310  1
  V  V37  1  0.62313411  0.74701831  0.38218703  1
  V  V38  1  0.74912760  0.25008930  0.50042118  1
  V  V39  1  0.24041269  0.49634640  0.24872058  1
  V  V40  1  0.74716735  0.88668816  0.61460618  1
  V  V41  1  0.12658565  0.87636934  0.74987842  1
  V  V42  1  0.25203350  0.10463478  0.87607724  1
  V  V43  1  0.24988312  0.74822251  0.00064866  1
  V  V44  1  0.12327597  0.74565300  0.87428980  1
  V  V45  1  0.75332741  0.49669738  0.25552820  1
  V  V46  1  0.00071166  0.24868458  0.75126655  1
  V  V47  1  0.62504174  0.49994701  0.12369114  1
  V  V48  1  0.49531909  -0.00842184  -0.00698277  1
  V  V49  1  0.75291074  0.12412742  0.37227829  1
  V  V50  1  -0.01534715  0.49992615  0.49899970  1
  V  V51  1  -0.00238058  0.61627143  0.12095390  1
  V  V52  1  0.50053193  0.74964492  0.24903531  1
  V  V53  1  0.50084255  0.12672545  0.13096350  1
  V  V54  1  0.75752797  0.51664496  0.75459859  1
  V  V55  1  0.63312160  0.87353514  0.24662271  1
  V  V56  1  0.12975640  0.24497858  0.87351185  1
  V  V57  1  0.37803083  0.37858420  -0.01269200  1
  V  V58  1  0.87537734  0.25185579  0.62432215  1
  V  V59  1  0.49729899  0.88498993  0.37333232  1
  V  V60  1  0.25409028  0.24767947  -0.00052275  1
  V  V61  1  0.25573985  0.87569418  0.12575625  1
  V  V62  1  0.50594530  0.12055503  0.62954862  1
  V  V63  1  0.50640457  0.51202239  0.50420596  1
  V  V64  1  0.50090569  0.62318726  0.11991793  1
  V  V65  1  -0.00184687  0.37632160  0.88442518  1
  V  V66  1  0.62307336  0.12961245  -0.00061063  1
  V  V67  1  -0.01071165  0.74652792  0.75152324  1
  V  V68  1  0.12216215  0.50290694  0.62257939  1
  V  V69  1  0.87881339  0.51372269  0.87999048  1
  V  V70  1  -0.01744494  0.62338073  0.62743466  1
  V  V71  1  0.24854264  0.62334302  0.37515143  1
  V  V72  1  0.62131758  0.24849422  0.37022407  1
  V  V73  1  0.25524429  0.00301416  0.25585858  1
  V  V74  1  0.12877802  0.24015402  0.38692305  1
  V  V75  1  0.50446667  0.25870255  0.76581533  1
  V  V76  1  0.86825287  0.75750099  0.12568824  1
  V  V77  1  0.12187823  0.61278687  -0.00108687  1
  V  V78  1  0.74759198  0.75650536  -0.00070698  1
  V  V79  1  0.62549907  0.11722330  0.50342262  1
  V  V80  1  0.39522427  0.61892988  0.74715924  1
  V  V81  1  -0.00759172  0.87317429  0.37960860  1
  V  V82  1  0.49831407  0.37305682  0.37007802  1
  V  V83  1  0.37364099  0.49928637  0.37497573  1
  V  V84  1  0.62861124  0.62622808  -0.01082317  1
  Zn  Zn85  1  0.39376560  0.74253075  0.61750043  1
  Zn  Zn86  1  0.61444912  0.51401180  0.63439700  1
  Zn  Zn87  1  0.87399494  -0.00250423  0.37840028  1
  Zn  Zn88  1  0.49582689  0.00211081  0.50084954  1
  Zn  Zn89  1  0.12161709  0.62186520  0.49887806  1
  Zn  Zn90  1  0.25366639  0.87311193  0.62849060  1
  Zn  Zn91  1  0.25079877  0.23355359  0.49967937  1
  Zn  Zn92  1  0.87256593  0.87742264  0.00065191  1
  Zn  Zn93  1  0.87461768  -0.00365464  0.87661402  1
  Zn  Zn94  1  0.75648244  -0.00253050  0.24449478  1
  Zn  Zn95  1  -0.00464546  0.87583027  0.87768138  1
  Zn  Zn96  1  0.35140519  0.90640097  -0.04137009  1
  Zn  Zn97  1  0.37771814  0.75275634  0.12093330  1
  Zn  Zn98  1  0.12024782  0.01600804  0.13128788  1
  Zn  Zn99  1  0.12105855  0.12684407  0.00688570  1
  Zn  Zn100  1  0.87931730  0.38093297  0.00340427  1
  Zn  Zn101  1  0.11663904  0.49022331  0.12436638  1
  Zn  Zn102  1  0.62768648  0.37593855  0.76990830  1
  Zn  Zn103  1  0.31044668  0.06278212  0.41926446  1
  Zn  Zn104  1  0.87017848  0.37843294  0.49485288  1
  Zn  Zn105  1  0.87414321  0.75904466  0.62490575  1
  Zn  Zn106  1  0.25938047  0.62049855  0.87630025  1
  Zn  Zn107  1  0.19378998  0.18778207  0.19005770  1
  Zn  Zn108  1  0.19251269  0.18361322  0.68875009  1
  Zn  Zn109  1  0.18530344  0.68525693  0.18455829  1
  Zn  Zn110  1  0.18197933  0.68415029  0.68849056  1
  Zn  Zn111  1  0.68983754  0.18703865  0.18654660  1
  Zn  Zn112  1  0.68589755  0.18950351  0.68996011  1
  Zn  Zn113  1  0.68729703  0.68721742  0.18683510  1
  Zn  Zn114  1  0.68479429  0.69261502  0.67961102  1
  Zn  Zn115  1  0.30944662  0.30973155  0.31145288  1
  Zn  Zn116  1  0.31175034  0.30954934  0.81030354  1
  Zn  Zn117  1  0.31309542  0.81110495  0.31381661  1
  Zn  Zn118  1  0.31087880  0.80574314  0.80288640  1
  Zn  Zn119  1  0.81783795  0.31023393  0.31336191  1
  Zn  Zn120  1  0.81486734  0.31389153  0.81473302  1
  Zn  Zn121  1  0.81251393  0.80997771  0.31057203  1
  Zn  Zn122  1  0.80883299  0.81580461  0.81370918  1
  Zn  Zn123  1  0.18298529  0.43280462  0.43761028  1
  Zn  Zn124  1  0.18949717  0.43343626  0.93778517  1
  Zn  Zn125  1  0.17922287  0.93417124  0.44121511  1
  Zn  Zn126  1  0.17227309  0.93363103  0.94198538  1
  Zn  Zn127  1  0.68728941  0.43643174  0.43979249  1
  Zn  Zn128  1  0.69483502  0.44376765  0.93753719  1
  Zn  Zn129  1  0.68577176  0.93797758  0.43303454  1
  Zn  Zn130  1  0.68830709  0.93991390  0.93844999  1
  Zn  Zn131  1  0.30943305  0.06435362  0.06924530  1
  Zn  Zn132  1  0.31567569  0.06081613  0.57965812  1
  Zn  Zn133  1  0.31278653  0.56102146  0.06056503  1
  Zn  Zn134  1  0.31438766  0.56330867  0.56682107  1
  Zn  Zn135  1  0.81420976  0.06498345  0.06334361  1
  Zn  Zn136  1  0.81593164  0.06244983  0.56233609  1
  Zn  Zn137  1  0.81070677  0.56613753  0.06090278  1
  Zn  Zn138  1  0.77938389  0.57866981  0.57911673  1
  Zn  Zn139  1  0.43518974  0.43837274  0.18425507  1
  Zn  Zn140  1  0.43856309  0.43922380  0.68972634  1
  Zn  Zn141  1  0.43959316  0.94069538  0.18545621  1
  Zn  Zn142  1  0.43721370  0.93637714  0.68141441  1
  Zn  Zn143  1  0.93501004  0.43347352  0.19073978  1
  Zn  Zn144  1  0.93346690  0.43698857  0.69163768  1
  Zn  Zn145  1  0.93885931  0.93825690  0.18852380  1
  Zn  Zn146  1  0.93620124  0.93472014  0.68752799  1
  Zn  Zn147  1  0.06397561  0.06203645  0.31465536  1
  Zn  Zn148  1  0.06023076  0.05868505  0.81508611  1
  Zn  Zn149  1  0.06063277  0.56066626  0.31304411  1
  Zn  Zn150  1  0.05842141  0.56236347  0.81114481  1
  Zn  Zn151  1  0.56448215  0.06251447  0.30990606  1
  Zn  Zn152  1  0.56022511  0.06569664  0.81610430  1
  Zn  Zn153  1  0.56326147  0.56067798  0.31325857  1
  Zn  Zn154  1  0.57128521  0.56088769  0.81365378  1
  Zn  Zn155  1  0.44123795  0.19268551  0.44204898  1
  Zn  Zn156  1  0.43267445  0.18048549  0.94239515  1
  Zn  Zn157  1  0.43535098  0.69000490  0.43412396  1
  Zn  Zn158  1  0.42173779  0.73218148  0.91028378  1
  Zn  Zn159  1  0.94020154  0.18939247  0.43732437  1
  Zn  Zn160  1  0.93510688  0.18611588  0.93704783  1
  Zn  Zn161  1  0.93532498  0.68314831  0.43672542  1
  Zn  Zn162  1  0.93847081  0.69099623  0.94192902  1
  Zn  Zn163  1  0.06626455  0.30647080  0.06200653  1
  Zn  Zn164  1  0.06083835  0.31527138  0.55933572  1
  Zn  Zn165  1  0.05975622  0.81239797  0.06252014  1
  Zn  Zn166  1  0.06152318  0.81141756  0.56440076  1
  Zn  Zn167  1  0.56148994  0.31366664  -0.05412707  1
  Zn  Zn168  1  0.56146152  0.31293664  0.56109779  1
  Zn  Zn169  1  0.56337625  0.81241518  0.06142355  1
  Zn  Zn170  1  0.56931637  0.81876878  0.56095930  1
  O  O171  1  0.13017785  0.12953274  0.12080549  1
  O  O172  1  0.11619351  0.11547956  0.63643667  1
  O  O173  1  0.11484766  0.62101971  0.11758506  1
  O  O174  1  0.11527204  0.61185373  0.62290936  1
  O  O175  1  0.61823754  0.12130165  0.12030367  1
  O  O176  1  0.61773722  0.13478314  0.61511609  1
  O  O177  1  0.61761872  0.62035093  0.12084813  1
  O  O178  1  0.66971298  0.60814063  0.61005096  1
  O  O179  1  0.38032902  0.37688425  0.38132683  1
  O  O180  1  0.36976309  0.37032731  0.88809514  1
  O  O181  1  0.38460558  0.86696403  0.38573357  1
  O  O182  1  0.38215346  0.83890760  0.87956563  1
  O  O183  1  0.89356454  0.36588623  0.37902292  1
  O  O184  1  0.88519100  0.37850880  0.87965122  1
  O  O185  1  0.88893774  0.87667934  0.36515534  1
  O  O186  1  0.87605131  0.87823754  0.88002779  1
  O  O187  1  0.24579726  -0.01127536  0.36124530  1
  O  O188  1  0.24807155  0.00452793  0.88634185  1
  O  O189  1  0.25334936  0.50141535  0.36868801  1
  O  O190  1  0.24544666  0.49927018  0.86065982  1
  O  O191  1  0.75155650  0.01338474  0.37226517  1
  O  O192  1  0.74998659  0.00735028  0.86310357  1
  O  O193  1  0.74318189  0.50746276  0.36712138  1
  O  O194  1  0.76504852  0.49988136  0.86446007  1
  O  O195  1  0.24992322  0.49187948  0.13298598  1
  O  O196  1  0.24008988  0.49463564  0.63101374  1
  O  O197  1  0.24598460  0.99114068  0.13608984  1
  O  O198  1  0.23598399  0.99461056  0.62858277  1
  O  O199  1  0.74636195  0.49252383  0.13149743  1
  O  O200  1  0.76880677  0.48347512  0.64495288  1
  O  O201  1  0.73535194  1.00721532  0.12546113  1
  O  O202  1  0.75225177  0.99774214  0.63464767  1
  O  O203  1  -0.00120422  0.36771681  0.26180207  1
  O  O204  1  0.00553975  0.36707320  0.75786146  1
  O  O205  1  0.00845520  0.86844976  0.25426201  1
  O  O206  1  0.00858617  0.86371192  0.74979501  1
  O  O207  1  0.50344373  0.38308805  0.26291104  1
  O  O208  1  0.50082250  0.36174239  0.75017310  1
  O  O209  1  0.50489838  0.86953734  0.25565226  1
  O  O210  1  0.50429254  0.86885312  0.74594835  1
  O  O211  1  0.49549544  0.12037356  0.23792363  1
  O  O212  1  0.49308789  0.13471719  0.74866340  1
  O  O213  1  0.49581937  0.62710059  0.24109305  1
  O  O214  1  0.49618737  0.61406635  0.74340763  1
  O  O215  1  0.99049988  0.13405347  0.25667814  1
  O  O216  1  0.99196185  0.12936798  0.74422990  1
  O  O217  1  0.99172392  0.62838068  0.24629293  1
  O  O218  1  1.00292234  0.63279072  0.73837416  1
  O  O219  1  0.37210349  0.25665739  0.00838247  1
  O  O220  1  0.37483453  0.25918137  0.51062032  1
  O  O221  1  0.35513039  0.73725665  0.00509301  1
  O  O222  1  0.36699320  0.75424853  0.50201680  1
  O  O223  1  0.86869640  0.25124129  0.00901450  1
  O  O224  1  0.86801283  0.24840323  0.50940232  1
  O  O225  1  0.86503463  0.74923516  0.00866303  1
  O  O226  1  0.86483559  0.75412150  0.49493661  1
  O  O227  1  0.12798012  0.25042202  0.49201846  1
  O  O228  1  0.13234448  0.24809494  0.98622473  1
  O  O229  1  0.13042757  0.74750841  0.49201661  1
  O  O230  1  0.13064314  0.74194076  0.99470561  1
  O  O231  1  0.63018579  0.24436172  0.48907737  1
  O  O232  1  0.63308023  0.23712032  1.00359064  1
  O  O233  1  0.63656650  0.75735471  0.48523685  1
  O  O234  1  0.62735391  0.74610279  0.98970635  1
  O  O235  1  0.48799973  0.24118588  0.12302053  1
  O  O236  1  0.49113493  0.24473366  0.63117783  1
  O  O237  1  0.49902408  0.74086684  0.12916244  1
  O  O238  1  0.51407241  0.75132394  0.63704919  1
  O  O239  1  0.99228674  0.25872270  0.13518644  1
  O  O240  1  0.99535624  0.24395135  0.62972329  1
  O  O241  1  0.99318428  0.73892434  0.13168908  1
  O  O242  1  0.99658817  0.74075604  0.63149577  1
  O  O243  1  0.00944257  0.25652226  0.37042960  1
  O  O244  1  0.00749616  0.25347617  0.87002935  1
  O  O245  1  0.00429829  0.75394012  0.36958719  1
  O  O246  1  0.00788983  0.74895190  0.86925765  1
  O  O247  1  0.50995326  0.26035057  0.37794894  1
  O  O248  1  0.49749934  0.24663397  0.86926328  1
  O  O249  1  0.50772844  0.75539004  0.36908429  1
  O  O250  1  0.52095312  0.74181031  0.85422058  1
  O  O251  1  0.26361324  0.12193694  0.50110673  1
  O  O252  1  0.25436704  0.13144405  0.99083909  1
  O  O253  1  0.24852690  0.62933626  0.49301891  1
  O  O254  1  0.23973119  0.62880889  0.99838866  1
  O  O255  1  0.74440300  0.12985658  0.49427060  1
  O  O256  1  0.74380029  0.13043123  0.99320659  1
  O  O257  1  0.76067241  0.63726204  0.48059624  1
  O  O258  1  0.73735609  0.63837192  1.00783791  1
  O  O259  1  0.25863644  0.36912402  0.00647858  1
  O  O260  1  0.26224300  0.37670461  0.50614523  1
  O  O261  1  0.24739335  0.86839313  0.00785502  1
  O  O262  1  0.25610498  0.86564746  0.49905522  1
  O  O263  1  0.75304672  0.36757281  0.01002053  1
  O  O264  1  0.75218658  0.36849278  0.50801021  1
  O  O265  1  0.74815298  0.86221187  0.00079441  1
  O  O266  1  0.75147640  0.87540705  0.50435345  1
  O  O267  1  0.13705291  0.50285561  0.24744460  1
  O  O268  1  0.12994135  0.49479203  0.74261711  1
  O  O269  1  0.13012463  0.99137462  0.24924691  1
  O  O270  1  0.11613664  0.98711796  0.74241448  1
  O  O271  1  0.63475789  0.49360827  0.24474933  1
  O  O272  1  0.64300453  0.49608223  0.75013174  1
  O  O273  1  0.62691202  0.99173698  0.24202502  1
  O  O274  1  0.63566920  1.00909605  0.74896807  1
  O  O275  1  0.36769221  0.01057685  0.24564593  1
  O  O276  1  0.38063976  0.01355320  0.74820026  1
  O  O277  1  0.36786459  0.50696195  0.25594281  1
  O  O278  1  0.36798940  0.51118806  0.74568116  1
  O  O279  1  0.87547866  0.00994320  0.25263736  1
  O  O280  1  0.86972371  0.01305652  0.74907635  1
  O  O281  1  0.86147332  0.50531588  0.24661126  1
  O  O282  1  0.86641389  0.49520778  0.76448927  1
  O  O283  1  0.10846963  0.36476949  0.38046694  1
  O  O284  1  0.11998024  0.36680412  0.86954508  1
  O  O285  1  0.11643966  0.86720067  0.36446722  1
  O  O286  1  0.11985146  0.86353754  0.86773572  1
  O  O287  1  0.61808765  0.36796594  0.37092595  1
  O  O288  1  0.63005868  0.37307919  0.88247287  1
  O  O289  1  0.61652543  0.86846437  0.36650930  1
  O  O290  1  0.62518835  0.86426132  0.87629704  1
  O  O291  1  0.38217630  0.13223911  0.13346844  1
  O  O292  1  0.38288472  0.13353413  0.64070679  1
  O  O293  1  0.38398765  0.62356224  0.13101140  1
  O  O294  1  0.36983309  0.62931707  0.64185464  1
  O  O295  1  0.87047066  0.13877300  0.13415777  1
  O  O296  1  0.88105848  0.13475355  0.63155600  1
  O  O297  1  0.87946013  0.63039515  0.13401640  1
  O  O298  1  0.88075013  0.63009247  0.61936917  1
  O  O299  1  0.26103793  0.25734120  0.12021582  1
  O  O300  1  0.26259447  0.25588674  0.62742576  1
  O  O301  1  0.24814503  0.75733554  0.11779716  1
  O  O302  1  0.24345035  0.74779002  0.61108607  1
  O  O303  1  0.75603719  0.25561640  0.11666270  1
  O  O304  1  0.75663663  0.25517110  0.62166543  1
  O  O305  1  0.75819114  0.74663572  0.11844777  1
  O  O306  1  0.75318908  0.76373758  0.61188774  1
  O  O307  1  0.23284297  0.25824628  0.37877511  1
  O  O308  1  0.24314174  0.24333526  0.87838877  1
  O  O309  1  0.24429524  0.74417392  0.38358715  1
  O  O310  1  0.23520809  0.74382584  0.88151311  1
  O  O311  1  0.74547643  0.24076075  0.37945896  1
  O  O312  1  0.75706803  0.24311947  0.88847555  1
  O  O313  1  0.74298105  0.74558229  0.37690967  1
  O  O314  1  0.73682149  0.75057463  0.87994607  1
  O  O315  1  -0.00088309  0.11122018  -0.00441076  1
  O  O316  1  -0.00091687  0.12121584  0.51392741  1
  O  O317  1  0.00799747  0.62877414  0.01104136  1
  O  O318  1  0.00023026  0.61661798  0.50610767  1
  O  O319  1  0.50665653  0.11999858  0.01053336  1
  O  O320  1  0.50777263  0.12675519  0.51044095  1
  O  O321  1  0.50862607  0.61766650  0.01224890  1
  O  O322  1  0.49343252  0.61069751  0.49460952  1
  O  O323  1  0.49010367  0.37972296  0.49063349  1
  O  O324  1  0.48991970  0.38460661  1.00348879  1
  O  O325  1  0.49392789  0.87696662  0.49173849  1
  O  O326  1  0.50052093  0.89089398  1.00527593  1
  O  O327  1  0.99474184  0.38307567  0.49255481  1
  O  O328  1  1.00197612  0.37082633  0.98810799  1
  O  O329  1  1.00329858  0.88011830  0.49040462  1
  O  O330  1  0.99782883  0.88558541  1.00001207  1
  O  O331  1  0.49303678  0.49372686  0.38226686  1
  O  O332  1  0.50395701  0.50369376  0.88744064  1
  O  O333  1  0.50346780  0.98776317  0.37477906  1
  O  O334  1  0.50234403  1.00668185  0.89412051  1
  O  O335  1  1.00314318  0.48820766  0.38198359  1
  O  O336  1  0.98814795  0.49003644  0.86925509  1
  O  O337  1  1.00289002  0.99033123  0.38400513  1
  O  O338  1  0.99665675  0.99719748  0.88779117  1
  O  O339  1  0.00085167  -0.00209974  0.11323689  1
  O  O340  1  0.00493368  0.00643112  0.62132141  1
  O  O341  1  -0.00151422  0.51059607  0.13274065  1
  O  O342  1  0.00172559  0.50445415  0.62053339  1
  O  O343  1  0.51060431  0.00857201  0.11828639  1
  O  O344  1  0.49744320  0.01670395  0.62341822  1
  O  O345  1  0.50771606  0.50603825  0.12123643  1
  O  O346  1  0.50128506  0.49504384  0.60983667  1
  O  O347  1  0.25733501  0.38500278  0.24034564  1
  O  O348  1  0.24525786  0.38118659  0.74315572  1
  O  O349  1  0.24419919  0.87757449  0.24512855  1
  O  O350  1  0.23284429  0.86203089  0.74482181  1
  O  O351  1  0.74829328  0.38006898  0.24740372  1
  O  O352  1  0.74622741  0.36940533  0.74322605  1
  O  O353  1  0.73724284  0.87763360  0.25505871  1
  O  O354  1  0.74878966  0.89221240  0.74390768  1
  O  O355  1  0.26216035  0.11565429  0.25209086  1
  O  O356  1  0.26620618  0.12672822  0.75964862  1
  O  O357  1  0.25519457  0.61809863  0.25344909  1
  O  O358  1  0.24973255  0.61552000  0.75165874  1
  O  O359  1  0.76159385  0.12654305  0.25758034  1
  O  O360  1  0.75435980  0.12086745  0.75553610  1
  O  O361  1  0.75516349  0.61723985  0.25582099  1
  O  O362  1  0.75616682  0.61408119  0.74924487  1
  O  O363  1  0.38735542  0.12906938  0.36243588  1
  O  O364  1  0.36794334  0.12567722  0.86531734  1
  O  O365  1  0.36799209  0.61955440  0.36719532  1
  O  O366  1  0.37417301  0.63718832  0.85134387  1
  O  O367  1  0.86843720  0.12675661  0.36832575  1
  O  O368  1  0.86298866  0.12359869  0.86713421  1
  O  O369  1  0.86762751  0.62852428  0.35893804  1
  O  O370  1  0.88460378  0.61221559  0.87742357  1
  O  O371  1  0.14093484  0.37393552  0.11881989  1
  O  O372  1  0.12628398  0.38372859  0.63032313  1
  O  O373  1  0.13233761  0.87182228  0.13804885  1
  O  O374  1  0.12420270  0.88198657  0.63256600  1
  O  O375  1  0.63927925  0.37870009  0.13384641  1
  O  O376  1  0.63635592  0.37834655  0.62402761  1
  O  O377  1  0.61898436  0.88354540  0.13461791  1
  O  O378  1  0.64588188  0.87837574  0.62214593  1
  O  O379  1  0.11631860  0.24818199  0.25903401  1
  O  O380  1  0.12329403  0.25354870  0.75843348  1
  O  O381  1  0.12051781  0.75460776  0.25589465  1
  O  O382  1  0.11505283  0.75136409  0.75808576  1
  O  O383  1  0.63156198  0.25469303  0.26239972  1
  O  O384  1  0.60682867  0.25050829  0.74895505  1
  O  O385  1  0.61999076  0.75678033  0.25560785  1
  O  O386  1  0.62358767  0.74992978  0.75693747  1
  O  O387  1  0.37052246  0.24123531  0.24118769  1
  O  O388  1  0.38644344  0.24559612  0.74627463  1
  O  O389  1  0.38132461  0.74002161  0.24827919  1
  O  O390  1  0.39911736  0.74257261  0.74009444  1
  O  O391  1  0.88521137  0.24422255  0.24363899  1
  O  O392  1  0.87883647  0.23913896  0.74463829  1
  O  O393  1  0.87829315  0.74110177  0.24284897  1
  O  O394  1  0.88633541  0.75318995  0.75150631  1
  O  O395  1  0.38066758  0.49318921  0.49531548  1
  O  O396  1  0.38477392  0.49097983  1.00370159  1
  O  O397  1  0.37495705  0.99156677  0.49927231  1
  O  O398  1  0.38814291  1.00166977  1.00754283  1
  O  O399  1  0.88396529  0.49996441  0.50575250  1
  O  O400  1  0.86798878  0.49848559  0.98617469  1
  O  O401  1  0.89159725  1.00598396  0.49731110  1
  O  O402  1  0.88255548  0.99888482  1.00161689  1
  O  O403  1  0.11114784  0.00342994  0.00672436  1
  O  O404  1  0.11226666  -0.00453060  0.51308505  1
  O  O405  1  0.12814461  0.50928484  0.00149496  1
  O  O406  1  0.11534533  0.49857501  0.50902993  1
  O  O407  1  0.61899002  0.00973819  0.00574700  1
  O  O408  1  0.62164459  0.01468840  0.49359002  1
  O  O409  1  0.62243692  0.50890425  0.00628557  1
  O  O410  1  0.60739243  0.49637848  0.49588842  1
  O  O411  1  0.36821245  0.36877948  0.11941279  1
  O  O412  1  0.37290280  0.36900333  0.61976328  1
  O  O413  1  0.36168579  0.87242065  0.13003434  1
  O  O414  1  0.37374171  0.86840381  0.61203772  1
  O  O415  1  0.86498876  0.36569904  0.12585484  1
  O  O416  1  0.87205777  0.36026624  0.62634198  1
  O  O417  1  0.87817127  0.86041172  0.12727381  1
  O  O418  1  0.85705639  0.87563890  0.63058015  1
  O  O419  1  0.12035770  0.14105885  0.37631816  1
  O  O420  1  0.13498227  0.12995770  0.87378905  1
  O  O421  1  0.13018623  0.63070970  0.37546445  1
  O  O422  1  0.12220772  0.62898224  0.88347783  1
  O  O423  1  0.63075773  0.13188547  0.37835719  1
  O  O424  1  0.63652170  0.12467515  0.88313800  1
  O  O425  1  0.63394243  0.63549367  0.36644371  1
  O  O426  1  0.62676624  0.62974090  0.88709545  1
