# generated using pymatgen
data_V85Zn86O256
_symmetry_space_group_name_H-M   'P 1'
_cell_length_a   16.94556331
_cell_length_b   16.95730862
_cell_length_c   16.94128188
_cell_angle_alpha   89.94817372
_cell_angle_beta   89.98121791
_cell_angle_gamma   90.02530715
_symmetry_Int_Tables_number   1
_chemical_formula_structural   V85Zn86O256
_chemical_formula_sum   'V85 Zn86 O256'
_cell_volume   4868.09404836
_cell_formula_units_Z   1
loop_
 _symmetry_equiv_pos_site_id
 _symmetry_equiv_pos_as_xyz
  1  'x, y, z'
loop_
 _atom_site_type_symbol
 _atom_site_label
 _atom_site_symmetry_multiplicity
 _atom_site_fract_x
 _atom_site_fract_y
 _atom_site_fract_z
 _atom_site_occupancy
  V  V0  1  -0.00219335  0.75296113  0.74773992  1
  V  V1  1  0.49813706  0.37172903  0.36147869  1
  V  V2  1  0.12378665  0.87773618  0.75219333  1
  V  V3  1  0.74025983  0.13419145  0.87419143  1
  V  V4  1  0.62418378  0.49771057  0.62285107  1
  V  V5  1  0.86543234  0.74515987  0.13693460  1
  V  V6  1  0.00903348  0.50500399  0.49581297  1
  V  V7  1  0.49939317  0.62057711  0.12300638  1
  V  V8  1  0.37327352  0.62767215  0.74994617  1
  V  V9  1  0.00047938  0.10867721  0.11997601  1
  V  V10  1  0.49980128  0.75434356  0.25350744  1
  V  V11  1  0.38106888  0.12139110  0.75060992  1
  V  V12  1  0.64077496  0.38911586  0.24152713  1
  V  V13  1  0.74878418  0.75381902  -0.00077039  1
  V  V14  1  0.22976487  0.87623209  0.12767024  1
  V  V15  1  0.12692122  0.36843523  0.24262048  1
  V  V16  1  0.62112255  0.12675345  0.50231271  1
  V  V17  1  0.85225375  0.39917941  0.02377092  1
  V  V18  1  0.50443212  0.12505046  0.13718196  1
  V  V19  1  0.86986832  0.62806581  0.74985094  1
  V  V20  1  0.23928905  0.49926421  0.24916739  1
  V  V21  1  0.74862769  0.00325667  0.75105022  1
  V  V22  1  0.01519229  0.75194267  0.25433988  1
  V  V23  1  0.37510795  0.88181461  -0.00037130  1
  V  V24  1  0.74555386  0.25291387  0.00591812  1
  V  V25  1  0.75132283  0.12476409  0.36648219  1
  V  V26  1  0.75041168  0.61534084  0.35192618  1
  V  V27  1  0.00315352  0.37930032  0.88525502  1
  V  V28  1  0.37925922  0.24690346  0.13164834  1
  V  V29  1  0.24957760  0.74142015  0.50940626  1
  V  V30  1  0.49738498  0.00200640  0.50365005  1
  V  V31  1  0.62022545  0.24984480  0.36383875  1
  V  V32  1  0.25128615  0.75052726  -0.00178818  1
  V  V33  1  0.37313162  0.36670792  0.49598743  1
  V  V34  1  0.50451613  0.00074385  0.00198560  1
  V  V35  1  0.87579572  0.37798206  0.49944610  1
  V  V36  1  0.38415775  0.49178038  0.88053616  1
  V  V37  1  -0.00259295  0.87867535  0.88284282  1
  V  V38  1  0.25207696  0.36247669  0.62009338  1
  V  V39  1  0.23609799  0.60695500  0.89509798  1
  V  V40  1  0.50253062  0.25101431  0.76780373  1
  V  V41  1  -0.00027937  0.24277951  0.24623282  1
  V  V42  1  0.12520245  0.37370950  0.74717348  1
  V  V43  1  0.25423857  0.12453151  0.87824504  1
  V  V44  1  0.37179684  0.62596929  0.25090899  1
  V  V45  1  0.62813179  0.74713342  0.87418833  1
  V  V46  1  0.88096429  0.50201928  0.87168515  1
  V  V47  1  0.23401803  0.62435408  0.38032506  1
  V  V48  1  0.25571653  0.49817179  0.74390082  1
  V  V49  1  0.12570329  0.25113697  0.38161248  1
  V  V50  1  0.74994330  0.87609177  0.62106629  1
  V  V51  1  0.62353820  0.00294569  0.62150653  1
  V  V52  1  0.37155714  -0.00113674  0.37370181  1
  V  V53  1  -0.00191067  0.12744678  0.62799939  1
  V  V54  1  0.25324759  0.37243793  0.12103594  1
  V  V55  1  0.49152334  0.86975569  0.37768992  1
  V  V56  1  0.12501434  0.74694254  0.87386680  1
  V  V57  1  0.25448776  -0.00031196  0.75767722  1
  V  V58  1  0.63669839  -0.01176847  0.14001038  1
  V  V59  1  0.37498093  0.75356675  0.12768958  1
  V  V60  1  -0.00041649  -0.00005362  0.50265433  1
  V  V61  1  0.12615852  0.00208220  0.62837396  1
  V  V62  1  0.12355385  0.11383074  0.00496447  1
  V  V63  1  0.62602814  0.62556211  0.49364408  1
  V  V64  1  0.87473150  0.00377371  0.88055112  1
  V  V65  1  0.74966236  0.25124390  0.50008759  1
  V  V66  1  0.49516173  0.87812846  0.87505722  1
  V  V67  1  -0.00271841  0.25228073  0.75269224  1
  V  V68  1  0.23361967  -0.00517192  0.24982286  1
  V  V69  1  -0.00747873  0.38546672  0.35837757  1
  V  V70  1  0.75272896  0.74258833  0.50101931  1
  V  V71  1  0.87078438  0.87672970  0.00832178  1
  V  V72  1  0.49816505  0.75067817  0.74561422  1
  V  V73  1  0.38857040  0.24370032  0.62153290  1
  V  V74  1  0.62434559  0.87517881  0.74940804  1
  V  V75  1  0.62096495  0.37241102  0.76170097  1
  V  V76  1  0.37372459  0.50070836  0.37451630  1
  V  V77  1  0.49504673  0.62899984  0.62123502  1
  V  V78  1  0.87507699  0.00197714  0.36960202  1
  V  V79  1  0.74778769  0.50181977  0.75356022  1
  V  V80  1  0.24894939  0.12734907  0.38253796  1
  V  V81  1  0.25731618  0.86965462  0.62969142  1
  V  V82  1  0.00657254  0.62674095  0.62156181  1
  V  V83  1  0.62527003  0.62281391  0.00057588  1
  V  V84  1  0.65374556  0.78303252  0.35649792  1
  Zn  Zn85  1  0.50793748  0.49190957  0.00111698  1
  Zn  Zn86  1  0.38666633  0.36280218  -0.00712015  1
  Zn  Zn87  1  0.87657102  0.25048973  0.12260265  1
  Zn  Zn88  1  0.62152887  0.12947927  -0.00047328  1
  Zn  Zn89  1  0.13082806  0.50273756  0.62161274  1
  Zn  Zn90  1  0.00097392  0.63102597  0.12665709  1
  Zn  Zn91  1  0.00744667  0.88240331  0.36828206  1
  Zn  Zn92  1  0.74920729  0.37404592  0.62659905  1
  Zn  Zn93  1  0.12403339  0.75592635  0.38440487  1
  Zn  Zn94  1  0.50058209  0.49848806  0.49715528  1
  Zn  Zn95  1  0.37456331  0.12420967  0.25279895  1
  Zn  Zn96  1  0.12858739  0.13077202  0.50522277  1
  Zn  Zn97  1  0.24880475  0.24543631  0.00366192  1
  Zn  Zn98  1  0.86477579  0.49892252  0.36522858  1
  Zn  Zn99  1  0.06203451  0.55461660  0.02074515  1
  Zn  Zn100  1  0.87057339  0.12059503  0.24232717  1
  Zn  Zn101  1  0.87624723  0.75083670  0.62273928  1
  Zn  Zn102  1  0.87724207  0.87563884  0.50121394  1
  Zn  Zn103  1  0.87289185  0.25139338  0.62614724  1
  Zn  Zn104  1  0.87278747  0.12927513  0.75397797  1
  Zn  Zn105  1  0.37367379  0.86735655  0.50871542  1
  Zn  Zn106  1  0.12467477  0.24734945  0.87959245  1
  Zn  Zn107  1  0.18815467  0.18199812  0.18867383  1
  Zn  Zn108  1  0.18774143  0.18778028  0.69129163  1
  Zn  Zn109  1  0.18463252  0.68900809  0.18930401  1
  Zn  Zn110  1  0.18637267  0.68728817  0.69042703  1
  Zn  Zn111  1  0.68465962  0.18955035  0.18304340  1
  Zn  Zn112  1  0.68314526  0.18948698  0.68635540  1
  Zn  Zn113  1  0.68446342  0.69245609  0.18212885  1
  Zn  Zn114  1  0.68506778  0.68564943  0.68483520  1
  Zn  Zn115  1  0.31160380  0.30761202  0.30982229  1
  Zn  Zn116  1  0.31347682  0.30811936  0.81078735  1
  Zn  Zn117  1  0.30500298  0.81323426  0.31566893  1
  Zn  Zn118  1  0.31381971  0.80872706  0.81483826  1
  Zn  Zn119  1  0.81347496  0.30902860  0.31062659  1
  Zn  Zn120  1  0.81331882  0.31794363  0.81881132  1
  Zn  Zn121  1  0.82360957  0.81584115  0.32218670  1
  Zn  Zn122  1  0.81070738  0.81435330  0.81376662  1
  Zn  Zn123  1  0.18544041  0.43408142  0.43548499  1
  Zn  Zn124  1  0.19407871  0.42869499  0.93186932  1
  Zn  Zn125  1  0.18558509  0.93527805  0.44379217  1
  Zn  Zn126  1  0.18652801  0.93674345  0.93903461  1
  Zn  Zn127  1  0.68510645  0.43615944  0.43376866  1
  Zn  Zn128  1  0.68696968  0.44139811  0.93458964  1
  Zn  Zn129  1  0.69164730  0.93617179  0.42721921  1
  Zn  Zn130  1  0.68605022  0.93900633  0.93961755  1
  Zn  Zn131  1  0.31349778  0.05933046  0.06757624  1
  Zn  Zn132  1  0.31332761  0.06142755  0.56529304  1
  Zn  Zn133  1  0.21710580  0.56600434  0.07071509  1
  Zn  Zn134  1  0.31489892  0.55940134  0.56047161  1
  Zn  Zn135  1  0.81035825  0.06470851  0.06081915  1
  Zn  Zn136  1  0.81328542  0.06588698  0.56004608  1
  Zn  Zn137  1  0.80989681  0.56891564  0.05721463  1
  Zn  Zn138  1  0.81650943  0.55948516  0.56400974  1
  Zn  Zn139  1  0.43394795  0.43729420  0.18565483  1
  Zn  Zn140  1  0.44017403  0.43529230  0.68644688  1
  Zn  Zn141  1  0.43781337  0.93803526  0.18877165  1
  Zn  Zn142  1  0.43881922  0.94134222  0.68796860  1
  Zn  Zn143  1  0.91802271  0.46082663  0.16229251  1
  Zn  Zn144  1  0.93849601  0.43880554  0.68391022  1
  Zn  Zn145  1  0.93797969  0.93289772  0.18873250  1
  Zn  Zn146  1  0.93363424  0.94044350  0.69099313  1
  Zn  Zn147  1  0.06199201  0.06480975  0.31495926  1
  Zn  Zn148  1  0.06254938  0.06365523  0.81768801  1
  Zn  Zn149  1  0.02984892  0.54080010  0.27504625  1
  Zn  Zn150  1  0.06327550  0.56146632  0.80339626  1
  Zn  Zn151  1  0.56442190  0.05707949  0.31590672  1
  Zn  Zn152  1  0.56039876  0.06193435  0.81337485  1
  Zn  Zn153  1  0.56268512  0.56380317  0.31081640  1
  Zn  Zn154  1  0.56302464  0.56495196  0.81130117  1
  Zn  Zn155  1  0.43804524  0.18659335  0.43546194  1
  Zn  Zn156  1  0.43292907  0.18277079  0.94353070  1
  Zn  Zn157  1  0.42956801  0.68707102  0.44013992  1
  Zn  Zn158  1  0.43312880  0.68485092  0.93588831  1
  Zn  Zn159  1  0.93824115  0.18858971  0.43706607  1
  Zn  Zn160  1  0.93225663  0.19323943  0.94168115  1
  Zn  Zn161  1  0.93287083  0.68192036  0.42999794  1
  Zn  Zn162  1  0.93337781  0.68847820  0.93533304  1
  Zn  Zn163  1  0.06297407  0.30560119  0.06388348  1
  Zn  Zn164  1  0.05864825  0.31598023  0.56132318  1
  Zn  Zn165  1  0.05148987  0.77738024  0.05030916  1
  Zn  Zn166  1  0.06926333  0.81442291  0.56131579  1
  Zn  Zn167  1  0.56422225  0.31407968  0.06468918  1
  Zn  Zn168  1  0.56026223  0.31512533  0.55916069  1
  Zn  Zn169  1  0.56431236  0.81362752  0.06485552  1
  Zn  Zn170  1  0.56577542  0.81166155  0.55522159  1
  O  O171  1  0.11752756  0.12157769  0.11405913  1
  O  O172  1  0.11536563  0.12230010  0.62720756  1
  O  O173  1  0.13121628  0.62502906  0.11633047  1
  O  O174  1  0.11058731  0.62175181  0.63245690  1
  O  O175  1  0.61457145  0.11738283  0.12352759  1
  O  O176  1  0.62941636  0.11958118  0.60994093  1
  O  O177  1  0.61176424  0.63605520  0.11341762  1
  O  O178  1  0.61533451  0.61540435  0.61894111  1
  O  O179  1  0.37820094  0.37708525  0.37792587  1
  O  O180  1  0.37021599  0.38719647  0.87275233  1
  O  O181  1  0.37744907  0.88153522  0.38091647  1
  O  O182  1  0.38333648  0.87062229  0.88539606  1
  O  O183  1  0.87780852  0.37284241  0.38658731  1
  O  O184  1  0.88618706  0.38568439  0.88447615  1
  O  O185  1  0.88655062  0.88754784  0.38403899  1
  O  O186  1  0.87943632  0.88227612  0.88136208  1
  O  O187  1  0.25455548  0.00184335  0.36857215  1
  O  O188  1  0.24795804  0.00405883  0.86369830  1
  O  O189  1  0.25344767  0.50440689  0.36956209  1
  O  O190  1  0.26106766  0.50043776  0.85852433  1
  O  O191  1  0.76215854  0.01525075  0.38528687  1
  O  O192  1  0.75414455  0.00775303  0.87006065  1
  O  O193  1  0.74800066  0.51162169  0.37486279  1
  O  O194  1  0.75965264  0.49767338  0.85954666  1
  O  O195  1  0.25873040  0.48634803  0.13926861  1
  O  O196  1  0.25435122  0.48723305  0.63146850  1
  O  O197  1  0.25163085  0.99179466  0.14116857  1
  O  O198  1  0.24536945  0.99558503  0.63814501  1
  O  O199  1  0.81218303  0.46593200  0.10375637  1
  O  O200  1  0.74191145  0.49804996  0.63412316  1
  O  O201  1  0.73513328  1.00500476  0.12232703  1
  O  O202  1  0.74495300  0.99507210  0.62841255  1
  O  O203  1  0.01546512  0.35584595  0.24670468  1
  O  O204  1  0.00813230  0.37035321  0.75200548  1
  O  O205  1  -0.00772660  0.85672350  0.25277535  1
  O  O206  1  0.00245519  0.87095300  0.75593109  1
  O  O207  1  0.50216713  0.37746173  0.25953915  1
  O  O208  1  0.50464861  0.35963917  0.74700507  1
  O  O209  1  0.49236386  0.86251253  0.26049987  1
  O  O210  1  0.50363863  0.87193261  0.75590792  1
  O  O211  1  0.49886194  0.11881064  0.23993453  1
  O  O212  1  0.49208047  0.13521765  0.75495558  1
  O  O213  1  0.49306602  0.63610564  0.24630075  1
  O  O214  1  0.49344905  0.63031710  0.74191026  1
  O  O215  1  1.00109783  0.12579102  0.23770311  1
  O  O216  1  0.99862080  0.13491498  0.74670074  1
  O  O217  1  1.00047505  0.64608611  0.24604213  1
  O  O218  1  0.99308864  0.63313597  0.74107122  1
  O  O219  1  0.36856354  0.24666581  0.01416555  1
  O  O220  1  0.37751521  0.25527113  0.50723515  1
  O  O221  1  0.37051662  0.76143086  0.00594590  1
  O  O222  1  0.35793558  0.75057416  0.50163197  1
  O  O223  1  0.86030166  0.26220542  -0.00058820  1
  O  O224  1  0.86679488  0.25688094  0.50088871  1
  O  O225  1  0.86380231  0.75781895  0.00359232  1
  O  O226  1  0.86436857  0.75037188  0.50137848  1
  O  O227  1  0.11869767  0.25176422  0.48613449  1
  O  O228  1  0.13035262  0.23414268  0.99808127  1
  O  O229  1  0.14150464  0.74860783  0.50335715  1
  O  O230  1  0.14583210  0.75906267  0.98783684  1
  O  O231  1  0.62968472  0.24492580  0.49323591  1
  O  O232  1  0.64025115  0.24925014  1.00314415  1
  O  O233  1  0.63853113  0.74906683  0.48278369  1
  O  O234  1  0.62895051  0.74760665  0.99259661  1
  O  O235  1  0.49619944  0.23134363  0.12122612  1
  O  O236  1  0.49064949  0.25054029  0.62819361  1
  O  O237  1  0.49376109  0.74900057  0.13431969  1
  O  O238  1  0.50957881  0.74061742  0.63091145  1
  O  O239  1  1.00636749  0.23422647  0.13646508  1
  O  O240  1  0.99893797  0.24413222  0.63253320  1
  O  O241  1  0.98342648  0.75340515  0.14012538  1
  O  O242  1  0.99870448  0.74480092  0.62848758  1
  O  O243  1  0.00573537  0.25452003  0.36398778  1
  O  O244  1  0.00027812  0.25950497  0.86867739  1
  O  O245  1  -0.00126165  0.74900220  0.36398312  1
  O  O246  1  0.00310890  0.75968067  0.86398043  1
  O  O247  1  0.50869159  0.25838790  0.37825466  1
  O  O248  1  0.49458467  0.24747546  0.86615429  1
  O  O249  1  0.49327457  0.75610747  0.36914957  1
  O  O250  1  0.50390562  0.75975170  0.86792970  1
  O  O251  1  0.24759001  0.11731017  0.48711933  1
  O  O252  1  0.24319987  0.11880943  0.99531712  1
  O  O253  1  0.25278017  0.62782091  0.49341793  1
  O  O254  1  0.26982657  0.63926301  0.99483670  1
  O  O255  1  0.74336125  0.13452805  0.49291371  1
  O  O256  1  0.74836343  0.13745111  0.99202026  1
  O  O257  1  0.74246714  0.63162196  0.50878492  1
  O  O258  1  0.73905389  0.64074178  1.00335794  1
  O  O259  1  0.25283838  0.37189567  0.01267371  1
  O  O260  1  0.26184205  0.37760603  0.50625930  1
  O  O261  1  0.25913061  0.87347961  0.00604109  1
  O  O262  1  0.25274112  0.86892869  0.51509342  1
  O  O263  1  0.75154531  0.36609798  -0.00778300  1
  O  O264  1  0.75595782  0.36858472  0.49990691  1
  O  O265  1  0.75730790  0.86464381  -0.00728213  1
  O  O266  1  0.75061199  0.86684752  0.50689394  1
  O  O267  1  0.13303997  0.48629387  0.25434486  1
  O  O268  1  0.13688798  0.49073925  0.74348530  1
  O  O269  1  0.13530199  0.99752529  0.25530164  1
  O  O270  1  0.13291643  0.99707754  0.74778329  1
  O  O271  1  0.62272184  0.48808178  0.25135131  1
  O  O272  1  0.63008844  0.49646999  0.74371919  1
  O  O273  1  0.62475478  0.99927873  0.24001076  1
  O  O274  1  0.62801943  0.99525322  0.74219269  1
  O  O275  1  0.37097285  -0.00119889  0.26450645  1
  O  O276  1  0.36988482  0.01234181  0.74729636  1
  O  O277  1  0.36411247  0.50169383  0.26055556  1
  O  O278  1  0.37242666  0.50655195  0.75249591  1
  O  O279  1  0.87984098  0.00115726  0.26467240  1
  O  O280  1  0.86473548  0.00258280  0.76201497  1
  O  O281  1  0.93086669  0.47354495  0.27491581  1
  O  O282  1  0.86802552  0.50507059  0.75217499  1
  O  O283  1  0.12046015  0.36759112  0.36309104  1
  O  O284  1  0.12441593  0.37195126  0.85900535  1
  O  O285  1  0.11757170  0.87076068  0.38600017  1
  O  O286  1  0.11610998  0.87118881  0.87122798  1
  O  O287  1  0.61551952  0.36774734  0.36945439  1
  O  O288  1  0.62299118  0.38209559  0.86048026  1
  O  O289  1  0.59686583  0.87423693  0.39410226  1
  O  O290  1  0.61677889  0.86693748  0.86999140  1
  O  O291  1  0.38662580  0.12607489  0.12905778  1
  O  O292  1  0.36855456  0.13368136  0.63675231  1
  O  O293  1  0.38183495  0.64389344  0.13353782  1
  O  O294  1  0.38827034  0.61760956  0.63124760  1
  O  O295  1  0.88877450  0.12576160  0.12202502  1
  O  O296  1  0.88617410  0.12782235  0.63023551  1
  O  O297  1  0.87161168  0.64416841  0.12114646  1
  O  O298  1  0.88523922  0.62528370  0.63489047  1
  O  O299  1  0.25798520  0.25484474  0.12841188  1
  O  O300  1  0.26035805  0.25921535  0.63247545  1
  O  O301  1  0.25823560  0.75862424  0.11924936  1
  O  O302  1  0.24738697  0.75757877  0.62386422  1
  O  O303  1  0.75612026  0.24530247  0.11097761  1
  O  O304  1  0.74953152  0.25206206  0.61277472  1
  O  O305  1  0.75749514  0.75577748  0.11771619  1
  O  O306  1  0.74773216  0.75823959  0.61719962  1
  O  O307  1  0.24076093  0.23868208  0.36969769  1
  O  O308  1  0.24798979  0.23856648  0.87606334  1
  O  O309  1  0.24965106  0.73846701  0.38387472  1
  O  O310  1  0.24793843  0.73835433  0.88195861  1
  O  O311  1  0.74255217  0.24469397  0.38492031  1
  O  O312  1  0.75415159  0.24139196  0.88199574  1
  O  O313  1  0.75292846  0.72941766  0.38241345  1
  O  O314  1  0.73797664  0.75406153  0.88132898  1
  O  O315  1  0.00883280  0.12838907  0.01109049  1
  O  O316  1  0.00160246  0.11849521  0.51119221  1
  O  O317  1  0.01468070  0.66151535  0.00646069  1
  O  O318  1  -0.00679150  0.61292135  0.50574063  1
  O  O319  1  0.50091759  0.11447097  0.00735528  1
  O  O320  1  0.50940662  0.11480740  0.49264227  1
  O  O321  1  0.50492298  0.62732977  0.00761667  1
  O  O322  1  0.50590086  0.62526812  0.50506461  1
  O  O323  1  0.48746056  0.37718291  0.49001792  1
  O  O324  1  0.49716919  0.38066147  1.00814503  1
  O  O325  1  0.49039516  0.88104850  0.49865312  1
  O  O326  1  0.49422542  0.87859568  0.99384713  1
  O  O327  1  0.99299798  0.38544285  0.49209152  1
  O  O328  1  1.02744602  0.38002819  0.98228150  1
  O  O329  1  0.99815440  0.89254643  0.51272430  1
  O  O330  1  0.98961697  0.86359702  0.98720060  1
  O  O331  1  0.48959033  0.49340009  0.37445306  1
  O  O332  1  0.48688843  0.50567843  0.87340835  1
  O  O333  1  0.49050317  0.99334759  0.38340755  1
  O  O334  1  0.50523407  0.98650259  0.88380945  1
  O  O335  1  1.01421073  0.49930805  0.39134906  1
  O  O336  1  0.99366724  0.49226069  0.86281493  1
  O  O337  1  0.99395888  1.00569198  0.38726479  1
  O  O338  1  0.98845382  0.99034695  0.86891453  1
  O  O339  1  -0.00185063  0.00988809  0.12677213  1
  O  O340  1  0.00387128  0.00999313  0.62563694  1
  O  O341  1  0.00423501  0.51756125  0.11250792  1
  O  O342  1  0.00245098  0.50691665  0.61408728  1
  O  O343  1  0.50524269  0.00788921  0.12089547  1
  O  O344  1  0.50604911  -0.00386128  0.61155493  1
  O  O345  1  0.48893531  0.51830831  0.12519911  1
  O  O346  1  0.50744929  0.50727291  0.62225530  1
  O  O347  1  0.24529211  0.37975303  0.24450176  1
  O  O348  1  0.24605187  0.37835084  0.74154560  1
  O  O349  1  0.25067716  0.88558257  0.24266908  1
  O  O350  1  0.24684095  0.88134651  0.75044557  1
  O  O351  1  0.74034854  0.37757363  0.25792865  1
  O  O352  1  0.74132956  0.38069135  0.74712496  1
  O  O353  1  0.72016457  0.86165801  0.32592598  1
  O  O354  1  0.74234871  0.88086844  0.74245274  1
  O  O355  1  0.25010750  0.10918947  0.25923280  1
  O  O356  1  0.25633699  0.11834267  0.75776376  1
  O  O357  1  0.25372579  0.61639463  0.25703297  1
  O  O358  1  0.25822748  0.61339214  0.74737899  1
  O  O359  1  0.75071628  0.13377562  0.26263751  1
  O  O360  1  0.74990082  0.12329310  0.75655535  1
  O  O361  1  0.74358958  0.62205785  0.25346815  1
  O  O362  1  0.75824052  0.61703749  0.74271720  1
  O  O363  1  0.36712907  0.11771789  0.37362912  1
  O  O364  1  0.36277959  0.12617513  0.86730007  1
  O  O365  1  0.36893826  0.61485073  0.36912186  1
  O  O366  1  0.36384503  0.61414418  0.86659256  1
  O  O367  1  0.86744725  0.12128207  0.37343655  1
  O  O368  1  0.86754918  0.11816842  0.87615946  1
  O  O369  1  0.85520070  0.61783266  0.37296567  1
  O  O370  1  0.88187625  0.61941311  0.85814226  1
  O  O371  1  0.13629291  0.36491298  0.13545705  1
  O  O372  1  0.13398339  0.37179346  0.63228215  1
  O  O373  1  0.13366570  0.86294327  0.11275633  1
  O  O374  1  0.13522712  0.88271022  0.63480655  1
  O  O375  1  0.62599877  0.36887846  0.14446134  1
  O  O376  1  0.62248925  0.38736566  0.62958303  1
  O  O377  1  0.62231586  0.88882237  0.12593322  1
  O  O378  1  0.63405201  0.88049254  0.62670112  1
  O  O379  1  0.12240975  0.25048318  0.25901937  1
  O  O380  1  0.11405294  0.25608329  0.75221838  1
  O  O381  1  0.11740533  0.75573460  0.25437115  1
  O  O382  1  0.11942114  0.75958626  0.75495901  1
  O  O383  1  0.62871592  0.25547420  0.26195113  1
  O  O384  1  0.61018189  0.25599215  0.74673570  1
  O  O385  1  0.61568830  0.74712443  0.26161827  1
  O  O386  1  0.62034998  0.75513522  0.75609037  1
  O  O387  1  0.37378568  0.24330317  0.23783831  1
  O  O388  1  0.38685448  0.24338761  0.74414828  1
  O  O389  1  0.37769473  0.74853943  0.24509265  1
  O  O390  1  0.37972807  0.73469030  0.75424765  1
  O  O391  1  0.88606480  0.24553698  0.24574836  1
  O  O392  1  0.88631875  0.25450038  0.74904531  1
  O  O393  1  0.86544814  0.75486272  0.23790767  1
  O  O394  1  0.87760242  0.74398865  0.74725028  1
  O  O395  1  0.37533024  0.49126571  0.48634797  1
  O  O396  1  0.37492190  0.49855046  0.98017724  1
  O  O397  1  0.38118860  1.00006615  0.49187543  1
  O  O398  1  0.38652755  0.98840694  1.00763334  1
  O  O399  1  0.88476850  0.49258219  0.49520724  1
  O  O400  1  0.87471869  0.50456874  0.97747287  1
  O  O401  1  0.88405030  1.00264690  0.49429816  1
  O  O402  1  0.86728949  0.99177883  0.98868180  1
  O  O403  1  0.12320897  0.01405760  -0.00616808  1
  O  O404  1  0.11815044  0.00580091  0.51276489  1
  O  O405  1  0.16244274  0.52975342  -0.02851796  1
  O  O406  1  0.11346243  0.49207804  0.50648239  1
  O  O407  1  0.61341073  -0.00028246  0.00770011  1
  O  O408  1  0.61824000  0.00752615  0.50033113  1
  O  O409  1  0.62599447  0.51799704  -0.00684853  1
  O  O410  1  0.62260060  0.50445765  0.50702902  1
  O  O411  1  0.36857407  0.36370429  0.12691479  1
  O  O412  1  0.37149763  0.36669171  0.61600100  1
  O  O413  1  0.37253640  0.86724721  0.11915096  1
  O  O414  1  0.36103898  0.87913727  0.63143179  1
  O  O415  1  0.91659778  0.36107958  0.09753147  1
  O  O416  1  0.87377988  0.37383478  0.61188357  1
  O  O417  1  0.87624046  0.86933744  0.11199645  1
  O  O418  1  0.86083244  0.87504266  0.62527498  1
  O  O419  1  0.13099560  0.13339973  0.37854663  1
  O  O420  1  0.13478172  0.12498333  0.88400629  1
  O  O421  1  0.13580303  0.62763835  0.37199174  1
  O  O422  1  0.13705055  0.63360053  0.85675571  1
  O  O423  1  0.63041861  0.13115578  0.38200800  1
  O  O424  1  0.63670460  0.11864640  0.87881441  1
  O  O425  1  0.63704714  0.62476525  0.37955751  1
  O  O426  1  0.61587932  0.64033194  0.88153575  1
