# generated using pymatgen
data_V85Zn86O256
_symmetry_space_group_name_H-M   'P 1'
_cell_length_a   16.93256140
_cell_length_b   16.93713465
_cell_length_c   16.93215940
_cell_angle_alpha   89.95028388
_cell_angle_beta   90.09540082
_cell_angle_gamma   89.93957610
_symmetry_Int_Tables_number   1
_chemical_formula_structural   V85Zn86O256
_chemical_formula_sum   'V85 Zn86 O256'
_cell_volume   4855.94702181
_cell_formula_units_Z   1
loop_
 _symmetry_equiv_pos_site_id
 _symmetry_equiv_pos_as_xyz
  1  'x, y, z'
loop_
 _atom_site_type_symbol
 _atom_site_label
 _atom_site_symmetry_multiplicity
 _atom_site_fract_x
 _atom_site_fract_y
 _atom_site_fract_z
 _atom_site_occupancy
  V  V0  1  0.24298402  0.12395818  0.88062315  1
  V  V1  1  0.00001055  0.87567924  0.37184348  1
  V  V2  1  0.75108577  0.74420082  0.50136974  1
  V  V3  1  0.62189098  0.13642587  -0.00285266  1
  V  V4  1  0.37345323  0.12309509  0.74471244  1
  V  V5  1  0.24332257  0.87398835  0.62248759  1
  V  V6  1  0.25291155  0.12767109  0.35941061  1
  V  V7  1  0.61969071  0.75514471  0.37914388  1
  V  V8  1  0.49483028  0.74988484  0.74975650  1
  V  V9  1  0.62611648  0.51277662  0.62406683  1
  V  V10  1  0.49625108  0.62742204  0.62087015  1
  V  V11  1  0.88185662  0.74976324  0.63359302  1
  V  V12  1  0.00945261  0.12121722  0.62465377  1
  V  V13  1  0.12365212  0.01153399  0.12204465  1
  V  V14  1  0.12504971  0.62672786  -0.00055862  1
  V  V15  1  0.37767486  0.25353737  0.12172994  1
  V  V16  1  0.75005189  0.63057322  0.88099770  1
  V  V17  1  0.62651808  0.00139559  0.12486031  1
  V  V18  1  0.36900603  -0.00322339  0.36494393  1
  V  V19  1  0.87043494  0.00269139  0.87658854  1
  V  V20  1  0.62354097  0.37777462  0.25122969  1
  V  V21  1  0.62357598  0.75007117  0.88440707  1
  V  V22  1  0.50811845  -0.00458693  0.49399288  1
  V  V23  1  0.37409047  0.24477705  0.62155608  1
  V  V24  1  0.74403593  0.62222011  0.37873494  1
  V  V25  1  0.75213232  0.37806372  0.62315522  1
  V  V26  1  0.25746360  0.38190784  0.12477463  1
  V  V27  1  0.37378045  0.62490701  0.74376288  1
  V  V28  1  0.37313199  0.87469071  -0.00016506  1
  V  V29  1  0.49631647  0.24612653  0.25437015  1
  V  V30  1  0.37709896  0.37431088  0.50402718  1
  V  V31  1  0.00747628  -0.00103958  0.50314722  1
  V  V32  1  0.87415391  0.50141888  0.87678779  1
  V  V33  1  0.35955680  0.62273485  0.25431473  1
  V  V34  1  0.37501264  0.87602523  0.50202083  1
  V  V35  1  0.23923873  -0.00192647  0.74368762  1
  V  V36  1  0.12890713  0.12995756  0.49208653  1
  V  V37  1  0.12748888  0.88113176  0.24733152  1
  V  V38  1  0.74667148  0.50080869  0.24914556  1
  V  V39  1  0.00135776  0.01265163  0.00331640  1
  V  V40  1  0.12224770  0.62077317  0.49403185  1
  V  V41  1  0.87636899  0.62746086  0.24993922  1
  V  V42  1  0.12175695  0.74865391  0.86268296  1
  V  V43  1  0.25301418  0.49526883  0.75350642  1
  V  V44  1  0.87383786  0.37596153  0.00359210  1
  V  V45  1  0.48399939  0.49882792  -0.00919696  1
  V  V46  1  0.49408675  0.12374605  0.13012499  1
  V  V47  1  0.50016740  0.37517082  0.37894455  1
  V  V48  1  0.00518663  0.62677566  0.63148219  1
  V  V49  1  0.00168355  0.25032217  0.74971124  1
  V  V50  1  0.50554055  0.50268655  0.49991480  1
  V  V51  1  0.74448964  0.13547430  0.87366648  1
  V  V52  1  0.36379309  0.50300832  0.37323482  1
  V  V53  1  0.87964937  0.12575633  0.25559517  1
  V  V54  1  0.87064458  0.86930215  -0.00069671  1
  V  V55  1  0.00063197  0.37543326  0.87663552  1
  V  V56  1  0.62671658  0.23812151  0.38296154  1
  V  V57  1  0.51283927  0.11365756  0.61976654  1
  V  V58  1  0.50167049  0.61717731  0.13037404  1
  V  V59  1  0.25445793  0.74281402  0.50208919  1
  V  V60  1  0.88157802  0.24446604  0.12550964  1
  V  V61  1  0.12998418  0.36791796  0.25044431  1
  V  V62  1  0.74869525  0.24236515  0.49677588  1
  V  V63  1  0.00180240  0.50023429  0.00295143  1
  V  V64  1  -0.00164403  0.87193336  0.87036571  1
  V  V65  1  0.37634347  0.75113340  0.12747372  1
  V  V66  1  0.37072047  -0.00122044  0.87414936  1
  V  V67  1  0.74860639  0.37492609  0.12768185  1
  V  V68  1  0.24904402  0.88203752  0.12669034  1
  V  V69  1  0.49971314  0.87569304  0.87373706  1
  V  V70  1  0.74813197  0.87035144  0.12262110  1
  V  V71  1  0.87710225  0.87273045  0.50041790  1
  V  V72  1  0.12192868  0.49653639  0.61981617  1
  V  V73  1  0.87895673  0.38336619  0.49662996  1
  V  V74  1  0.75003572  0.50805052  0.75090308  1
  V  V75  1  0.62648745  0.61595295  0.00682361  1
  V  V76  1  0.12707712  0.37200385  0.75265290  1
  V  V77  1  0.49959290  0.00103719  0.00048071  1
  V  V78  1  0.74826036  0.00633664  0.25716544  1
  V  V79  1  0.12890964  0.50355400  0.13562305  1
  V  V80  1  0.87591665  0.12571886  0.74716442  1
  V  V81  1  0.24558835  0.25050145  0.00293458  1
  V  V82  1  0.25698156  0.62271991  0.87577591  1
  V  V83  1  0.00981605  0.37431588  0.37898594  1
  V  V84  1  0.13141700  0.74713296  0.37158132  1
  Zn  Zn85  1  0.12252631  0.24680295  0.88431180  1
  Zn  Zn86  1  0.73638210  0.00403691  0.73808500  1
  Zn  Zn87  1  0.49846918  0.35873149  0.88719567  1
  Zn  Zn88  1  0.74496304  0.25631315  -0.00272529  1
  Zn  Zn89  1  -0.00099927  0.62923224  0.12549302  1
  Zn  Zn90  1  0.62331882  0.88077315  0.74308239  1
  Zn  Zn91  1  0.00564103  0.24532915  0.25115794  1
  Zn  Zn92  1  0.74228965  0.88432095  0.62309049  1
  Zn  Zn93  1  0.88158785  0.50326577  0.37720924  1
  Zn  Zn94  1  -0.00114692  0.75125355  0.24505118  1
  Zn  Zn95  1  0.87296338  0.74825048  0.12122926  1
  Zn  Zn96  1  0.51558960  0.24419809  0.75986961  1
  Zn  Zn97  1  0.24796040  0.75251398  -0.00192930  1
  Zn  Zn98  1  0.11325768  0.87460216  0.73983063  1
  Zn  Zn99  1  0.87939858  0.25184361  0.61957821  1
  Zn  Zn100  1  0.24946676  0.36991083  0.62387988  1
  Zn  Zn101  1  0.49843268  0.75120107  0.25746662  1
  Zn  Zn102  1  0.62795328  0.36807704  0.76206234  1
  Zn  Zn103  1  0.88268075  0.62992429  0.75543873  1
  Zn  Zn104  1  0.24850362  0.24963496  0.49188821  1
  Zn  Zn105  1  0.87189201  0.00627050  0.37880929  1
  Zn  Zn106  1  0.62167693  0.87699401  0.25501826  1
  Zn  Zn107  1  0.19092992  0.18894529  0.18707363  1
  Zn  Zn108  1  0.18905516  0.18634676  0.68513829  1
  Zn  Zn109  1  0.18735516  0.69411677  0.18555853  1
  Zn  Zn110  1  0.19031682  0.68754187  0.68317764  1
  Zn  Zn111  1  0.68721038  0.18877119  0.19027232  1
  Zn  Zn112  1  0.69488010  0.18161876  0.67801797  1
  Zn  Zn113  1  0.68671787  0.68892547  0.19009293  1
  Zn  Zn114  1  0.67076546  0.71639069  0.67407036  1
  Zn  Zn115  1  0.31439480  0.31315456  0.31052805  1
  Zn  Zn116  1  0.32072493  0.30857807  0.81952845  1
  Zn  Zn117  1  0.31167766  0.81494825  0.31284335  1
  Zn  Zn118  1  0.31000493  0.81040363  0.80982566  1
  Zn  Zn119  1  0.81559324  0.31093026  0.31667508  1
  Zn  Zn120  1  0.81266015  0.31487992  0.80961817  1
  Zn  Zn121  1  0.80843731  0.81354597  0.31169073  1
  Zn  Zn122  1  0.80641942  0.81485843  0.81096360  1
  Zn  Zn123  1  0.18879999  0.43572144  0.43795592  1
  Zn  Zn124  1  0.19153262  0.43751920  0.94103729  1
  Zn  Zn125  1  0.18913586  0.94012639  0.43591948  1
  Zn  Zn126  1  0.18331738  0.93664897  0.93761233  1
  Zn  Zn127  1  0.68688622  0.43505396  0.43793549  1
  Zn  Zn128  1  0.68003050  0.43856937  0.93779595  1
  Zn  Zn129  1  0.69259750  0.93475253  0.43963173  1
  Zn  Zn130  1  0.68584701  0.94245259  0.93366738  1
  Zn  Zn131  1  0.31214239  0.06412050  0.06506537  1
  Zn  Zn132  1  0.30993857  0.05717310  0.55840765  1
  Zn  Zn133  1  0.31177278  0.56574959  0.06545602  1
  Zn  Zn134  1  0.31040893  0.55891324  0.56377207  1
  Zn  Zn135  1  0.81033609  0.06408496  0.06381452  1
  Zn  Zn136  1  0.81888444  0.06153153  0.56258193  1
  Zn  Zn137  1  0.81009514  0.56110238  0.06587585  1
  Zn  Zn138  1  0.81844749  0.56561617  0.56328735  1
  Zn  Zn139  1  0.43741006  0.43997175  0.18982317  1
  Zn  Zn140  1  0.42654335  0.41790249  0.72462287  1
  Zn  Zn141  1  0.44215537  0.93313460  0.19137155  1
  Zn  Zn142  1  0.43271413  0.93582351  0.68328902  1
  Zn  Zn143  1  0.93989209  0.43911273  0.19222935  1
  Zn  Zn144  1  0.93838106  0.44189867  0.68738105  1
  Zn  Zn145  1  0.93615325  0.94056584  0.18554871  1
  Zn  Zn146  1  0.93136995  0.94113737  0.68601637  1
  Zn  Zn147  1  0.06323043  0.06163614  0.31195254  1
  Zn  Zn148  1  0.06103653  0.06053528  0.81578065  1
  Zn  Zn149  1  0.06106357  0.55996327  0.31396649  1
  Zn  Zn150  1  0.06584517  0.55975428  0.81235362  1
  Zn  Zn151  1  0.55968694  0.05973212  0.31526566  1
  Zn  Zn152  1  0.56019863  0.06532496  0.81250544  1
  Zn  Zn153  1  0.56051201  0.56452275  0.31409253  1
  Zn  Zn154  1  0.56492871  0.56064716  0.81284124  1
  Zn  Zn155  1  0.43598980  0.18135062  0.43864006  1
  Zn  Zn156  1  0.43072347  0.18654385  0.93863683  1
  Zn  Zn157  1  0.43353868  0.68541773  0.43775999  1
  Zn  Zn158  1  0.43693221  0.68515532  0.94036226  1
  Zn  Zn159  1  0.93796086  0.19348474  0.43557311  1
  Zn  Zn160  1  0.93366657  0.19122893  0.93750673  1
  Zn  Zn161  1  0.94109911  0.68667222  0.43690409  1
  Zn  Zn162  1  0.93939128  0.68960629  0.93852809  1
  Zn  Zn163  1  0.06465567  0.31368031  0.06678949  1
  Zn  Zn164  1  0.06334323  0.30955724  0.56104615  1
  Zn  Zn165  1  0.05806770  0.81421631  0.05928508  1
  Zn  Zn166  1  0.06467823  0.80827986  0.55942909  1
  Zn  Zn167  1  0.56080316  0.31944266  0.06549061  1
  Zn  Zn168  1  0.56792260  0.30891846  0.61051727  1
  Zn  Zn169  1  0.56068262  0.81111658  0.06558595  1
  Zn  Zn170  1  0.56055383  0.81075363  0.55888096  1
  O  O171  1  0.13062341  0.11073249  0.12935358  1
  O  O172  1  0.11481231  0.12627038  0.61718460  1
  O  O173  1  0.12663893  0.62035890  0.11736051  1
  O  O174  1  0.12131487  0.61763451  0.61915668  1
  O  O175  1  0.61649220  0.12012696  0.11962114  1
  O  O176  1  0.61068946  0.11914181  0.62202645  1
  O  O177  1  0.61416197  0.63455487  0.11893177  1
  O  O178  1  0.61883681  0.61923842  0.62845558  1
  O  O179  1  0.38215961  0.38080171  0.38174143  1
  O  O180  1  0.39865847  0.38433131  0.83472926  1
  O  O181  1  0.36613974  0.88729478  0.38537216  1
  O  O182  1  0.37825668  0.87938397  0.87901595  1
  O  O183  1  0.88487133  0.37928263  0.38074989  1
  O  O184  1  0.87951045  0.38072373  0.88267903  1
  O  O185  1  0.88316014  0.87245073  0.38472493  1
  O  O186  1  0.87683671  0.88382255  0.88045215  1
  O  O187  1  0.26133509  0.00757874  0.37557293  1
  O  O188  1  0.25345036  0.00479259  0.87063451  1
  O  O189  1  0.26468619  0.49752549  0.37845035  1
  O  O190  1  0.24196577  0.50982843  0.86516655  1
  O  O191  1  0.75316469  -0.00578072  0.36201985  1
  O  O192  1  0.76251689  0.01268035  0.87754817  1
  O  O193  1  0.75190321  0.50551248  0.36669305  1
  O  O194  1  0.75377063  0.50896143  0.87050209  1
  O  O195  1  0.24226964  0.49262594  0.11967533  1
  O  O196  1  0.23791290  0.49677156  0.63424878  1
  O  O197  1  0.24153213  0.98942424  0.11786926  1
  O  O198  1  0.25081581  0.99035105  0.63351585  1
  O  O199  1  0.75277902  0.48824716  0.13961979  1
  O  O200  1  0.74841851  0.50237073  0.63301626  1
  O  O201  1  0.74268243  0.99549207  0.13289298  1
  O  O202  1  0.75622247  0.99715388  0.62487381  1
  O  O203  1  0.01091430  0.37352457  0.25762929  1
  O  O204  1  0.00704125  0.37163114  0.75554529  1
  O  O205  1  0.00344824  0.87399646  0.25710657  1
  O  O206  1  -0.00259439  0.88519886  0.76505198  1
  O  O207  1  0.50743756  0.36988230  0.25594384  1
  O  O208  1  0.51825042  0.35847060  0.71140015  1
  O  O209  1  0.50974195  0.86282655  0.24202671  1
  O  O210  1  0.49625158  0.86515788  0.75354138  1
  O  O211  1  0.50593111  0.13415532  0.24202948  1
  O  O212  1  0.49062251  0.12179147  0.73524851  1
  O  O213  1  0.49435520  0.63042913  0.24324297  1
  O  O214  1  0.48989233  0.62632018  0.74574479  1
  O  O215  1  0.98571239  0.12540101  0.25076093  1
  O  O216  1  0.99775897  0.12864494  0.74398490  1
  O  O217  1  0.99024774  0.62694779  0.24934251  1
  O  O218  1  1.00278778  0.62131498  0.73776325  1
  O  O219  1  0.36599224  0.24776797  0.01470575  1
  O  O220  1  0.37472415  0.25712185  0.50394259  1
  O  O221  1  0.37222623  0.75603563  0.00874859  1
  O  O222  1  0.36157420  0.75857569  0.48893985  1
  O  O223  1  0.87021700  0.25773065  0.00845919  1
  O  O224  1  0.86770078  0.26351402  0.49826226  1
  O  O225  1  0.87520777  0.76563944  -0.00189339  1
  O  O226  1  0.87308974  0.75585616  0.50453041  1
  O  O227  1  0.12642091  0.23492851  0.49942894  1
  O  O228  1  0.13945658  0.25190803  1.00381147  1
  O  O229  1  0.13380016  0.74212877  0.49086754  1
  O  O230  1  0.12460341  0.73791363  0.99349175  1
  O  O231  1  0.64175682  0.25698943  0.49776861  1
  O  O232  1  0.62522808  0.23957997  1.00987730  1
  O  O233  1  0.63741648  0.74887021  0.48916721  1
  O  O234  1  0.61501072  0.73895568  0.98947746  1
  O  O235  1  0.49516966  0.24525174  0.13188535  1
  O  O236  1  0.48524849  0.22558336  0.61305266  1
  O  O237  1  0.48572282  0.74094485  0.12235738  1
  O  O238  1  0.50177926  0.73559383  0.63388450  1
  O  O239  1  0.98557950  0.25702621  0.12864585  1
  O  O240  1  0.99913068  0.24298044  0.63256926  1
  O  O241  1  0.99374526  0.74859242  0.12624741  1
  O  O242  1  0.99468871  0.74052576  0.62140637  1
  O  O243  1  -0.00332755  0.26759365  0.36842855  1
  O  O244  1  0.00273279  0.25625471  0.86951746  1
  O  O245  1  0.01161544  0.76181210  0.37567975  1
  O  O246  1  0.00813199  0.75918396  0.87729560  1
  O  O247  1  0.50301027  0.25404607  0.37148386  1
  O  O248  1  0.49599046  0.24320557  0.87083895  1
  O  O249  1  0.51711335  0.74183980  0.38071003  1
  O  O250  1  0.50182555  0.75548876  0.87157139  1
  O  O251  1  0.24111375  0.12289735  0.49201088  1
  O  O252  1  0.25547480  0.13340068  0.99103295  1
  O  O253  1  0.23947325  0.63346718  0.50696355  1
  O  O254  1  0.24306944  0.62645339  0.99138845  1
  O  O255  1  0.76260794  0.14404480  0.50294299  1
  O  O256  1  0.74033057  0.12818201  0.99234887  1
  O  O257  1  0.75811860  0.63025096  0.48926629  1
  O  O258  1  0.74106595  0.61998053  0.99348065  1
  O  O259  1  0.24908435  0.36758535  0.01321980  1
  O  O260  1  0.26348666  0.37221357  0.50106837  1
  O  O261  1  0.25506603  0.87380179  0.00616971  1
  O  O262  1  0.25242219  0.86917631  0.50542220  1
  O  O263  1  0.75233154  0.37815973  0.01133667  1
  O  O264  1  0.76070138  0.37242146  0.50434669  1
  O  O265  1  0.75983518  0.88753876  0.00793909  1
  O  O266  1  0.76193917  0.86461501  0.50196848  1
  O  O267  1  0.12363604  0.49452399  0.23887772  1
  O  O268  1  0.13188267  0.48871350  0.74466398  1
  O  O269  1  0.11625272  0.98769290  0.23866158  1
  O  O270  1  0.13615154  0.99531659  0.75596152  1
  O  O271  1  0.63285008  0.49047638  0.25757687  1
  O  O272  1  0.63397900  0.50073996  0.74011986  1
  O  O273  1  0.63157572  1.00107473  0.24426151  1
  O  O274  1  0.62472603  0.99264938  0.76091935  1
  O  O275  1  0.38015761  -0.00470900  0.26614377  1
  O  O276  1  0.36572069  0.00633728  0.75395214  1
  O  O277  1  0.37982989  0.51120920  0.26007316  1
  O  O278  1  0.35902776  0.50950194  0.74073284  1
  O  O279  1  0.86916179  0.01177023  0.24996157  1
  O  O280  1  0.87797560  0.01442109  0.76019614  1
  O  O281  1  0.86716963  0.51111375  0.25179026  1
  O  O282  1  0.86895859  0.50362327  0.75936632  1
  O  O283  1  0.11918663  0.37741400  0.36736859  1
  O  O284  1  0.11990907  0.37342950  0.86867555  1
  O  O285  1  0.12029399  0.87202815  0.36598279  1
  O  O286  1  0.11563726  0.86519259  0.87405860  1
  O  O287  1  0.61813254  0.36737942  0.36852834  1
  O  O288  1  0.61230433  0.38048387  0.87297737  1
  O  O289  1  0.63193103  0.85846138  0.37577223  1
  O  O290  1  0.61610881  0.86547134  0.87985425  1
  O  O291  1  0.38754342  0.13184304  0.12407039  1
  O  O292  1  0.37467700  0.12452883  0.62988012  1
  O  O293  1  0.37917809  0.63319731  0.13364684  1
  O  O294  1  0.38061167  0.62228330  0.63518765  1
  O  O295  1  0.86951098  0.13522771  0.13435958  1
  O  O296  1  0.88904892  0.12826811  0.63280655  1
  O  O297  1  0.87390681  0.62772919  0.13364494  1
  O  O298  1  0.88936934  0.63090954  0.62676689  1
  O  O299  1  0.25972733  0.25539975  0.12104087  1
  O  O300  1  0.26152117  0.24696595  0.61827403  1
  O  O301  1  0.26009362  0.76040198  0.12162605  1
  O  O302  1  0.24845749  0.75741681  0.61304491  1
  O  O303  1  0.75800944  0.26269467  0.12733378  1
  O  O304  1  0.75770884  0.26157061  0.61327339  1
  O  O305  1  0.74932304  0.76653419  0.12824374  1
  O  O306  1  0.76630935  0.73750491  0.60994905  1
  O  O307  1  0.25939191  0.23304541  0.37383542  1
  O  O308  1  0.25198564  0.24314190  0.88506822  1
  O  O309  1  0.23687686  0.75554289  0.38185763  1
  O  O310  1  0.24049777  0.74200806  0.87618909  1
  O  O311  1  0.74165322  0.25665582  0.38766517  1
  O  O312  1  0.75492914  0.23946268  0.87631390  1
  O  O313  1  0.74663447  0.74238481  0.38408905  1
  O  O314  1  0.74035387  0.73837486  0.87205603  1
  O  O315  1  -0.00403365  0.11170194  -0.00507995  1
  O  O316  1  0.00404929  0.11939541  0.50376188  1
  O  O317  1  0.00838828  0.61800243  0.00053733  1
  O  O318  1  0.01533212  0.62821618  0.50887608  1
  O  O319  1  0.50440629  0.11993881  0.00808328  1
  O  O320  1  0.49442792  0.10706101  0.50908074  1
  O  O321  1  0.50404702  0.61801713  0.00924007  1
  O  O322  1  0.49084206  0.61642898  0.51014159  1
  O  O323  1  0.48942340  0.38372841  0.50016836  1
  O  O324  1  0.50014481  0.39430022  1.00493786  1
  O  O325  1  0.48937647  0.88419131  0.50666134  1
  O  O326  1  0.49283727  0.88168560  0.99599921  1
  O  O327  1  0.99670300  0.37049599  0.48823848  1
  O  O328  1  0.99641763  0.38083823  0.99607050  1
  O  O329  1  0.99843846  0.88067209  0.49336553  1
  O  O330  1  0.99056049  0.88430496  0.98848122  1
  O  O331  1  0.49470134  0.49561243  0.38419045  1
  O  O332  1  0.49817501  0.51052568  0.89075929  1
  O  O333  1  0.48697021  1.00445365  0.38715957  1
  O  O334  1  0.48926668  0.99613487  0.88079429  1
  O  O335  1  0.99856357  0.48183124  0.37085180  1
  O  O336  1  0.99553184  0.49534768  0.88192767  1
  O  O337  1  0.99809626  0.98855368  0.38035643  1
  O  O338  1  0.99034575  0.99694844  0.88468773  1
  O  O339  1  0.00621099  -0.00456970  0.11024472  1
  O  O340  1  -0.00295216  0.00798600  0.61551520  1
  O  O341  1  0.01024173  0.50203501  0.11879368  1
  O  O342  1  0.01460425  0.50650923  0.62805125  1
  O  O343  1  0.50458551  0.00789700  0.12172574  1
  O  O344  1  0.49390190  0.00661344  0.61317822  1
  O  O345  1  0.49420511  0.51376508  0.11909367  1
  O  O346  1  0.51079945  0.51194036  0.61904264  1
  O  O347  1  0.24369848  0.37170790  0.23819096  1
  O  O348  1  0.24253826  0.37956745  0.75030480  1
  O  O349  1  0.23995797  0.87266922  0.23925258  1
  O  O350  1  0.24995348  0.88120563  0.74034570  1
  O  O351  1  0.74503272  0.38085228  0.24893735  1
  O  O352  1  0.75150440  0.38758064  0.74152539  1
  O  O353  1  0.74800966  0.88587767  0.24047462  1
  O  O354  1  0.74702215  0.88194619  0.74512335  1
  O  O355  1  0.25130307  0.12366017  0.26038455  1
  O  O356  1  0.25437360  0.11570819  0.75372897  1
  O  O357  1  0.26051477  0.62696982  0.24460197  1
  O  O358  1  0.25522021  0.61924511  0.75421688  1
  O  O359  1  0.76001511  0.11621119  0.24548257  1
  O  O360  1  0.75949473  0.12481990  0.75530073  1
  O  O361  1  0.75460833  0.61714825  0.25487944  1
  O  O362  1  0.75243543  0.61550648  0.76039131  1
  O  O363  1  0.36256653  0.11102882  0.38007796  1
  O  O364  1  0.36336775  0.11721495  0.86570981  1
  O  O365  1  0.37744429  0.61717273  0.36451353  1
  O  O366  1  0.36174985  0.63002414  0.86677753  1
  O  O367  1  0.87585807  0.12615115  0.36075404  1
  O  O368  1  0.86919491  0.12089741  0.86863043  1
  O  O369  1  0.86771151  0.62362139  0.36863425  1
  O  O370  1  0.86754230  0.62189640  0.87685428  1
  O  O371  1  0.13274822  0.38462705  0.13206331  1
  O  O372  1  0.12638677  0.37991884  0.63110203  1
  O  O373  1  0.13150938  0.87945124  0.12860827  1
  O  O374  1  0.13594981  0.87061063  0.62466186  1
  O  O375  1  0.63336808  0.36892325  0.14211463  1
  O  O376  1  0.64613454  0.39595261  0.61302795  1
  O  O377  1  0.63184581  0.88577429  0.11938900  1
  O  O378  1  0.63826918  0.83039004  0.63735376  1
  O  O379  1  0.12336888  0.26347680  0.24175446  1
  O  O380  1  0.12303370  0.26099364  0.75010724  1
  O  O381  1  0.12267481  0.76059061  0.25551909  1
  O  O382  1  0.12803652  0.75123661  0.75967353  1
  O  O383  1  0.61667874  0.25619573  0.25940589  1
  O  O384  1  0.62429765  0.25856983  0.71566203  1
  O  O385  1  0.62915634  0.75008165  0.26828355  1
  O  O386  1  0.60667786  0.74159048  0.76906932  1
  O  O387  1  0.38982537  0.25459665  0.24149870  1
  O  O388  1  0.37098547  0.23222827  0.73934235  1
  O  O389  1  0.37443958  0.74258701  0.24530299  1
  O  O390  1  0.38523111  0.74005859  0.75436468  1
  O  O391  1  0.87291103  0.23898005  0.24448655  1
  O  O392  1  0.88191846  0.24008184  0.74935815  1
  O  O393  1  0.87271297  0.73781896  0.25072188  1
  O  O394  1  0.87216166  0.74971948  0.73688462  1
  O  O395  1  0.38217949  0.49379203  0.49658007  1
  O  O396  1  0.38499450  0.50790253  0.99923293  1
  O  O397  1  0.37989791  0.99032048  0.49201440  1
  O  O398  1  0.37945103  0.99485378  0.99519883  1
  O  O399  1  0.87460021  0.48779761  0.49887459  1
  O  O400  1  0.88067327  0.49476415  0.99691636  1
  O  O401  1  0.88762898  0.99106594  0.49599225  1
  O  O402  1  0.88332958  0.99649508  0.99511233  1
  O  O403  1  0.10968739  -0.00336808  0.00492649  1
  O  O404  1  0.11336266  0.00914188  0.49433325  1
  O  O405  1  0.12227622  0.51076520  0.00644055  1
  O  O406  1  0.13171230  0.50754677  0.50787472  1
  O  O407  1  0.61829684  0.01138997  0.00528762  1
  O  O408  1  0.60751256  -0.01010574  0.49193319  1
  O  O409  1  0.61655722  0.51351320  0.00416696  1
  O  O410  1  0.61266854  0.50034816  0.50281865  1
  O  O411  1  0.36834092  0.36794441  0.13072951  1
  O  O412  1  0.37300456  0.36195062  0.62011262  1
  O  O413  1  0.36783426  0.87026210  0.12195313  1
  O  O414  1  0.36191529  0.87689276  0.61048818  1
  O  O415  1  0.86820084  0.37132149  0.12272690  1
  O  O416  1  0.86856592  0.37808481  0.61839042  1
  O  O417  1  0.86622307  0.87724709  0.11596102  1
  O  O418  1  0.88113957  0.86570234  0.61304256  1
  O  O419  1  0.14046638  0.11806299  0.37785062  1
  O  O420  1  0.13877419  0.12796721  0.86955808  1
  O  O421  1  0.12012898  0.63359766  0.38097873  1
  O  O422  1  0.13157475  0.63029328  0.88013674  1
  O  O423  1  0.61959852  0.13905814  0.37557844  1
  O  O424  1  0.63309266  0.12346572  0.88449734  1
  O  O425  1  0.63907360  0.63171746  0.37180672  1
  O  O426  1  0.63174538  0.62875956  0.88507458  1
