# generated using pymatgen
data_V85Zn86O256
_symmetry_space_group_name_H-M   'P 1'
_cell_length_a   16.96055582
_cell_length_b   16.95127842
_cell_length_c   16.95490276
_cell_angle_alpha   90.07020565
_cell_angle_beta   90.02049735
_cell_angle_gamma   90.07722868
_symmetry_Int_Tables_number   1
_chemical_formula_structural   V85Zn86O256
_chemical_formula_sum   'V85 Zn86 O256'
_cell_volume   4874.57876927
_cell_formula_units_Z   1
loop_
 _symmetry_equiv_pos_site_id
 _symmetry_equiv_pos_as_xyz
  1  'x, y, z'
loop_
 _atom_site_type_symbol
 _atom_site_label
 _atom_site_symmetry_multiplicity
 _atom_site_fract_x
 _atom_site_fract_y
 _atom_site_fract_z
 _atom_site_occupancy
  V  V0  1  0.62694876  0.37497238  0.74861846  1
  V  V1  1  0.74846589  0.62578698  0.37221452  1
  V  V2  1  0.13389935  0.49760337  0.62412379  1
  V  V3  1  0.87589907  0.74869238  0.62512407  1
  V  V4  1  0.74815295  0.38013995  0.62621858  1
  V  V5  1  0.25417896  0.12357886  0.37270368  1
  V  V6  1  0.50726870  0.76446505  0.24717006  1
  V  V7  1  0.50223995  0.00235826  0.00172377  1
  V  V8  1  0.50458487  0.87670898  0.39265877  1
  V  V9  1  0.62709937  0.11943115  0.50926491  1
  V  V10  1  0.37264635  0.75557992  0.12310338  1
  V  V11  1  0.87361299  0.12574627  0.75250834  1
  V  V12  1  0.87878764  0.00489486  0.37157982  1
  V  V13  1  0.00132586  0.49691293  0.49787299  1
  V  V14  1  0.88276001  0.13300370  0.25559525  1
  V  V15  1  0.25665774  0.25408640  0.50046308  1
  V  V16  1  0.24978031  0.87237662  0.62783814  1
  V  V17  1  0.48654233  0.24552433  0.74438154  1
  V  V18  1  0.25219346  0.50134798  0.25005471  1
  V  V19  1  0.50999543  0.62916106  0.12249683  1
  V  V20  1  0.23908406  0.62202771  0.86883630  1
  V  V21  1  0.12199512  0.86810651  0.75031045  1
  V  V22  1  0.87568803  0.24716743  0.11680699  1
  V  V23  1  0.00054419  0.38892151  0.88061474  1
  V  V24  1  0.12329572  0.12243240  -0.00181386  1
  V  V25  1  0.12712771  0.62353270  0.49907409  1
  V  V26  1  0.36940662  0.00606310  0.86181051  1
  V  V27  1  0.13413949  -0.00224898  0.12644536  1
  V  V28  1  0.25940888  0.75139241  0.50069787  1
  V  V29  1  0.26391761  0.37735774  0.62665685  1
  V  V30  1  0.24174320  0.74066349  -0.00204680  1
  V  V31  1  0.37959406  0.75078782  0.62781344  1
  V  V32  1  0.87325888  0.25107040  0.62357665  1
  V  V33  1  0.12362018  0.25198429  0.87514560  1
  V  V34  1  0.12887177  0.38610059  0.75009013  1
  V  V35  1  0.12714608  0.74911462  0.37688570  1
  V  V36  1  0.00401607  0.12819904  0.12977271  1
  V  V37  1  0.11975933  0.25051923  0.36927297  1
  V  V38  1  0.00104935  0.62238445  0.62788589  1
  V  V39  1  0.70320035  0.06780095  0.31715846  1
  V  V40  1  0.37662441  0.37648999  -0.00085190  1
  V  V41  1  0.62450677  0.87407061  0.75448326  1
  V  V42  1  0.25380732  0.62246500  0.37364920  1
  V  V43  1  0.61190938  0.37101686  0.24963822  1
  V  V44  1  0.62651305  0.73520453  0.88469770  1
  V  V45  1  0.12622077  0.12200212  0.49912950  1
  V  V46  1  0.74890481  0.49616745  0.24651935  1
  V  V47  1  0.86094442  0.61479082  0.74813325  1
  V  V48  1  0.37623074  -0.00894342  0.38711991  1
  V  V49  1  0.37425199  0.50285215  0.86471084  1
  V  V50  1  0.74656466  0.88366861  0.14151440  1
  V  V51  1  0.61418985  0.25118300  0.37096096  1
  V  V52  1  0.49954078  0.37173246  0.87368894  1
  V  V53  1  0.36743939  0.87603465  0.00060247  1
  V  V54  1  0.74957999  0.36931596  0.11873255  1
  V  V55  1  0.85726083  0.50163166  0.87917430  1
  V  V56  1  0.75184092  0.13174195  0.88672327  1
  V  V57  1  0.50106474  0.50147043  0.48522114  1
  V  V58  1  -0.00097408  0.25446878  0.75074768  1
  V  V59  1  -0.00020780  0.74717145  0.75529437  1
  V  V60  1  0.00251862  0.87525034  0.37464016  1
  V  V61  1  0.25273081  0.24559856  -0.00353712  1
  V  V62  1  0.13768992  0.87542345  0.25217717  1
  V  V63  1  0.75074594  0.00190837  0.75285838  1
  V  V64  1  0.74866506  0.24632494  0.49087969  1
  V  V65  1  0.24765321  0.37738609  0.12209533  1
  V  V66  1  0.87868669  -0.01484259  0.88481951  1
  V  V67  1  0.50516728  0.50641347  -0.00174914  1
  V  V68  1  0.11713271  0.37411285  0.24633899  1
  V  V69  1  0.87419075  0.37390734  0.49781226  1
  V  V70  1  0.74905105  0.74919998  0.49895364  1
  V  V71  1  0.37760767  0.25133398  0.13343492  1
  V  V72  1  0.75185602  0.87622978  0.62774868  1
  V  V73  1  0.75378702  0.75323561  0.00253229  1
  V  V74  1  -0.00072650  0.12037778  0.62672367  1
  V  V75  1  0.17587741  0.03947792  0.68131164  1
  V  V76  1  0.87780481  0.62865825  0.24214950  1
  V  V77  1  0.38331474  0.37717256  0.48063044  1
  V  V78  1  0.50028693  0.87531910  0.87630296  1
  V  V79  1  0.49954161  0.13007927  0.12808960  1
  V  V80  1  0.37906263  0.62405702  0.25111324  1
  V  V81  1  0.11713911  0.50908403  0.11627092  1
  V  V82  1  0.48804080  0.11979119  0.62630730  1
  V  V83  1  0.87606511  0.49785846  0.37313539  1
  V  V84  1  0.87744028  0.87676413  0.49970172  1
  Zn  Zn85  1  0.00102011  0.74753912  0.25285262  1
  Zn  Zn86  1  0.62952493  0.75637698  0.36815675  1
  Zn  Zn87  1  0.25914312  -0.00397322  0.24640683  1
  Zn  Zn88  1  0.61891826  -0.00220879  0.62513022  1
  Zn  Zn89  1  0.62292897  0.50270461  0.62561295  1
  Zn  Zn90  1  0.00527866  -0.00245022  0.50521275  1
  Zn  Zn91  1  0.50161393  0.62109899  0.62546036  1
  Zn  Zn92  1  0.62449304  0.62328578  0.50012844  1
  Zn  Zn93  1  0.62790666  0.13018044  0.00430223  1
  Zn  Zn94  1  -0.00197475  0.62976427  0.11124427  1
  Zn  Zn95  1  0.62634899  0.50106574  0.12083270  1
  Zn  Zn96  1  0.62379574  0.00009652  0.13993213  1
  Zn  Zn97  1  0.62519026  0.24865028  0.87715001  1
  Zn  Zn98  1  0.37459458  0.62350833  0.74792537  1
  Zn  Zn99  1  0.24910073  0.12092602  0.85379432  1
  Zn  Zn100  1  0.88619242  0.77637136  0.10996675  1
  Zn  Zn101  1  0.06175003  0.80839968  0.91889485  1
  Zn  Zn102  1  0.87697251  0.37842572  0.00197905  1
  Zn  Zn103  1  -0.00365218  0.36973487  0.36983102  1
  Zn  Zn104  1  0.37718323  0.12574086  0.25315299  1
  Zn  Zn105  1  0.50050802  0.74463194  0.75158378  1
  Zn  Zn106  1  -0.00086789  -0.02016045  0.00275885  1
  Zn  Zn107  1  0.19117277  0.18873328  0.18674777  1
  Zn  Zn108  1  0.18761420  0.20726546  0.68527230  1
  Zn  Zn109  1  0.18946412  0.68970020  0.18644001  1
  Zn  Zn110  1  0.18809783  0.68569691  0.69009084  1
  Zn  Zn111  1  0.68363147  0.19325351  0.17890353  1
  Zn  Zn112  1  0.68495314  0.19288141  0.68878222  1
  Zn  Zn113  1  0.69166046  0.69359809  0.18255094  1
  Zn  Zn114  1  0.68168197  0.68931712  0.68603232  1
  Zn  Zn115  1  0.30534033  0.31411178  0.31062397  1
  Zn  Zn116  1  0.31255032  0.31290731  0.81250334  1
  Zn  Zn117  1  0.31954488  0.81028429  0.31532460  1
  Zn  Zn118  1  0.30993254  0.81054340  0.81257575  1
  Zn  Zn119  1  0.80810503  0.30961018  0.30902738  1
  Zn  Zn120  1  0.81281392  0.31562622  0.81205698  1
  Zn  Zn121  1  0.81402638  0.81462893  0.31063955  1
  Zn  Zn122  1  0.80943901  0.80577606  0.81422726  1
  Zn  Zn123  1  0.19062231  0.43644838  0.43404766  1
  Zn  Zn124  1  0.19312413  0.43765910  0.93526850  1
  Zn  Zn125  1  0.19203830  0.93704903  0.44125961  1
  Zn  Zn126  1  0.18973995  0.93691740  0.93639618  1
  Zn  Zn127  1  0.68433533  0.43468594  0.43395787  1
  Zn  Zn128  1  0.68351877  0.43345654  0.93792806  1
  Zn  Zn129  1  0.68443817  0.93289103  0.44153676  1
  Zn  Zn130  1  0.68968058  0.93678534  0.94340177  1
  Zn  Zn131  1  0.31480628  0.06407226  0.05874774  1
  Zn  Zn132  1  0.31520055  0.06406601  0.56005726  1
  Zn  Zn133  1  0.31703027  0.56505833  0.06264026  1
  Zn  Zn134  1  0.31951872  0.56090891  0.55930435  1
  Zn  Zn135  1  0.81544375  0.05420612  0.06831874  1
  Zn  Zn136  1  0.81283086  0.06159713  0.56174453  1
  Zn  Zn137  1  0.80564924  0.56698476  0.05846293  1
  Zn  Zn138  1  0.81083793  0.56083239  0.56032003  1
  Zn  Zn139  1  0.43663339  0.44121182  0.18400163  1
  Zn  Zn140  1  0.44533322  0.43845341  0.68320144  1
  Zn  Zn141  1  0.43489189  0.94104008  0.18815867  1
  Zn  Zn142  1  0.43663607  0.93290650  0.68444921  1
  Zn  Zn143  1  0.93688595  0.43830918  0.18485387  1
  Zn  Zn144  1  0.93991508  0.43917956  0.68827030  1
  Zn  Zn145  1  0.93996565  0.94295401  0.18977861  1
  Zn  Zn146  1  0.93899948  0.93752349  0.69300314  1
  Zn  Zn147  1  0.06430794  0.06019456  0.31230483  1
  Zn  Zn148  1  0.05431185  0.06443127  0.82043777  1
  Zn  Zn149  1  0.06417155  0.55902047  0.31052115  1
  Zn  Zn150  1  0.06008858  0.56326025  0.94114748  1
  Zn  Zn151  1  0.53966848  0.06980090  0.31996483  1
  Zn  Zn152  1  0.56259104  0.06313499  0.81231081  1
  Zn  Zn153  1  0.56476936  0.56345438  0.30874666  1
  Zn  Zn154  1  0.56012865  0.55965337  0.80714475  1
  Zn  Zn155  1  0.43713290  0.18458199  0.44614023  1
  Zn  Zn156  1  0.43708183  0.18547214  0.93553545  1
  Zn  Zn157  1  0.43941245  0.68761000  0.43428046  1
  Zn  Zn158  1  0.43683158  0.68709210  0.93600555  1
  Zn  Zn159  1  0.93959670  0.18734986  0.43858596  1
  Zn  Zn160  1  0.93938782  0.18536320  0.93782414  1
  Zn  Zn161  1  0.93658526  0.68601639  0.43639408  1
  Zn  Zn162  1  0.92262611  0.68279986  0.93562080  1
  Zn  Zn163  1  0.06025286  0.31175694  0.06220511  1
  Zn  Zn164  1  0.06416818  0.31095094  0.56035088  1
  Zn  Zn165  1  0.06522724  0.81126713  0.08001825  1
  Zn  Zn166  1  0.06755441  0.81217302  0.56579509  1
  Zn  Zn167  1  0.56430349  0.31070221  0.05779012  1
  Zn  Zn168  1  0.55980814  0.30899969  0.56210215  1
  Zn  Zn169  1  0.56807973  0.82056354  0.06327978  1
  Zn  Zn170  1  0.56751590  0.80882337  0.56575118  1
  O  O171  1  0.12111312  0.12216713  0.12010292  1
  O  O172  1  0.12161741  0.12096222  0.62048932  1
  O  O173  1  0.12259396  0.61140653  0.13126313  1
  O  O174  1  0.12009545  0.61571612  0.62074187  1
  O  O175  1  0.61545214  0.12094247  0.12326004  1
  O  O176  1  0.61957856  0.12304246  0.62123390  1
  O  O177  1  0.61271710  0.62364313  0.13212035  1
  O  O178  1  0.62344802  0.62204724  0.61812774  1
  O  O179  1  0.37299914  0.37432588  0.38222040  1
  O  O180  1  0.37829955  0.38183614  0.88080058  1
  O  O181  1  0.38432838  0.88411466  0.37637413  1
  O  O182  1  0.38359461  0.87962705  0.88030644  1
  O  O183  1  0.87525550  0.37913203  0.37739900  1
  O  O184  1  0.88104459  0.38775587  0.87337614  1
  O  O185  1  0.88361028  0.88202291  0.37854063  1
  O  O186  1  0.87018119  0.88749867  0.86894982  1
  O  O187  1  0.26064467  0.00615891  0.37609019  1
  O  O188  1  0.26495005  0.00175722  0.87771763  1
  O  O189  1  0.24451802  0.50602932  0.35852206  1
  O  O190  1  0.26106536  0.51259115  0.88237199  1
  O  O191  1  0.75699202  0.00143881  0.37597062  1
  O  O192  1  0.75870985  0.00544420  0.86866837  1
  O  O193  1  0.75355652  0.50523486  0.36441281  1
  O  O194  1  0.75928717  0.49239315  0.87162305  1
  O  O195  1  0.24182316  0.49771066  0.12953117  1
  O  O196  1  0.24076234  0.49366140  0.61676507  1
  O  O197  1  0.23888291  1.00910700  0.12761520  1
  O  O198  1  0.24708992  0.99119060  0.61856102  1
  O  O199  1  0.74844411  0.49522824  0.13428746  1
  O  O200  1  0.74648692  0.48369467  0.61500293  1
  O  O201  1  0.74223296  0.99054266  0.12592446  1
  O  O202  1  0.75281734  0.99495956  0.63954371  1
  O  O203  1  0.01349100  0.37893300  0.25000978  1
  O  O204  1  0.00752216  0.37210859  0.75677733  1
  O  O205  1  0.00908129  0.87711766  0.26424147  1
  O  O206  1  0.00627594  0.85952346  0.74216698  1
  O  O207  1  0.51350599  0.37949776  0.24339133  1
  O  O208  1  0.50330273  0.36230064  0.75163432  1
  O  O209  1  0.49532491  0.86622435  0.25475912  1
  O  O210  1  0.50911362  0.87285548  0.75807979  1
  O  O211  1  0.49462119  0.12635384  0.23416769  1
  O  O212  1  0.50471803  0.13607712  0.74076635  1
  O  O213  1  0.49348549  0.63215394  0.24398911  1
  O  O214  1  0.49454793  0.62731735  0.74491232  1
  O  O215  1  0.99487895  0.12260672  0.24310004  1
  O  O216  1  0.99507790  0.13303210  0.74438773  1
  O  O217  1  0.98454749  0.62236015  0.25472475  1
  O  O218  1  0.98967511  0.63063711  0.73271170  1
  O  O219  1  0.36653718  0.25492586  0.00295111  1
  O  O220  1  0.36917954  0.26418728  0.49541729  1
  O  O221  1  0.37020038  0.75641998  0.00584412  1
  O  O222  1  0.36384643  0.74510104  0.50437705  1
  O  O223  1  0.87867506  0.24875182  0.01361745  1
  O  O224  1  0.86783751  0.25406422  0.50259172  1
  O  O225  1  0.85909599  0.75646291  -0.00383598  1
  O  O226  1  0.86666590  0.75469299  0.50362976  1
  O  O227  1  0.13318855  0.24149020  0.49256450  1
  O  O228  1  0.13221994  0.24475193  0.99413970  1
  O  O229  1  0.13416778  0.74074168  0.49667602  1
  O  O230  1  0.14116377  0.75538155  1.00221379  1
  O  O231  1  0.63043435  0.24143379  0.49217537  1
  O  O232  1  0.62077132  0.24295065  0.99094161  1
  O  O233  1  0.63970874  0.74938203  0.49540730  1
  O  O234  1  0.62564217  0.75252440  0.98802788  1
  O  O235  1  0.48710104  0.24391535  0.11717841  1
  O  O236  1  0.50307253  0.23974070  0.63735997  1
  O  O237  1  0.49575589  0.74820611  0.13101084  1
  O  O238  1  0.49150248  0.74898802  0.62547656  1
  O  O239  1  0.99542269  0.23633236  0.12409933  1
  O  O240  1  0.99605329  0.24162638  0.62921848  1
  O  O241  1  0.99357351  0.74547293  0.13705206  1
  O  O242  1  0.99290445  0.74002881  0.62475516  1
  O  O243  1  0.01595105  0.25055190  0.37846669  1
  O  O244  1  0.00527520  0.25645102  0.86891622  1
  O  O245  1  0.00698532  0.75733226  0.37517411  1
  O  O246  1  -0.00623601  0.73914890  0.85853203  1
  O  O247  1  0.51587704  0.23310263  0.37631125  1
  O  O248  1  0.49660698  0.25354182  0.86271224  1
  O  O249  1  0.49880460  0.76388153  0.36709037  1
  O  O250  1  0.50984246  0.75851589  0.87596295  1
  O  O251  1  0.24669831  0.13369037  0.49215863  1
  O  O252  1  0.24058456  0.13583076  1.00148074  1
  O  O253  1  0.24688805  0.62845189  0.49275237  1
  O  O254  1  0.25487089  0.63511918  0.99250133  1
  O  O255  1  0.74282633  0.13661609  0.50924480  1
  O  O256  1  0.75210281  0.11726119  0.98822339  1
  O  O257  1  0.75241437  0.63222806  0.48966420  1
  O  O258  1  0.74328873  0.65155853  1.01617616  1
  O  O259  1  0.25466713  0.36417339  0.00213562  1
  O  O260  1  0.26143869  0.37175797  0.50148148  1
  O  O261  1  0.26277966  0.86225795  -0.00809613  1
  O  O262  1  0.24056250  0.86216244  0.51338859  1
  O  O263  1  0.75239249  0.38146904  0.01514806  1
  O  O264  1  0.75499509  0.36655440  0.50301751  1
  O  O265  1  0.73953142  0.86268263  0.01291726  1
  O  O266  1  0.75703776  0.86830038  0.50506220  1
  O  O267  1  0.13218751  0.49359861  0.23920853  1
  O  O268  1  0.12365553  0.48729796  0.73728089  1
  O  O269  1  0.13158773  0.99327454  0.24542988  1
  O  O270  1  0.11280649  0.99173434  0.74931687  1
  O  O271  1  0.63262831  0.48881653  0.24810958  1
  O  O272  1  0.61646224  0.48070736  0.74548321  1
  O  O273  1  0.63359005  1.01622809  0.26477692  1
  O  O274  1  0.63398963  0.98950846  0.75252041  1
  O  O275  1  0.37424976  0.00387739  0.26329265  1
  O  O276  1  0.37655646  -0.00671424  0.76410538  1
  O  O277  1  0.36436333  0.51108856  0.23956928  1
  O  O278  1  0.37916012  0.49603014  0.76204463  1
  O  O279  1  0.87950746  0.01278088  0.26424215  1
  O  O280  1  0.86965597  0.00658220  0.75921672  1
  O  O281  1  0.86801772  0.50615204  0.25431229  1
  O  O282  1  0.87703907  0.50947659  0.75508626  1
  O  O283  1  0.12641658  0.36732819  0.36506229  1
  O  O284  1  0.11994263  0.37495786  0.86759475  1
  O  O285  1  0.11978408  0.87087217  0.37363359  1
  O  O286  1  0.13403842  0.87363729  0.85724808  1
  O  O287  1  0.62686326  0.36577129  0.35959272  1
  O  O288  1  0.61631081  0.37238890  0.86691052  1
  O  O289  1  0.60944455  0.87564747  0.37689962  1
  O  O290  1  0.61337490  0.87609179  0.87182207  1
  O  O291  1  0.37832050  0.13525226  0.12560302  1
  O  O292  1  0.38871568  0.12508074  0.62165897  1
  O  O293  1  0.38366483  0.63681241  0.13267554  1
  O  O294  1  0.37327649  0.63720645  0.62593579  1
  O  O295  1  0.88334266  0.12807175  0.13228898  1
  O  O296  1  0.88183491  0.13201077  0.62989558  1
  O  O297  1  0.87567376  0.61866428  0.13890517  1
  O  O298  1  0.88068886  0.62475822  0.62987549  1
  O  O299  1  0.25549064  0.25676644  0.11484583  1
  O  O300  1  0.24734848  0.26237363  0.60792608  1
  O  O301  1  0.26027227  0.74275461  0.11099787  1
  O  O302  1  0.25492539  0.75374605  0.61858658  1
  O  O303  1  0.76181869  0.25816783  0.12866906  1
  O  O304  1  0.75559504  0.25839202  0.61537572  1
  O  O305  1  0.75528647  0.76512147  0.12064417  1
  O  O306  1  0.75593714  0.75613332  0.61761117  1
  O  O307  1  0.24351257  0.24424108  0.38359935  1
  O  O308  1  0.24386723  0.24429226  0.87912408  1
  O  O309  1  0.24739254  0.74516936  0.38313954  1
  O  O310  1  0.25614868  0.73494928  0.88679208  1
  O  O311  1  0.74157153  0.25169956  0.38595690  1
  O  O312  1  0.75514484  0.23395386  0.87183096  1
  O  O313  1  0.75166157  0.74366545  0.38096191  1
  O  O314  1  0.73570152  0.75514158  0.88717890  1
  O  O315  1  0.01405117  0.12416114  0.00610093  1
  O  O316  1  0.01003521  0.12766636  0.51030423  1
  O  O317  1  -0.00258868  0.63219143  -0.00109114  1
  O  O318  1  0.00451872  0.61914108  0.50830459  1
  O  O319  1  0.49407400  0.11670549  0.01034159  1
  O  O320  1  0.51004839  0.13030119  0.51835301  1
  O  O321  1  0.49382537  0.61836519  0.00965069  1
  O  O322  1  0.50034892  0.61266692  0.49666269  1
  O  O323  1  0.48907601  0.37901643  0.49821138  1
  O  O324  1  0.49277367  0.38202948  0.99407924  1
  O  O325  1  0.50236115  0.87041618  0.49100990  1
  O  O326  1  0.49102845  0.88098683  0.99339395  1
  O  O327  1  0.99253238  0.37871814  0.49818294  1
  O  O328  1  0.99637819  0.36923140  0.98655429  1
  O  O329  1  0.99798095  0.87554146  0.49155530  1
  O  O330  1  1.01283486  0.86795787  0.99905562  1
  O  O331  1  0.50304882  0.50160530  0.38505711  1
  O  O332  1  0.49269569  0.49397845  0.88114945  1
  O  O333  1  0.48929732  0.98761689  0.37826149  1
  O  O334  1  0.48964401  0.99550697  0.87997533  1
  O  O335  1  0.99569450  0.49617098  0.38137904  1
  O  O336  1  0.99380915  0.49093170  0.87485348  1
  O  O337  1  0.99468611  0.99335282  0.38044866  1
  O  O338  1  0.98273913  1.00148106  0.88033321  1
  O  O339  1  0.01251197  0.01111491  0.12327503  1
  O  O340  1  -0.00712738  0.01525083  0.62370600  1
  O  O341  1  0.01424806  0.50249148  0.12669967  1
  O  O342  1  0.01093710  0.50402137  0.61829668  1
  O  O343  1  0.50102497  0.00740652  0.11836790  1
  O  O344  1  0.50149876  0.01452768  0.63433787  1
  O  O345  1  0.49995983  0.51166207  0.11658044  1
  O  O346  1  0.50219378  0.50080208  0.60817704  1
  O  O347  1  0.24225383  0.38461913  0.24179546  1
  O  O348  1  0.24173325  0.36673337  0.73816853  1
  O  O349  1  0.24112595  0.87527303  0.26036431  1
  O  O350  1  0.24095720  0.86730213  0.73676617  1
  O  O351  1  0.74527914  0.38224252  0.24059156  1
  O  O352  1  0.74098532  0.36669454  0.73827478  1
  O  O353  1  0.74561859  0.87262195  0.24165077  1
  O  O354  1  0.74476355  0.88153628  0.74873444  1
  O  O355  1  0.25151750  0.12542950  0.26482968  1
  O  O356  1  0.23065188  0.11406923  0.73663776  1
  O  O357  1  0.25746993  0.62033873  0.25236113  1
  O  O358  1  0.25329556  0.62788611  0.76466428  1
  O  O359  1  0.75594357  0.12588491  0.25142048  1
  O  O360  1  0.75524162  0.11785915  0.75480771  1
  O  O361  1  0.75811557  0.61871146  0.25304125  1
  O  O362  1  0.76330123  0.62591317  0.73971122  1
  O  O363  1  0.37048646  0.11629056  0.37711654  1
  O  O364  1  0.36999712  0.11092453  0.87472675  1
  O  O365  1  0.37012356  0.63164738  0.35878491  1
  O  O366  1  0.36982944  0.61583614  0.87320148  1
  O  O367  1  0.87965067  0.11895230  0.36965152  1
  O  O368  1  0.86634646  0.11895670  0.87135144  1
  O  O369  1  0.86524202  0.61850811  0.36758514  1
  O  O370  1  0.87074897  0.61136201  0.85933369  1
  O  O371  1  0.12869543  0.38207097  0.12920421  1
  O  O372  1  0.13331319  0.38062221  0.62747923  1
  O  O373  1  0.12745367  0.88565568  0.14062483  1
  O  O374  1  0.13234231  0.87730462  0.63629667  1
  O  O375  1  0.63166015  0.37396390  0.13457987  1
  O  O376  1  0.63303675  0.37032150  0.62953064  1
  O  O377  1  0.63501408  0.88317732  0.12971865  1
  O  O378  1  0.63253549  0.87661741  0.63553338  1
  O  O379  1  0.13505622  0.26124256  0.25766000  1
  O  O380  1  0.11768189  0.26293919  0.75602862  1
  O  O381  1  0.12600661  0.75742468  0.25819736  1
  O  O382  1  0.11186142  0.75422979  0.74222304  1
  O  O383  1  0.62898615  0.26261886  0.25550233  1
  O  O384  1  0.61604170  0.25893820  0.75536587  1
  O  O385  1  0.61079309  0.74495248  0.25114606  1
  O  O386  1  0.62842675  0.76112596  0.76340905  1
  O  O387  1  0.36633530  0.25084498  0.23650523  1
  O  O388  1  0.38730627  0.25120305  0.74914250  1
  O  O389  1  0.38269743  0.74564965  0.24107111  1
  O  O390  1  0.37791871  0.74976786  0.74122708  1
  O  O391  1  0.87319681  0.23771869  0.24399247  1
  O  O392  1  0.88024207  0.24576504  0.74386239  1
  O  O393  1  0.87465520  0.73397616  0.25332956  1
  O  O394  1  0.87792358  0.73843952  0.74395958  1
  O  O395  1  0.38591412  0.48737861  0.49639054  1
  O  O396  1  0.38392018  0.49454360  0.99491715  1
  O  O397  1  0.37316120  0.99958932  0.48625246  1
  O  O398  1  0.38195915  0.99165466  0.99507264  1
  O  O399  1  0.88008015  0.49366396  0.49251498  1
  O  O400  1  0.86856245  0.50249271  0.98391350  1
  O  O401  1  0.87738610  0.99535972  0.48974478  1
  O  O402  1  0.87723081  0.99878617  0.98853962  1
  O  O403  1  0.12744051  0.00703127  0.00684906  1
  O  O404  1  0.12486638  0.01738277  0.49185061  1
  O  O405  1  0.12807482  0.49621155  0.01271951  1
  O  O406  1  0.12161598  0.50321169  0.50410185  1
  O  O407  1  0.60815494  0.00476345  -0.00579939  1
  O  O408  1  0.63354619  0.01472339  0.50406920  1
  O  O409  1  0.60980142  0.49564164  0.00147021  1
  O  O410  1  0.61218629  0.49699958  0.49786941  1
  O  O411  1  0.36858914  0.37001648  0.11824332  1
  O  O412  1  0.36506248  0.38162621  0.61701422  1
  O  O413  1  0.37851784  0.86426454  0.11678328  1
  O  O414  1  0.36544401  0.86304956  0.62683508  1
  O  O415  1  0.87041917  0.36559888  0.12512272  1
  O  O416  1  0.86987585  0.37005262  0.61982265  1
  O  O417  1  0.85952277  0.88527170  0.13359592  1
  O  O418  1  0.87130572  0.87065584  0.61956854  1
  O  O419  1  0.13283733  0.13182339  0.37959226  1
  O  O420  1  0.12788532  0.12942746  0.88265414  1
  O  O421  1  0.13166960  0.62959751  0.37843947  1
  O  O422  1  0.14077967  0.61406407  0.87401781  1
  O  O423  1  0.63467679  0.12493279  0.37729290  1
  O  O424  1  0.64308752  0.12219108  0.87294649  1
  O  O425  1  0.63942076  0.62722592  0.37416385  1
  O  O426  1  0.62078808  0.63761440  0.87200520  1
