# generated using pymatgen
data_V85Zn86O256
_symmetry_space_group_name_H-M   'P 1'
_cell_length_a   16.93706041
_cell_length_b   16.94901844
_cell_length_c   16.96168602
_cell_angle_alpha   90.00497249
_cell_angle_beta   90.02607528
_cell_angle_gamma   90.00229381
_symmetry_Int_Tables_number   1
_chemical_formula_structural   V85Zn86O256
_chemical_formula_sum   'V85 Zn86 O256'
_cell_volume   4869.13214924
_cell_formula_units_Z   1
loop_
 _symmetry_equiv_pos_site_id
 _symmetry_equiv_pos_as_xyz
  1  'x, y, z'
loop_
 _atom_site_type_symbol
 _atom_site_label
 _atom_site_symmetry_multiplicity
 _atom_site_fract_x
 _atom_site_fract_y
 _atom_site_fract_z
 _atom_site_occupancy
  V  V0  1  0.24538697  0.24885569  0.49857827  1
  V  V1  1  -0.00697388  -0.01450236  -0.00018731  1
  V  V2  1  0.62625978  0.25024162  0.37365277  1
  V  V3  1  0.11796849  0.75531298  0.87645797  1
  V  V4  1  0.61449485  0.00552087  0.62603176  1
  V  V5  1  0.62651235  0.87693047  0.25208612  1
  V  V6  1  0.75164896  0.63080923  0.88150344  1
  V  V7  1  0.62997327  0.62442869  0.01268882  1
  V  V8  1  0.37382719  0.37375721  0.49524850  1
  V  V9  1  0.88314376  0.49702700  0.37585272  1
  V  V10  1  0.62668856  0.74897496  0.37364854  1
  V  V11  1  0.12229892  0.24776386  0.86179753  1
  V  V12  1  0.13436783  0.62927889  0.00065828  1
  V  V13  1  0.88227455  0.74655367  0.11210119  1
  V  V14  1  0.24612896  0.38568624  0.62506944  1
  V  V15  1  0.00062624  0.36931413  0.86996905  1
  V  V16  1  0.44529659  0.82668078  0.93316793  1
  V  V17  1  -0.00202123  0.12467650  0.12619843  1
  V  V18  1  0.61548251  0.25197614  0.87566888  1
  V  V19  1  0.12005025  0.50588699  0.12756209  1
  V  V20  1  0.00006726  0.62175503  0.63129477  1
  V  V21  1  0.62873615  -0.00049127  0.12640540  1
  V  V22  1  0.62785847  0.62540678  0.49892980  1
  V  V23  1  0.38376507  0.12129961  0.74580539  1
  V  V24  1  0.50093879  0.62771449  0.62687036  1
  V  V25  1  0.49777477  0.87912395  0.37534104  1
  V  V26  1  0.87643322  0.50061352  0.87495380  1
  V  V27  1  0.24460978  -0.00444349  0.74838631  1
  V  V28  1  0.26084399  0.85807080  0.11343609  1
  V  V29  1  0.25330520  0.50802759  0.24904777  1
  V  V30  1  0.12645019  0.61775539  0.50519660  1
  V  V31  1  0.49589433  0.75549491  0.75055101  1
  V  V32  1  0.74849773  0.87456942  0.62318734  1
  V  V33  1  0.00097760  0.12052514  0.63936525  1
  V  V34  1  0.75681940  0.86753234  0.12095938  1
  V  V35  1  0.13297550  0.87820313  0.24985329  1
  V  V36  1  0.61710898  0.12700476  0.50177010  1
  V  V37  1  0.74998382  0.50352873  0.24483523  1
  V  V38  1  0.24560007  0.25051797  -0.00181945  1
  V  V39  1  0.75017295  0.25080558  0.00029635  1
  V  V40  1  0.62747977  0.12177901  -0.00124491  1
  V  V41  1  0.50736609  0.49389424  0.00824088  1
  V  V42  1  0.12257838  0.74954923  0.37575101  1
  V  V43  1  0.87702543  0.37489675  0.00069622  1
  V  V44  1  0.12502567  0.38921102  0.74398325  1
  V  V45  1  0.24510374  0.12008034  0.37162468  1
  V  V46  1  0.76024296  0.12608355  0.86989849  1
  V  V47  1  0.37340907  0.87490031  0.50233233  1
  V  V48  1  0.87801556  0.24555359  0.64016151  1
  V  V49  1  0.87702501  0.24816046  0.13013612  1
  V  V50  1  0.62327229  0.87708077  0.75292863  1
  V  V51  1  0.50171757  -0.00009986  -0.00534799  1
  V  V52  1  0.37543926  -0.00204683  0.87876918  1
  V  V53  1  0.62811125  0.49940161  0.62395019  1
  V  V54  1  0.24470834  0.87430777  0.62630850  1
  V  V55  1  0.00247340  0.50487181  0.00180701  1
  V  V56  1  0.76228770  0.12270868  0.37124146  1
  V  V57  1  0.75025079  0.25095881  0.50269595  1
  V  V58  1  0.11223413  0.36902229  0.25615118  1
  V  V59  1  -0.00585104  0.00097937  0.49571376  1
  V  V60  1  0.37682794  0.50822015  0.37006576  1
  V  V61  1  0.62994780  0.75543036  0.88281975  1
  V  V62  1  0.44049628  0.43817978  0.83252830  1
  V  V63  1  0.24932498  0.12288618  0.87354557  1
  V  V64  1  0.48695316  0.74783295  0.24672469  1
  V  V65  1  0.88612963  0.37181961  0.49834769  1
  V  V66  1  0.62531131  0.37994288  0.24248242  1
  V  V67  1  0.10897496  0.87033565  0.74705306  1
  V  V68  1  0.75717483  0.00640958  0.74719836  1
  V  V69  1  0.37037377  0.11880977  0.24992934  1
  V  V70  1  0.62298921  0.37867441  0.75637753  1
  V  V71  1  0.12267312  0.11816965  0.50445385  1
  V  V72  1  0.75318992  0.50395121  0.75022574  1
  V  V73  1  0.76844891  0.00171316  0.25281263  1
  V  V74  1  0.37589247  0.37875510  -0.00072542  1
  V  V75  1  0.48336942  0.62473686  0.12934118  1
  V  V76  1  0.24715233  0.37510814  0.12812247  1
  V  V77  1  0.13682913  -0.00004074  0.12472675  1
  V  V78  1  0.87355077  0.87733630  0.49113484  1
  V  V79  1  0.49888010  0.24973361  0.24959980  1
  V  V80  1  0.24946632  0.61734996  0.86164419  1
  V  V81  1  0.37943144  0.24301419  0.62161336  1
  V  V82  1  0.50245193  0.49976011  0.49487271  1
  V  V83  1  0.88623394  0.62836152  0.25138946  1
  V  V84  1  0.49994649  0.12369751  0.12580668  1
  Zn  Zn85  1  -0.00280706  0.87998289  0.36868514  1
  Zn  Zn86  1  0.74823939  0.37950963  0.12132207  1
  Zn  Zn87  1  0.50049788  0.37655584  0.37225332  1
  Zn  Zn88  1  0.49675905  0.25198147  0.75012974  1
  Zn  Zn89  1  0.94297924  0.19296791  0.29148486  1
  Zn  Zn90  1  0.37168520  0.24902369  0.12572954  1
  Zn  Zn91  1  0.88615543  0.75413833  0.62578182  1
  Zn  Zn92  1  0.37188504  0.74796469  0.62681259  1
  Zn  Zn93  1  0.00276696  0.75099526  0.24565653  1
  Zn  Zn94  1  0.25262183  0.62929171  0.37402634  1
  Zn  Zn95  1  0.36754357  -0.00240296  0.37240419  1
  Zn  Zn96  1  0.24869756  0.74994680  0.49998363  1
  Zn  Zn97  1  0.88409271  0.63264428  0.75388759  1
  Zn  Zn98  1  0.75296787  0.37460967  0.62656609  1
  Zn  Zn99  1  0.75427626  0.62438327  0.37564990  1
  Zn  Zn100  1  0.75327211  0.74970579  0.49995068  1
  Zn  Zn101  1  0.88766021  -0.00879146  0.86937269  1
  Zn  Zn102  1  0.12264446  0.12166651  -0.00168547  1
  Zn  Zn103  1  0.37315595  0.61120591  0.74944190  1
  Zn  Zn104  1  0.49501501  0.00540980  0.50201655  1
  Zn  Zn105  1  0.10679208  0.25141255  0.37540274  1
  Zn  Zn106  1  0.00730675  0.49367240  0.50130901  1
  Zn  Zn107  1  0.18367412  0.18708225  0.18709784  1
  Zn  Zn108  1  0.19011783  0.18615368  0.68494215  1
  Zn  Zn109  1  0.18851575  0.68985134  0.18718825  1
  Zn  Zn110  1  0.18343740  0.68976779  0.68765980  1
  Zn  Zn111  1  0.69172291  0.18795911  0.18814956  1
  Zn  Zn112  1  0.68516579  0.18918477  0.68745244  1
  Zn  Zn113  1  0.69059364  0.68800503  0.19100317  1
  Zn  Zn114  1  0.69000184  0.69181271  0.69192330  1
  Zn  Zn115  1  0.30993631  0.31199046  0.31291476  1
  Zn  Zn116  1  0.30469061  0.30854661  0.80613369  1
  Zn  Zn117  1  0.30685857  0.81448011  0.31168892  1
  Zn  Zn118  1  0.30156699  0.80259130  0.81267284  1
  Zn  Zn119  1  0.80899888  0.31811174  0.31538871  1
  Zn  Zn120  1  0.80743729  0.31503710  0.81538105  1
  Zn  Zn121  1  0.81304674  0.81058125  0.31027379  1
  Zn  Zn122  1  0.82948857  0.81358603  0.80844045  1
  Zn  Zn123  1  0.18964776  0.43736940  0.43298129  1
  Zn  Zn124  1  0.18677981  0.43794473  0.93562439  1
  Zn  Zn125  1  0.18390563  0.93876808  0.43920274  1
  Zn  Zn126  1  0.18478829  0.93336631  0.94012777  1
  Zn  Zn127  1  0.69342389  0.43601872  0.43099675  1
  Zn  Zn128  1  0.68717928  0.43996908  0.93780254  1
  Zn  Zn129  1  0.68867284  0.94271200  0.43734155  1
  Zn  Zn130  1  0.73424924  0.91382680  0.91782631  1
  Zn  Zn131  1  0.31404748  0.06241054  0.06025656  1
  Zn  Zn132  1  0.30951502  0.05805460  0.56284876  1
  Zn  Zn133  1  0.30976402  0.55840324  0.05590620  1
  Zn  Zn134  1  0.31474137  0.56441099  0.55845189  1
  Zn  Zn135  1  0.81454566  0.06163352  0.06382533  1
  Zn  Zn136  1  0.81212565  0.06428055  0.56308698  1
  Zn  Zn137  1  0.81656708  0.56553613  0.06501996  1
  Zn  Zn138  1  0.81737762  0.56202574  0.56258687  1
  Zn  Zn139  1  0.43629906  0.43759521  0.18564418  1
  Zn  Zn140  1  0.43761686  0.43447619  0.66788043  1
  Zn  Zn141  1  0.43671077  0.93676961  0.18514308  1
  Zn  Zn142  1  0.43526014  0.93573322  0.68837029  1
  Zn  Zn143  1  0.93514511  0.43949243  0.18542573  1
  Zn  Zn144  1  0.94073055  0.43906513  0.68444035  1
  Zn  Zn145  1  0.94470490  0.93329905  0.18251428  1
  Zn  Zn146  1  0.93347466  0.94139563  0.67924694  1
  Zn  Zn147  1  0.06636227  0.05791036  0.31159870  1
  Zn  Zn148  1  0.06521367  0.05568395  0.81679090  1
  Zn  Zn149  1  0.06423574  0.56125174  0.31630145  1
  Zn  Zn150  1  0.06468296  0.56239732  0.81566498  1
  Zn  Zn151  1  0.56641197  0.06326908  0.31434989  1
  Zn  Zn152  1  0.56639381  0.06194191  0.81459297  1
  Zn  Zn153  1  0.56299858  0.56322607  0.30785019  1
  Zn  Zn154  1  0.56961267  0.57143201  0.81291547  1
  Zn  Zn155  1  0.43500313  0.18774856  0.43231666  1
  Zn  Zn156  1  0.43407179  0.18738475  0.93769032  1
  Zn  Zn157  1  0.43907177  0.69170746  0.43751076  1
  Zn  Zn158  1  0.43436908  0.66080142  0.93889542  1
  Zn  Zn159  1  0.93822487  0.18927642  0.45277632  1
  Zn  Zn160  1  0.93960089  0.18459702  0.94296554  1
  Zn  Zn161  1  0.94129452  0.68918035  0.44107283  1
  Zn  Zn162  1  0.94336453  0.68651560  0.93732104  1
  Zn  Zn163  1  0.06153966  0.31297715  0.06313333  1
  Zn  Zn164  1  0.06167694  0.30475925  0.56882256  1
  Zn  Zn165  1  0.06783320  0.81248824  0.06398342  1
  Zn  Zn166  1  0.06143256  0.80960964  0.56161218  1
  Zn  Zn167  1  0.56183962  0.31086288  0.06484798  1
  Zn  Zn168  1  0.56172911  0.31366855  0.56445108  1
  Zn  Zn169  1  0.56919934  0.80587417  0.07039264  1
  Zn  Zn170  1  0.56341139  0.81449483  0.56226262  1
  O  O171  1  0.11989636  0.11689832  0.12222847  1
  O  O172  1  0.11028812  0.13326531  0.61938056  1
  O  O173  1  0.13076970  0.61370203  0.11769606  1
  O  O174  1  0.11996530  0.62617433  0.61237422  1
  O  O175  1  0.62069171  0.12193694  0.11751996  1
  O  O176  1  0.62865792  0.11916249  0.61425577  1
  O  O177  1  0.62362542  0.63036966  0.11505633  1
  O  O178  1  0.61794491  0.62146718  0.61970880  1
  O  O179  1  0.37546970  0.38331088  0.38056630  1
  O  O180  1  0.37294775  0.37083484  0.87954957  1
  O  O181  1  0.38074191  0.87769636  0.38065320  1
  O  O182  1  0.37726325  0.87835899  0.87311867  1
  O  O183  1  0.86985784  0.38240066  0.38725013  1
  O  O184  1  0.88284062  0.37897700  0.87917975  1
  O  O185  1  0.87571174  0.87113470  0.38695337  1
  O  O186  1  0.84052460  0.88868320  0.88467486  1
  O  O187  1  0.24841203  0.01548128  0.37928235  1
  O  O188  1  0.25746214  0.00134130  0.87102247  1
  O  O189  1  0.25896295  0.50158494  0.36518785  1
  O  O190  1  0.24005159  0.51732261  0.87461578  1
  O  O191  1  0.74623871  0.01036066  0.36469044  1
  O  O192  1  0.73841343  0.01546417  0.86067780  1
  O  O193  1  0.76197698  0.50200656  0.36449566  1
  O  O194  1  0.75499912  0.50800994  0.86893997  1
  O  O195  1  0.24400253  0.49224612  0.12953591  1
  O  O196  1  0.25808134  0.48430071  0.61874753  1
  O  O197  1  0.23886228  1.00120825  0.11998745  1
  O  O198  1  0.25317936  0.98746927  0.63698700  1
  O  O199  1  0.75865175  0.49825629  0.13992980  1
  O  O200  1  0.74551260  0.49916718  0.63332264  1
  O  O201  1  0.74692240  0.99222505  0.13380110  1
  O  O202  1  0.74062553  0.99632594  0.62949391  1
  O  O203  1  0.01432800  0.37972623  0.24520548  1
  O  O204  1  0.01224161  0.37708892  0.75645079  1
  O  O205  1  0.01472498  0.87321831  0.25059410  1
  O  O206  1  0.01065680  0.88409219  0.74468795  1
  O  O207  1  0.50592443  0.36729470  0.24875534  1
  O  O208  1  0.50223086  0.38013886  0.75810336  1
  O  O209  1  0.50673636  0.86913046  0.25457209  1
  O  O210  1  0.50875447  0.86710722  0.74617216  1
  O  O211  1  0.49601794  0.13190856  0.24657638  1
  O  O212  1  0.48644939  0.12443309  0.75398039  1
  O  O213  1  0.50247088  0.63082528  0.23644862  1
  O  O214  1  0.50004272  0.63283432  0.74265322  1
  O  O215  1  1.00215314  0.11605646  0.23379388  1
  O  O216  1  1.00479808  0.11538550  0.73824022  1
  O  O217  1  0.98945381  0.62360973  0.25141557  1
  O  O218  1  1.00332754  0.61763358  0.73616841  1
  O  O219  1  0.36356222  0.25992716  -0.00124597  1
  O  O220  1  0.36845983  0.25217400  0.50397579  1
  O  O221  1  0.39354520  0.76224213  -0.01400756  1
  O  O222  1  0.37294223  0.76252778  0.50155569  1
  O  O223  1  0.86924793  0.25625526  0.00559469  1
  O  O224  1  0.86563613  0.25586516  0.51211431  1
  O  O225  1  0.87567101  0.74054270  0.01323550  1
  O  O226  1  0.87205100  0.75955661  0.50488921  1
  O  O227  1  0.13046966  0.24029635  0.49889809  1
  O  O228  1  0.13598983  0.25455304  0.99047494  1
  O  O229  1  0.12685376  0.74040109  0.49271867  1
  O  O230  1  0.12021987  0.74149704  0.98947096  1
  O  O231  1  0.63079913  0.24581591  0.49790270  1
  O  O232  1  0.62811366  0.24265129  0.99441169  1
  O  O233  1  0.62392485  0.74218983  0.49117098  1
  O  O234  1  0.62053582  0.73948154  0.99215153  1
  O  O235  1  0.49775500  0.24315716  0.13554774  1
  O  O236  1  0.48366374  0.25573248  0.62813167  1
  O  O237  1  0.50102059  0.73575135  0.13288452  1
  O  O238  1  0.50172420  0.74337344  0.63349402  1
  O  O239  1  0.99085834  0.24105101  0.12004370  1
  O  O240  1  0.98616676  0.23729422  0.62613299  1
  O  O241  1  0.98597519  0.75459109  0.12516755  1
  O  O242  1  1.00280990  0.72919082  0.61875819  1
  O  O243  1  -0.00632868  0.24585466  0.37479405  1
  O  O244  1  0.00719834  0.26101688  0.88186341  1
  O  O245  1  0.01219647  0.75477610  0.37433727  1
  O  O246  1  0.01758824  0.74154111  0.87081147  1
  O  O247  1  0.50546600  0.25118671  0.36279793  1
  O  O248  1  0.51140865  0.24673418  0.87426847  1
  O  O249  1  0.50918157  0.75971674  0.36980373  1
  O  O250  1  0.50332642  0.75638902  0.87422816  1
  O  O251  1  0.24142103  0.12963598  0.49731012  1
  O  O252  1  0.24920241  0.13508499  0.99258913  1
  O  O253  1  0.23975102  0.62796381  0.49963861  1
  O  O254  1  0.23860623  0.62074415  0.99072715  1
  O  O255  1  0.74400250  0.13511756  0.49360292  1
  O  O256  1  0.74254194  0.12920358  0.99424354  1
  O  O257  1  0.73831262  0.62584067  0.50001520  1
  O  O258  1  0.74181210  0.61506866  0.99258508  1
  O  O259  1  0.25478538  0.37213604  0.00634953  1
  O  O260  1  0.25171263  0.36632558  0.50358974  1
  O  O261  1  0.24862709  0.87578467  0.01444696  1
  O  O262  1  0.25446362  0.87618525  0.50891078  1
  O  O263  1  0.75607573  0.37004383  -0.00032096  1
  O  O264  1  0.75286835  0.36204017  0.50282007  1
  O  O265  1  0.73493138  0.87620716  0.02541617  1
  O  O266  1  0.75526017  0.87753317  0.50537734  1
  O  O267  1  0.13132726  0.49276537  0.24416846  1
  O  O268  1  0.12578265  0.48716266  0.75028044  1
  O  O269  1  0.12367519  0.99128449  0.23713844  1
  O  O270  1  0.13717833  0.98446530  0.75944123  1
  O  O271  1  0.63524133  0.49154006  0.25571052  1
  O  O272  1  0.63003041  0.49522813  0.74676519  1
  O  O273  1  0.62694637  0.99130184  0.24384221  1
  O  O274  1  0.62885726  0.99756827  0.74196124  1
  O  O275  1  0.38230218  0.01534737  0.25207273  1
  O  O276  1  0.36860879  0.00331548  0.75919045  1
  O  O277  1  0.36650760  0.49379428  0.25827623  1
  O  O278  1  0.38980580  0.49228509  0.75744195  1
  O  O279  1  0.86720213  -0.00633671  0.24592955  1
  O  O280  1  0.86115416  -0.00074194  0.74983351  1
  O  O281  1  0.87133170  0.50613561  0.25639093  1
  O  O282  1  0.86720436  0.50217058  0.75600476  1
  O  O283  1  0.12862936  0.37275368  0.35986829  1
  O  O284  1  0.12042832  0.36949097  0.86369341  1
  O  O285  1  0.12637446  0.86915221  0.36753520  1
  O  O286  1  0.12883721  0.86269466  0.86515101  1
  O  O287  1  0.62432202  0.36701577  0.36404191  1
  O  O288  1  0.62857203  0.36850623  0.86469119  1
  O  O289  1  0.61967000  0.87053037  0.36841884  1
  O  O290  1  0.63813191  0.86219999  0.87096600  1
  O  O291  1  0.38072644  0.12779138  0.13128799  1
  O  O292  1  0.36798324  0.13041312  0.63276320  1
  O  O293  1  0.38516166  0.62255822  0.11815457  1
  O  O294  1  0.38821537  0.62548469  0.62715085  1
  O  O295  1  0.88276449  0.13590498  0.12073253  1
  O  O296  1  0.88402363  0.13645222  0.62392573  1
  O  O297  1  0.87023352  0.64000745  0.13462303  1
  O  O298  1  0.88854511  0.62601996  0.62456416  1
  O  O299  1  0.24792880  0.25856659  0.11588579  1
  O  O300  1  0.25756661  0.25377438  0.61348600  1
  O  O301  1  0.25193320  0.75792452  0.12247882  1
  O  O302  1  0.25233080  0.76125172  0.62505303  1
  O  O303  1  0.75672991  0.25090208  0.11523972  1
  O  O304  1  0.75892743  0.24946803  0.61937884  1
  O  O305  1  0.75981665  0.76176525  0.13376464  1
  O  O306  1  0.73814925  0.76705071  0.62025571  1
  O  O307  1  0.24986325  0.24211856  0.38818873  1
  O  O308  1  0.24155394  0.24452832  0.87983048  1
  O  O309  1  0.23838052  0.74791583  0.37677400  1
  O  O310  1  0.23250591  0.73417330  0.87113394  1
  O  O311  1  0.74470068  0.24470143  0.38270131  1
  O  O312  1  0.73960800  0.24441255  0.88031172  1
  O  O313  1  0.73674339  0.74872475  0.37614621  1
  O  O314  1  0.74348961  0.73562136  0.87203037  1
  O  O315  1  0.00418013  0.11892744  0.01201873  1
  O  O316  1  0.00569615  0.11834343  0.51082386  1
  O  O317  1  0.01369835  0.61013727  -0.00750166  1
  O  O318  1  0.01275024  0.61995708  0.50491483  1
  O  O319  1  0.50553147  0.11982886  0.00470464  1
  O  O320  1  0.51268533  0.12588792  0.49222780  1
  O  O321  1  0.50682204  0.61582766  0.01277621  1
  O  O322  1  0.51047173  0.62296976  0.50630432  1
  O  O323  1  0.49437762  0.38111220  0.49719171  1
  O  O324  1  0.49243522  0.38179882  1.00619293  1
  O  O325  1  0.49245801  0.87614151  0.49185156  1
  O  O326  1  0.50559894  0.88065509  0.99992645  1
  O  O327  1  0.98990520  0.37322181  0.50720880  1
  O  O328  1  0.99872004  0.38435407  0.99113298  1
  O  O329  1  0.99176452  0.88453298  0.50324514  1
  O  O330  1  1.00160443  0.88673615  1.00491406  1
  O  O331  1  0.49462242  0.49883253  0.37722274  1
  O  O332  1  0.50231762  0.50543377  0.88535176  1
  O  O333  1  0.50158992  0.98703358  0.37598081  1
  O  O334  1  0.49550674  1.00236377  0.88609951  1
  O  O335  1  0.98750793  0.50007001  0.37882528  1
  O  O336  1  0.99698742  0.48922722  0.88041152  1
  O  O337  1  1.00486025  0.99972925  0.39059201  1
  O  O338  1  1.00058939  1.00403559  0.89346475  1
  O  O339  1  0.00825060  0.00440392  0.11514232  1
  O  O340  1  -0.00490261  0.01543240  0.61597951  1
  O  O341  1  0.00926565  0.49607593  0.11538709  1
  O  O342  1  -0.00198680  0.51353265  0.61744452  1
  O  O343  1  0.50732157  0.00332722  0.11503386  1
  O  O344  1  0.51060298  -0.00153870  0.62366629  1
  O  O345  1  0.49884546  0.51131912  0.12040982  1
  O  O346  1  0.50890218  0.50838051  0.61537786  1
  O  O347  1  0.24507883  0.38152957  0.23996802  1
  O  O348  1  0.23585104  0.37091710  0.73946406  1
  O  O349  1  0.23900222  0.87228418  0.23956578  1
  O  O350  1  0.24610581  0.87944092  0.74376487  1
  O  O351  1  0.74199827  0.38396749  0.24762753  1
  O  O352  1  0.74127297  0.38788911  0.75085486  1
  O  O353  1  0.74343846  0.88262765  0.24658660  1
  O  O354  1  0.74059361  0.88639892  0.73832327  1
  O  O355  1  0.25819749  0.13486513  0.25926588  1
  O  O356  1  0.25488644  0.11407558  0.75397174  1
  O  O357  1  0.24588942  0.61107252  0.25071603  1
  O  O358  1  0.25117681  0.62428773  0.75598094  1
  O  O359  1  0.74526057  0.11419083  0.25879261  1
  O  O360  1  0.74361345  0.11974806  0.75795366  1
  O  O361  1  0.75866948  0.61853251  0.25395037  1
  O  O362  1  0.74405764  0.61332566  0.75880968  1
  O  O363  1  0.36591192  0.12253648  0.36755457  1
  O  O364  1  0.36860417  0.11781729  0.86717935  1
  O  O365  1  0.37470978  0.61240906  0.38289780  1
  O  O366  1  0.35676873  0.62523991  0.86868855  1
  O  O367  1  0.86390790  0.13320463  0.37454634  1
  O  O368  1  0.86238140  0.12267723  0.88010323  1
  O  O369  1  0.87484986  0.61917933  0.37023103  1
  O  O370  1  0.86882909  0.61877050  0.87497262  1
  O  O371  1  0.13127760  0.38340954  0.13121428  1
  O  O372  1  0.12949543  0.36926157  0.63650575  1
  O  O373  1  0.13512897  0.88115134  0.13059437  1
  O  O374  1  0.12981549  0.86997429  0.63814070  1
  O  O375  1  0.62798011  0.37015373  0.13814167  1
  O  O376  1  0.62549644  0.38075375  0.63818006  1
  O  O377  1  0.63239706  0.87560918  0.13918135  1
  O  O378  1  0.62931260  0.88624451  0.62766114  1
  O  O379  1  0.12713561  0.26562621  0.24986674  1
  O  O380  1  0.12929781  0.25407312  0.75986714  1
  O  O381  1  0.12273286  0.75503786  0.25683304  1
  O  O382  1  0.12396358  0.76368579  0.75739376  1
  O  O383  1  0.61844542  0.25497276  0.25367152  1
  O  O384  1  0.61975684  0.25969086  0.75637240  1
  O  O385  1  0.61876654  0.75679710  0.25751340  1
  O  O386  1  0.61405080  0.75284831  0.76214279  1
  O  O387  1  0.38319630  0.24253396  0.24991916  1
  O  O388  1  0.37320781  0.23927695  0.74115265  1
  O  O389  1  0.38864468  0.75139848  0.26018604  1
  O  O390  1  0.38804726  0.75001737  0.75059427  1
  O  O391  1  0.86537837  0.25602864  0.23481846  1
  O  O392  1  0.86756557  0.25387959  0.73835574  1
  O  O393  1  0.87936584  0.74197597  0.24612263  1
  O  O394  1  0.86211386  0.74179227  0.73622112  1
  O  O395  1  0.38279271  0.49359705  0.49242710  1
  O  O396  1  0.38463098  0.48708492  0.99900137  1
  O  O397  1  0.37662290  0.98902110  0.49742493  1
  O  O398  1  0.38373238  1.00438051  0.98728701  1
  O  O399  1  0.87287652  0.48803121  0.49308906  1
  O  O400  1  0.88394180  0.49617649  0.99589257  1
  O  O401  1  0.88183767  0.99309936  0.50357571  1
  O  O402  1  0.88964056  1.00072732  1.00287131  1
  O  O403  1  0.11712325  -0.00003178  0.00841641  1
  O  O404  1  0.11891416  0.01279088  0.50232651  1
  O  O405  1  0.12055000  0.50303036  0.00889165  1
  O  O406  1  0.12667789  0.51355084  0.49205649  1
  O  O407  1  0.61995032  0.01319961  0.00490010  1
  O  O408  1  0.62314070  0.01030635  0.50771705  1
  O  O409  1  0.61443216  0.50612741  -0.00114164  1
  O  O410  1  0.62304119  0.50562073  0.50131524  1
  O  O411  1  0.36459735  0.37203154  0.11698535  1
  O  O412  1  0.36508995  0.36428979  0.61504273  1
  O  O413  1  0.35913204  0.87892471  0.12917160  1
  O  O414  1  0.36729040  0.87294007  0.61784765  1
  O  O415  1  0.87515375  0.36807318  0.11580902  1
  O  O416  1  0.87416065  0.36318262  0.62084548  1
  O  O417  1  0.86476462  0.86232877  0.12888812  1
  O  O418  1  0.86374197  0.87547636  0.61473358  1
  O  O419  1  0.12994710  0.12934292  0.38214242  1
  O  O420  1  0.13046257  0.13252270  0.87650759  1
  O  O421  1  0.12641298  0.63170711  0.38462942  1
  O  O422  1  0.13123113  0.63097677  0.87970159  1
  O  O423  1  0.63305458  0.13225810  0.38267201  1
  O  O424  1  0.63002148  0.13424972  0.88282055  1
  O  O425  1  0.62404455  0.63266408  0.38233255  1
  O  O426  1  0.63161809  0.63411129  0.88655308  1
