# generated using pymatgen
data_V85Zn86O256
_symmetry_space_group_name_H-M   'P 1'
_cell_length_a   16.95064430
_cell_length_b   16.94553572
_cell_length_c   16.94035836
_cell_angle_alpha   89.92592659
_cell_angle_beta   90.02782247
_cell_angle_gamma   90.01027590
_symmetry_Int_Tables_number   1
_chemical_formula_structural   V85Zn86O256
_chemical_formula_sum   'V85 Zn86 O256'
_cell_volume   4865.90567421
_cell_formula_units_Z   1
loop_
 _symmetry_equiv_pos_site_id
 _symmetry_equiv_pos_as_xyz
  1  'x, y, z'
loop_
 _atom_site_type_symbol
 _atom_site_label
 _atom_site_symmetry_multiplicity
 _atom_site_fract_x
 _atom_site_fract_y
 _atom_site_fract_z
 _atom_site_occupancy
  V  V0  1  0.87611401  0.87476970  0.00396246  1
  V  V1  1  0.00083993  0.74814037  0.75223321  1
  V  V2  1  0.24697148  0.37812126  0.61967595  1
  V  V3  1  0.24848973  0.50734369  0.75161366  1
  V  V4  1  0.12947968  0.38669029  0.24231616  1
  V  V5  1  0.36842838  0.86456702  0.00113891  1
  V  V6  1  0.49466855  0.49573923  0.50162353  1
  V  V7  1  0.24910500  0.00130932  0.74800178  1
  V  V8  1  0.44136411  0.82409675  0.43800772  1
  V  V9  1  -0.00051629  0.50809149  0.00486935  1
  V  V10  1  0.00300344  0.24979139  0.25074921  1
  V  V11  1  0.75565825  0.36853221  0.62727201  1
  V  V12  1  0.37380635  0.11833228  0.25062927  1
  V  V13  1  0.13735037  0.25234650  0.37759083  1
  V  V14  1  0.01074128  0.00424116  0.00181576  1
  V  V15  1  0.00441335  0.50218693  0.50679913  1
  V  V16  1  0.62880114  0.00331693  0.61961342  1
  V  V17  1  0.87679964  0.24586068  0.12358250  1
  V  V18  1  0.87651491  0.74825979  0.62690845  1
  V  V19  1  0.24145905  0.86993985  0.12009285  1
  V  V20  1  0.62590437  0.75192732  0.87250483  1
  V  V21  1  0.63058118  0.88217001  0.75136844  1
  V  V22  1  0.24450689  0.12447136  0.87833049  1
  V  V23  1  0.12273792  0.00080210  0.62329054  1
  V  V24  1  0.62680606  0.37386651  0.25262086  1
  V  V25  1  0.11758228  0.87741572  0.25112614  1
  V  V26  1  0.25091488  0.24992621  0.00471058  1
  V  V27  1  0.37153552  0.50016903  0.35510832  1
  V  V28  1  0.87707518  0.37970674  -0.00386817  1
  V  V29  1  0.12151737  0.74980000  0.37740679  1
  V  V30  1  0.24974130  0.62197941  0.36083393  1
  V  V31  1  -0.00149266  0.87577824  0.87607199  1
  V  V32  1  0.74666313  0.24957060  -0.00346311  1
  V  V33  1  0.49828747  0.00413597  0.49333576  1
  V  V34  1  0.49816761  0.12395575  0.12447637  1
  V  V35  1  0.73277759  0.24611384  0.49652582  1
  V  V36  1  0.62501136  0.75130038  0.37116173  1
  V  V37  1  0.00172896  0.38444779  0.87672134  1
  V  V38  1  0.49239645  0.62837880  0.62860081  1
  V  V39  1  0.24171383  0.00051091  0.24529918  1
  V  V40  1  0.37341984  0.12687779  0.74912132  1
  V  V41  1  0.50205229  0.37099949  0.87682808  1
  V  V42  1  0.74897807  0.37221572  0.12532799  1
  V  V43  1  0.74685297  0.12462634  0.86981520  1
  V  V44  1  0.75456268  0.88015477  0.62899017  1
  V  V45  1  0.75439903  0.61898715  0.87612268  1
  V  V46  1  0.50078598  0.50091004  -0.00064129  1
  V  V47  1  0.75422146  0.74936538  0.00132651  1
  V  V48  1  0.61574766  0.87526109  0.25419152  1
  V  V49  1  0.01400226  0.12382364  0.11869252  1
  V  V50  1  0.87254944  0.50358682  0.37219041  1
  V  V51  1  0.13592471  0.63143593  0.00752776  1
  V  V52  1  0.50182665  0.24877179  0.75375686  1
  V  V53  1  0.62257756  0.62657961  -0.00018784  1
  V  V54  1  -0.01621726  0.62910847  0.13070891  1
  V  V55  1  -0.01433477  0.75152771  0.25203786  1
  V  V56  1  0.87786377  0.36298996  0.50360157  1
  V  V57  1  0.37284037  0.50869614  0.87342964  1
  V  V58  1  0.62486295  0.37209109  0.75395552  1
  V  V59  1  0.62489929  -0.00253566  0.12391983  1
  V  V60  1  0.12554387  0.87466717  0.74850618  1
  V  V61  1  0.13075639  0.13075072  0.50120881  1
  V  V62  1  0.00294156  -0.00240451  0.48990781  1
  V  V63  1  0.50369829  0.37131740  0.37639316  1
  V  V64  1  0.75171692  0.74566716  0.50033300  1
  V  V65  1  0.00079456  0.37449208  0.37528378  1
  V  V66  1  0.50374311  0.12676395  0.61867669  1
  V  V67  1  0.12448361  0.25186313  0.88017376  1
  V  V68  1  0.49772762  0.87701671  0.87332609  1
  V  V69  1  0.87133938  0.00102475  0.86865753  1
  V  V70  1  0.75192979  0.86949511  0.12506049  1
  V  V71  1  0.49633254  0.63183307  0.13693503  1
  V  V72  1  0.49431885  -0.00083458  0.00369229  1
  V  V73  1  0.62619344  0.50012447  0.62421340  1
  V  V74  1  0.62364016  0.12860716  -0.00274373  1
  V  V75  1  0.75524775  0.00105259  0.25108963  1
  V  V76  1  0.12804796  0.38048396  0.75069498  1
  V  V77  1  0.75292062  0.49839094  0.75199148  1
  V  V78  1  0.36815760  0.25060951  0.61703554  1
  V  V79  1  0.87716925  0.61781001  0.75323910  1
  V  V80  1  0.49947257  0.24741183  0.25352411  1
  V  V81  1  0.26120029  0.86928034  0.61583420  1
  V  V82  1  0.88138351  0.87441564  0.49225821  1
  V  V83  1  -0.00566768  0.24794111  0.74718209  1
  V  V84  1  0.13824876  0.74635205  0.87820842  1
  Zn  Zn85  1  0.75144590  0.62741818  0.36184746  1
  Zn  Zn86  1  0.74655633  0.12403980  0.38528281  1
  Zn  Zn87  1  0.25907457  0.40294969  0.13955965  1
  Zn  Zn88  1  -0.00643583  0.13227155  0.61890387  1
  Zn  Zn89  1  0.36673823  0.37104389  0.49469499  1
  Zn  Zn90  1  0.36796561  0.74253606  0.13600609  1
  Zn  Zn91  1  0.49557066  0.75671539  0.74164295  1
  Zn  Zn92  1  0.86677145  0.12589278  0.74466430  1
  Zn  Zn93  1  0.37303121  0.25399435  0.12592332  1
  Zn  Zn94  1  0.62715547  0.50212007  0.12675760  1
  Zn  Zn95  1  0.62882534  0.62184420  0.49844276  1
  Zn  Zn96  1  0.75699338  0.50285690  0.24446791  1
  Zn  Zn97  1  0.26207257  0.74714929  0.49954681  1
  Zn  Zn98  1  0.13545783  0.62041416  0.50422934  1
  Zn  Zn99  1  0.87735140  0.00123200  0.37398056  1
  Zn  Zn100  1  0.36536367  0.63616718  0.75125887  1
  Zn  Zn101  1  0.87926647  0.12272752  0.25361600  1
  Zn  Zn102  1  0.25239880  0.12407585  0.37864608  1
  Zn  Zn103  1  0.37426684  0.37525109  0.00232581  1
  Zn  Zn104  1  0.37093494  -0.00349609  0.37908840  1
  Zn  Zn105  1  0.37188135  0.00104635  0.87482185  1
  Zn  Zn106  1  0.00891080  0.61739624  0.63110903  1
  Zn  Zn107  1  0.18746449  0.18988141  0.18973638  1
  Zn  Zn108  1  0.18364198  0.19100581  0.68925312  1
  Zn  Zn109  1  0.17974011  0.69106357  0.18696349  1
  Zn  Zn110  1  0.18623081  0.68814587  0.68273871  1
  Zn  Zn111  1  0.67352517  0.17163607  0.21662786  1
  Zn  Zn112  1  0.68552894  0.18982320  0.68459803  1
  Zn  Zn113  1  0.68733801  0.68725770  0.18834773  1
  Zn  Zn114  1  0.68581610  0.68904468  0.68834893  1
  Zn  Zn115  1  0.31528786  0.31413217  0.30942013  1
  Zn  Zn116  1  0.31424207  0.31621428  0.81376463  1
  Zn  Zn117  1  0.30104348  0.80435677  0.30643566  1
  Zn  Zn118  1  0.31550486  0.81494158  0.80634038  1
  Zn  Zn119  1  0.81514158  0.31233908  0.31506817  1
  Zn  Zn120  1  0.81377287  0.31194500  0.81741378  1
  Zn  Zn121  1  0.80709231  0.81502813  0.31341974  1
  Zn  Zn122  1  0.81334527  0.81015880  0.81388834  1
  Zn  Zn123  1  0.18781605  0.43842299  0.43274187  1
  Zn  Zn124  1  0.20322481  0.45797462  0.96621918  1
  Zn  Zn125  1  0.18761414  0.93604142  0.43322857  1
  Zn  Zn126  1  0.18655475  0.93497185  0.93507374  1
  Zn  Zn127  1  0.68842339  0.43325279  0.43958020  1
  Zn  Zn128  1  0.68544615  0.43727898  0.93725328  1
  Zn  Zn129  1  0.68938966  0.93502940  0.43881284  1
  Zn  Zn130  1  0.68809720  0.94144578  0.93854744  1
  Zn  Zn131  1  0.30818589  0.05995243  0.06553710  1
  Zn  Zn132  1  0.31305901  0.06028026  0.56208998  1
  Zn  Zn133  1  0.31641945  0.56619899  0.06352220  1
  Zn  Zn134  1  0.30891734  0.56038171  0.56012400  1
  Zn  Zn135  1  0.81559595  0.06066829  0.06209723  1
  Zn  Zn136  1  0.81621844  0.06554959  0.56379020  1
  Zn  Zn137  1  0.81383614  0.55961110  0.06255565  1
  Zn  Zn138  1  0.81899543  0.55940131  0.56234647  1
  Zn  Zn139  1  0.44373721  0.43562997  0.18080358  1
  Zn  Zn140  1  0.43262093  0.43736161  0.68891684  1
  Zn  Zn141  1  0.41204658  0.90072705  0.21230286  1
  Zn  Zn142  1  0.43907857  0.94180506  0.68645763  1
  Zn  Zn143  1  0.94221473  0.43790563  0.18507837  1
  Zn  Zn144  1  0.93771266  0.43411284  0.68867413  1
  Zn  Zn145  1  0.93961141  0.93658822  0.18445364  1
  Zn  Zn146  1  0.93897361  0.94066789  0.68486604  1
  Zn  Zn147  1  0.06482031  0.06646118  0.31185704  1
  Zn  Zn148  1  0.06291401  0.06344528  0.81570680  1
  Zn  Zn149  1  0.05870212  0.56612649  0.31539323  1
  Zn  Zn150  1  0.06653517  0.56291400  0.81883377  1
  Zn  Zn151  1  0.56985314  0.06337568  0.31499579  1
  Zn  Zn152  1  0.56429677  0.06146092  0.81116595  1
  Zn  Zn153  1  0.56910112  0.55950835  0.31387722  1
  Zn  Zn154  1  0.56353166  0.56037612  0.81214972  1
  Zn  Zn155  1  0.43782970  0.18597062  0.43652858  1
  Zn  Zn156  1  0.43270457  0.18684259  0.93611905  1
  Zn  Zn157  1  0.44059931  0.66372238  0.43430705  1
  Zn  Zn158  1  0.43752802  0.69068118  0.93546118  1
  Zn  Zn159  1  0.93806713  0.18297928  0.43481533  1
  Zn  Zn160  1  0.93712490  0.18747532  0.93552267  1
  Zn  Zn161  1  0.93802559  0.68528153  0.43598405  1
  Zn  Zn162  1  0.93720884  0.68901903  0.93711582  1
  Zn  Zn163  1  0.06611923  0.31277425  0.06198400  1
  Zn  Zn164  1  0.06631316  0.31583063  0.56397572  1
  Zn  Zn165  1  0.05944258  0.80984337  0.06661892  1
  Zn  Zn166  1  0.06426861  0.81123292  0.56485848  1
  Zn  Zn167  1  0.56258024  0.31026657  0.06576012  1
  Zn  Zn168  1  0.56060719  0.31447645  0.56657272  1
  Zn  Zn169  1  0.56215326  0.81192989  0.06276680  1
  Zn  Zn170  1  0.57138779  0.81110281  0.56466999  1
  O  O171  1  0.11294398  0.13109817  0.12517772  1
  O  O172  1  0.12134652  0.11922920  0.61943615  1
  O  O173  1  0.11340738  0.63477407  0.10988287  1
  O  O174  1  0.11943981  0.63099636  0.61566406  1
  O  O175  1  0.61935041  0.11841960  0.11675979  1
  O  O176  1  0.61619406  0.11490541  0.63126590  1
  O  O177  1  0.61829779  0.62452662  0.11134787  1
  O  O178  1  0.62305832  0.61071098  0.62479215  1
  O  O179  1  0.38270751  0.38405544  0.37552902  1
  O  O180  1  0.38891587  0.38430511  0.87533892  1
  O  O181  1  0.37681032  0.87607554  0.37870895  1
  O  O182  1  0.38216409  0.87971551  0.88222028  1
  O  O183  1  0.88297000  0.37932800  0.38476743  1
  O  O184  1  0.88421641  0.36999961  0.88931524  1
  O  O185  1  0.87085895  0.87566300  0.38996268  1
  O  O186  1  0.87898002  0.88169739  0.88011619  1
  O  O187  1  0.24985349  0.00243963  0.36215118  1
  O  O188  1  0.24798247  0.00777988  0.86758900  1
  O  O189  1  0.26513879  0.50330760  0.37614594  1
  O  O190  1  0.26324160  0.49318369  0.86919379  1
  O  O191  1  0.75114391  -0.00047937  0.36358746  1
  O  O192  1  0.75827035  0.01173212  0.88091507  1
  O  O193  1  0.76410518  0.49567912  0.37845748  1
  O  O194  1  0.74555234  0.51132806  0.86960429  1
  O  O195  1  0.23821704  0.48954083  0.07394776  1
  O  O196  1  0.25768887  0.48930075  0.63755392  1
  O  O197  1  0.24773244  0.99264895  0.13746514  1
  O  O198  1  0.23880291  0.99410887  0.62744879  1
  O  O199  1  0.75102614  0.48374446  0.12260383  1
  O  O200  1  0.74439360  0.49089391  0.62910917  1
  O  O201  1  0.74488253  0.98604606  0.12273250  1
  O  O202  1  0.74386042  0.98796386  0.61772367  1
  O  O203  1  0.00809117  0.36486703  0.25208065  1
  O  O204  1  0.00598309  0.36960810  0.75822585  1
  O  O205  1  0.00359316  0.86077558  0.24373330  1
  O  O206  1  0.00573326  0.86816937  0.75443355  1
  O  O207  1  0.50499120  0.36826346  0.25616294  1
  O  O208  1  0.50265001  0.36797491  0.75604342  1
  O  O209  1  0.51846524  0.89116382  0.25144331  1
  O  O210  1  0.50797201  0.87821134  0.75731985  1
  O  O211  1  0.49357424  0.13019537  0.24611215  1
  O  O212  1  0.49571244  0.13078216  0.74350527  1
  O  O213  1  0.50882108  0.62037749  0.23445845  1
  O  O214  1  0.50434401  0.62238523  0.73462387  1
  O  O215  1  0.99948366  0.13589942  0.24178096  1
  O  O216  1  1.00337464  0.14283892  0.75548072  1
  O  O217  1  1.00213457  0.63350464  0.23784211  1
  O  O218  1  0.99324806  0.62971740  0.75369598  1
  O  O219  1  0.36368101  0.24966614  0.00248565  1
  O  O220  1  0.37759982  0.25056256  0.51287218  1
  O  O221  1  0.37828188  0.76256473  0.00414424  1
  O  O222  1  0.38494445  0.75607822  0.48950618  1
  O  O223  1  0.87001848  0.25705110  0.00563241  1
  O  O224  1  0.87841855  0.26096172  0.50044498  1
  O  O225  1  0.86817173  0.76467444  -0.00793498  1
  O  O226  1  0.87300800  0.75486066  0.50607725  1
  O  O227  1  0.11770133  0.24300769  0.49039479  1
  O  O228  1  0.13383740  0.25262372  0.98825124  1
  O  O229  1  0.11799721  0.75162921  0.48366142  1
  O  O230  1  0.11550284  0.74340400  0.98711050  1
  O  O231  1  0.63403874  0.25458823  0.50129218  1
  O  O232  1  0.63401178  0.24031379  1.00538316  1
  O  O233  1  0.63635189  0.74996747  0.49175207  1
  O  O234  1  0.63192700  0.74385078  0.99257875  1
  O  O235  1  0.49604790  0.24117621  0.13212528  1
  O  O236  1  0.49310192  0.24326915  0.63088119  1
  O  O237  1  0.50206580  0.73376117  0.12005655  1
  O  O238  1  0.51046411  0.73127880  0.62261743  1
  O  O239  1  0.99516878  0.24643452  0.12917750  1
  O  O240  1  1.00737998  0.25290295  0.64423625  1
  O  O241  1  0.99754528  0.73966806  0.13753075  1
  O  O242  1  0.99528640  0.75158521  0.64028513  1
  O  O243  1  0.00563115  0.25494503  0.36569639  1
  O  O244  1  0.00735252  0.25928463  0.87146831  1
  O  O245  1  0.00491659  0.73946348  0.36013826  1
  O  O246  1  0.00177899  0.75663958  0.86465825  1
  O  O247  1  0.49494260  0.25940492  0.36642746  1
  O  O248  1  0.49423733  0.25727881  0.86613073  1
  O  O249  1  0.50466352  0.75716284  0.38821527  1
  O  O250  1  0.50846102  0.76550257  0.87824054  1
  O  O251  1  0.23539553  0.12010211  0.49981577  1
  O  O252  1  0.25434279  0.13521396  0.99011905  1
  O  O253  1  0.25357094  0.62867186  0.48801154  1
  O  O254  1  0.23425688  0.63417772  1.00389406  1
  O  O255  1  0.74951442  0.14176339  0.50393679  1
  O  O256  1  0.74311004  0.13130469  0.99588339  1
  O  O257  1  0.75220503  0.63706561  0.50349888  1
  O  O258  1  0.74484785  0.62675561  0.99425562  1
  O  O259  1  0.25432922  0.35313680  -0.01434803  1
  O  O260  1  0.24808241  0.38169912  0.51432145  1
  O  O261  1  0.25618455  0.88139791  0.00653749  1
  O  O262  1  0.24690680  0.87252005  0.51205091  1
  O  O263  1  0.75671349  0.36971613  0.00263078  1
  O  O264  1  0.75714438  0.36695737  0.50951539  1
  O  O265  1  0.75563507  0.87126693  0.00480692  1
  O  O266  1  0.75823941  0.86393995  0.50900351  1
  O  O267  1  0.11600536  0.48441550  0.25549581  1
  O  O268  1  0.13175767  0.48863996  0.75949845  1
  O  O269  1  0.12743592  0.99050122  0.25360896  1
  O  O270  1  0.12763131  0.99652217  0.74243729  1
  O  O271  1  0.62630220  0.48457998  0.24657958  1
  O  O272  1  0.63286832  0.49300880  0.74366010  1
  O  O273  1  0.63639530  0.99290034  0.24070375  1
  O  O274  1  0.62240634  0.98913996  0.73868355  1
  O  O275  1  0.36585009  0.00333869  0.25448440  1
  O  O276  1  0.36849723  0.00922696  0.75101950  1
  O  O277  1  0.37715227  0.49359518  0.25723333  1
  O  O278  1  0.36687035  0.50316118  0.75788670  1
  O  O279  1  0.87059559  -0.00444312  0.25384047  1
  O  O280  1  0.88106899  -0.00005991  0.76506337  1
  O  O281  1  0.87635771  0.48635198  0.26813314  1
  O  O282  1  0.87032475  0.51032838  0.74708562  1
  O  O283  1  0.11956245  0.36862742  0.36791411  1
  O  O284  1  0.11674093  0.36846833  0.87040969  1
  O  O285  1  0.12798318  0.86535885  0.36127726  1
  O  O286  1  0.11751429  0.86517043  0.86949974  1
  O  O287  1  0.61278991  0.37956575  0.36792521  1
  O  O288  1  0.61204467  0.37856860  0.86900812  1
  O  O289  1  0.63187485  0.86558132  0.36679459  1
  O  O290  1  0.62121880  0.87510068  0.86807507  1
  O  O291  1  0.37976633  0.12373324  0.13656180  1
  O  O292  1  0.38101338  0.13164626  0.63039775  1
  O  O293  1  0.38986622  0.62731175  0.12271519  1
  O  O294  1  0.39052947  0.61827991  0.62651219  1
  O  O295  1  0.88355526  0.13890354  0.11959449  1
  O  O296  1  0.88299753  0.11789972  0.63443246  1
  O  O297  1  0.88468824  0.62676379  0.12354139  1
  O  O298  1  0.87954397  0.63103741  0.63535824  1
  O  O299  1  0.24806696  0.24757409  0.10972784  1
  O  O300  1  0.25912752  0.26046460  0.63456032  1
  O  O301  1  0.24913586  0.76495131  0.12855637  1
  O  O302  1  0.24996364  0.76475147  0.62172016  1
  O  O303  1  0.75860856  0.25920920  0.11546083  1
  O  O304  1  0.74495104  0.26162590  0.61620612  1
  O  O305  1  0.74316307  0.76215455  0.11726738  1
  O  O306  1  0.75506163  0.75775861  0.62032293  1
  O  O307  1  0.24030547  0.24999614  0.37290981  1
  O  O308  1  0.24395176  0.24270784  0.87757667  1
  O  O309  1  0.24061335  0.74152480  0.37802467  1
  O  O310  1  0.23587794  0.75784629  0.87286232  1
  O  O311  1  0.75318208  0.25691024  0.39524368  1
  O  O312  1  0.75393022  0.24346366  0.88971797  1
  O  O313  1  0.74402409  0.74718661  0.38357539  1
  O  O314  1  0.74409657  0.73938173  0.87939837  1
  O  O315  1  -0.00279562  0.11685841  0.00497379  1
  O  O316  1  0.01114429  0.11643428  0.50097562  1
  O  O317  1  -0.00252787  0.62359797  0.01041955  1
  O  O318  1  -0.00490888  0.60795756  0.50163962  1
  O  O319  1  0.50510043  0.11966900  0.00140329  1
  O  O320  1  0.50033597  0.12137765  0.51149476  1
  O  O321  1  0.50851321  0.61885635  -0.00045082  1
  O  O322  1  0.50663948  0.61269716  0.51264959  1
  O  O323  1  0.49782973  0.37872717  0.49232863  1
  O  O324  1  0.50182736  0.38166753  0.99384792  1
  O  O325  1  0.49766389  0.88157074  0.50438815  1
  O  O326  1  0.49352407  0.88276259  0.99501088  1
  O  O327  1  0.99500522  0.38169631  0.49743735  1
  O  O328  1  0.99694401  0.38430346  0.99714755  1
  O  O329  1  0.99199044  0.88366125  0.50765002  1
  O  O330  1  0.99221583  0.88006661  0.99736590  1
  O  O331  1  0.49085482  0.49496828  0.38073047  1
  O  O332  1  0.49662702  0.49296881  0.88012994  1
  O  O333  1  0.50496038  1.00777809  0.38996313  1
  O  O334  1  0.50074284  0.99041400  0.88185660  1
  O  O335  1  0.98983804  0.49445783  0.38289184  1
  O  O336  1  0.99875821  0.48898877  0.87989610  1
  O  O337  1  1.00164632  1.00230810  0.38666501  1
  O  O338  1  0.99362914  0.99535445  0.88147496  1
  O  O339  1  -0.00750147  0.01221329  0.11395633  1
  O  O340  1  0.01391853  -0.00061939  0.61806904  1
  O  O341  1  -0.00177988  0.51512522  0.11843587  1
  O  O342  1  -0.00464613  0.49697071  0.61078808  1
  O  O343  1  0.50600777  0.00670824  0.11497246  1
  O  O344  1  0.50740502  0.00807821  0.61722700  1
  O  O345  1  0.50410641  0.51000476  0.11424763  1
  O  O346  1  0.50700490  0.50194909  0.61998719  1
  O  O347  1  0.23591187  0.37408098  0.24962032  1
  O  O348  1  0.24335985  0.38244888  0.74606389  1
  O  O349  1  0.23653221  0.88282974  0.24165347  1
  O  O350  1  0.24348937  0.88348992  0.74235318  1
  O  O351  1  0.74322052  0.37157310  0.24230618  1
  O  O352  1  0.74794079  0.37629722  0.74600370  1
  O  O353  1  0.74570669  0.88228995  0.24071469  1
  O  O354  1  0.74389857  0.87054249  0.74149528  1
  O  O355  1  0.25627986  0.11863125  0.24948494  1
  O  O356  1  0.25277518  0.12013238  0.75449496  1
  O  O357  1  0.24462372  0.63019371  0.26028912  1
  O  O358  1  0.24752948  0.61167849  0.74648627  1
  O  O359  1  0.76540329  0.10267793  0.22181989  1
  O  O360  1  0.74619154  0.13585833  0.76617975  1
  O  O361  1  0.74367637  0.61483979  0.24901877  1
  O  O362  1  0.75626293  0.62116194  0.75684099  1
  O  O363  1  0.37312109  0.12410680  0.36246702  1
  O  O364  1  0.36283214  0.12425232  0.86659336  1
  O  O365  1  0.36986976  0.60826327  0.36822686  1
  O  O366  1  0.38347466  0.61296144  0.87184326  1
  O  O367  1  0.86633868  0.12147239  0.37084363  1
  O  O368  1  0.86541258  0.11855333  0.87252088  1
  O  O369  1  0.87187637  0.60693733  0.38015601  1
  O  O370  1  0.86515186  0.62936569  0.86682635  1
  O  O371  1  0.12593371  0.37180069  0.14025355  1
  O  O372  1  0.13458320  0.37110277  0.63826684  1
  O  O373  1  0.12780295  0.87062462  0.13617009  1
  O  O374  1  0.13213296  0.88201773  0.63115513  1
  O  O375  1  0.63449470  0.37681793  0.12966444  1
  O  O376  1  0.63084920  0.38464127  0.63232213  1
  O  O377  1  0.63104445  0.87861778  0.12969605  1
  O  O378  1  0.63409745  0.88057734  0.63267688  1
  O  O379  1  0.11887920  0.25603319  0.25869330  1
  O  O380  1  0.11879443  0.26072628  0.76191681  1
  O  O381  1  0.11438383  0.75666357  0.25942916  1
  O  O382  1  0.11888338  0.75233430  0.76047604  1
  O  O383  1  0.60966542  0.26515433  0.23929371  1
  O  O384  1  0.60968034  0.25643932  0.74414733  1
  O  O385  1  0.62779225  0.75865590  0.26287978  1
  O  O386  1  0.62102816  0.76236609  0.75484274  1
  O  O387  1  0.38378502  0.24232218  0.24760533  1
  O  O388  1  0.38437478  0.24644515  0.74245791  1
  O  O389  1  0.38498419  0.78991939  0.23732271  1
  O  O390  1  0.38424120  0.74677746  0.75482931  1
  O  O391  1  0.88442669  0.25146984  0.24110787  1
  O  O392  1  0.89153689  0.25128468  0.75749837  1
  O  O393  1  0.88672636  0.75444215  0.25681393  1
  O  O394  1  0.88187655  0.74044775  0.74789884  1
  O  O395  1  0.38758549  0.49585077  0.49698341  1
  O  O396  1  0.38961388  0.50014771  0.99116832  1
  O  O397  1  0.38794648  1.00503742  0.49688749  1
  O  O398  1  0.38527676  0.99900840  0.99696942  1
  O  O399  1  0.88267212  0.48810812  0.49261671  1
  O  O400  1  0.88704444  0.49222342  1.00186951  1
  O  O401  1  0.88493080  0.99134220  0.50015263  1
  O  O402  1  0.88018311  0.99093902  0.98933786  1
  O  O403  1  0.10971029  -0.00434818  -0.00581876  1
  O  O404  1  0.12013995  0.00434329  0.50525029  1
  O  O405  1  0.10783513  0.52400048  -0.01476251  1
  O  O406  1  0.10689969  0.49761532  0.49158482  1
  O  O407  1  0.61425808  0.00487528  0.00480824  1
  O  O408  1  0.61864549  -0.00755600  0.51282037  1
  O  O409  1  0.61659751  0.50844063  -0.00070459  1
  O  O410  1  0.61588887  0.49650175  0.50770319  1
  O  O411  1  0.37056426  0.37259106  0.12135327  1
  O  O412  1  0.36697954  0.36631356  0.62392028  1
  O  O413  1  0.35979189  0.88380544  0.11029624  1
  O  O414  1  0.35891486  0.88327606  0.62799924  1
  O  O415  1  0.87303437  0.36636077  0.11528754  1
  O  O416  1  0.86481619  0.37829135  0.61888684  1
  O  O417  1  0.86617114  0.87848210  0.11333644  1
  O  O418  1  0.86903294  0.86980600  0.62121573  1
  O  O419  1  0.12683239  0.13602052  0.38210345  1
  O  O420  1  0.13685377  0.13481860  0.86953960  1
  O  O421  1  0.13212877  0.62960066  0.37894886  1
  O  O422  1  0.12059147  0.64142862  0.88380898  1
  O  O423  1  0.65035716  0.13780939  0.32771175  1
  O  O424  1  0.63075550  0.11806169  0.88901763  1
  O  O425  1  0.62610092  0.63438490  0.37989959  1
  O  O426  1  0.63026613  0.62940553  0.88267342  1
