# generated using pymatgen
data_V85Zn86O256
_symmetry_space_group_name_H-M   'P 1'
_cell_length_a   16.95394456
_cell_length_b   16.95754083
_cell_length_c   16.94545278
_cell_angle_alpha   89.97233786
_cell_angle_beta   89.98593495
_cell_angle_gamma   90.04289711
_symmetry_Int_Tables_number   1
_chemical_formula_structural   V85Zn86O256
_chemical_formula_sum   'V85 Zn86 O256'
_cell_volume   4871.76826480
_cell_formula_units_Z   1
loop_
 _symmetry_equiv_pos_site_id
 _symmetry_equiv_pos_as_xyz
  1  'x, y, z'
loop_
 _atom_site_type_symbol
 _atom_site_label
 _atom_site_symmetry_multiplicity
 _atom_site_fract_x
 _atom_site_fract_y
 _atom_site_fract_z
 _atom_site_occupancy
  V  V0  1  0.11062985  0.50214463  0.62722335  1
  V  V1  1  0.49117060  0.38721360  0.37243564  1
  V  V2  1  0.37439009  0.87168509  0.50518988  1
  V  V3  1  0.88272392  0.25196756  0.13163192  1
  V  V4  1  0.48921340  0.75745222  0.74234445  1
  V  V5  1  0.36997891  -0.00085795  0.36821068  1
  V  V6  1  0.24996814  -0.00195228  0.75192248  1
  V  V7  1  0.37552790  0.39790452  -0.00667095  1
  V  V8  1  0.11900346  0.37614782  0.26623827  1
  V  V9  1  0.87254254  0.60282838  0.25405953  1
  V  V10  1  0.37334898  0.12766879  0.74910613  1
  V  V11  1  0.74715336  0.12655323  0.86894904  1
  V  V12  1  0.50458986  0.62223590  0.12021527  1
  V  V13  1  0.12144972  0.74138291  0.88014254  1
  V  V14  1  0.25475952  0.25339880  -0.00160312  1
  V  V15  1  0.50096306  0.12871208  0.12452186  1
  V  V16  1  0.24687710  0.37761086  0.12719469  1
  V  V17  1  -0.00733094  0.74967905  0.25247663  1
  V  V18  1  0.12061103  0.62374729  0.50154680  1
  V  V19  1  0.00192251  -0.00361280  0.50039469  1
  V  V20  1  -0.00575889  0.51071775  0.00300214  1
  V  V21  1  0.12292437  0.37882114  0.74849033  1
  V  V22  1  0.62722269  0.12782748  -0.00103890  1
  V  V23  1  0.00010164  0.25350491  0.74645756  1
  V  V24  1  0.25737869  0.50189099  0.75333127  1
  V  V25  1  -0.00612377  0.50110368  0.48109986  1
  V  V26  1  0.87318358  0.12411537  0.74959014  1
  V  V27  1  -0.00084978  0.00229994  0.00185187  1
  V  V28  1  0.50094868  0.12236531  0.62600402  1
  V  V29  1  0.87852990  0.87082029  0.50521437  1
  V  V30  1  0.75161575  0.74493200  0.50130244  1
  V  V31  1  0.12470158  0.87200798  0.75325087  1
  V  V32  1  0.86435898  -0.00207723  0.87043179  1
  V  V33  1  0.12506870  0.25198768  0.87317760  1
  V  V34  1  0.75074047  0.38043338  0.12311131  1
  V  V35  1  0.25255005  0.87110624  0.62713296  1
  V  V36  1  0.26409108  0.62192810  0.37560101  1
  V  V37  1  0.49996260  0.87355036  0.37529373  1
  V  V38  1  0.74182356  0.49122431  0.75519805  1
  V  V39  1  0.88190433  0.73142504  0.62493548  1
  V  V40  1  0.49755454  0.74662671  0.25077002  1
  V  V41  1  0.49702303  0.00194609  0.49839928  1
  V  V42  1  0.24869687  0.12932925  0.37109267  1
  V  V43  1  -0.01351126  0.37780461  0.88501649  1
  V  V44  1  0.74899148  0.74125897  -0.00342252  1
  V  V45  1  0.75712631  0.25474142  0.00108637  1
  V  V46  1  0.50430923  0.26525744  0.75254341  1
  V  V47  1  0.62594109  0.49607830  0.11633104  1
  V  V48  1  0.75253120  0.87425873  0.12670743  1
  V  V49  1  0.25157890  0.74654310  0.50518244  1
  V  V50  1  0.26192232  0.50455227  0.25430538  1
  V  V51  1  0.12462368  0.12567073  0.00162216  1
  V  V52  1  0.37163516  0.12415580  0.24626584  1
  V  V53  1  0.63220664  0.74924136  0.85675303  1
  V  V54  1  0.87010201  0.87503782  0.00153840  1
  V  V55  1  0.37259750  0.25419938  0.61948786  1
  V  V56  1  0.37626196  0.39381812  0.49745713  1
  V  V57  1  0.50217816  0.25771314  0.24470280  1
  V  V58  1  0.00007316  0.12513345  0.62593329  1
  V  V59  1  0.87452941  0.25633975  0.62349493  1
  V  V60  1  0.25183386  0.87876140  0.13306042  1
  V  V61  1  0.00001626  0.87526300  0.87399508  1
  V  V62  1  0.62650391  0.24625512  0.36658472  1
  V  V63  1  0.37376695  -0.00262459  0.87697102  1
  V  V64  1  0.24862716  0.12545905  0.87433234  1
  V  V65  1  0.37496202  0.74254454  0.13038793  1
  V  V66  1  0.75069855  0.00701548  0.26146027  1
  V  V67  1  0.87276719  0.61067478  0.77133693  1
  V  V68  1  0.37668689  0.87074901  0.00240066  1
  V  V69  1  0.49308451  0.61545678  0.62369523  1
  V  V70  1  0.24312134  0.74650942  0.00498085  1
  V  V71  1  0.12550251  0.87399890  0.25349435  1
  V  V72  1  0.62810333  -0.00122692  0.12301456  1
  V  V73  1  0.62659305  0.12443289  0.49474508  1
  V  V74  1  0.49967693  -0.00033268  0.00151686  1
  V  V75  1  0.25367908  0.62244977  0.87805214  1
  V  V76  1  0.68040962  0.43493769  0.30631080  1
  V  V77  1  0.12715142  0.00253383  0.13171239  1
  V  V78  1  0.12815456  0.12803032  0.49638758  1
  V  V79  1  0.12531541  -0.00208342  0.62761616  1
  V  V80  1  0.24920235  0.37750016  0.62496663  1
  V  V81  1  0.75091163  0.24755710  0.49663797  1
  V  V82  1  0.62122520  0.61933279  0.50650500  1
  V  V83  1  0.62866287  0.75144252  0.37466142  1
  V  V84  1  0.87476303  0.37985473  0.48456461  1
  Zn  Zn85  1  0.12544831  0.50719504  0.12093746  1
  Zn  Zn86  1  0.75109109  0.61338494  0.37184003  1
  Zn  Zn87  1  0.87422732  0.74531543  0.12793708  1
  Zn  Zn88  1  0.03621509  0.23306162  0.30152833  1
  Zn  Zn89  1  0.73860022  0.37408040  0.62982535  1
  Zn  Zn90  1  0.87974922  0.12616712  0.25917810  1
  Zn  Zn91  1  0.00590969  0.62914503  0.12534231  1
  Zn  Zn92  1  0.00163225  0.12849173  0.13488898  1
  Zn  Zn93  1  0.62702807  0.87421803  0.25172248  1
  Zn  Zn94  1  0.50418864  0.87127166  0.87307729  1
  Zn  Zn95  1  0.86692633  -0.00012030  0.38176581  1
  Zn  Zn96  1  0.00165694  0.73438229  0.74781136  1
  Zn  Zn97  1  0.25066653  0.25659867  0.49182333  1
  Zn  Zn98  1  0.12542343  0.74566067  0.37505737  1
  Zn  Zn99  1  0.62881845  0.62441739  -0.00577067  1
  Zn  Zn100  1  0.62709228  0.26406280  0.86702552  1
  Zn  Zn101  1  0.37409439  0.62526899  0.74685898  1
  Zn  Zn102  1  0.37921782  0.25555723  0.12030711  1
  Zn  Zn103  1  -0.00027009  0.87281870  0.37633604  1
  Zn  Zn104  1  0.50270236  0.41794789  0.88331531  1
  Zn  Zn105  1  0.63627839  -0.00212593  0.64984278  1
  Zn  Zn106  1  0.74561813  0.87307393  0.64509321  1
  Zn  Zn107  1  0.19047878  0.19186336  0.18743691  1
  Zn  Zn108  1  0.18663659  0.18907162  0.68405114  1
  Zn  Zn109  1  0.18421411  0.68562467  0.19032477  1
  Zn  Zn110  1  0.18468987  0.68558267  0.68732424  1
  Zn  Zn111  1  0.68937133  0.18987677  0.18550661  1
  Zn  Zn112  1  0.68478884  0.18759551  0.68463942  1
  Zn  Zn113  1  0.69096649  0.68415499  0.18958253  1
  Zn  Zn114  1  0.69571914  0.67854046  0.68536863  1
  Zn  Zn115  1  0.31384671  0.31301406  0.30951118  1
  Zn  Zn116  1  0.31826088  0.31960306  0.81264942  1
  Zn  Zn117  1  0.31122008  0.80858941  0.31579781  1
  Zn  Zn118  1  0.31354858  0.80855734  0.81738003  1
  Zn  Zn119  1  0.81431620  0.30751315  0.31181624  1
  Zn  Zn120  1  0.80941546  0.31356496  0.81017496  1
  Zn  Zn121  1  0.81105425  0.81704570  0.31834659  1
  Zn  Zn122  1  0.81743405  0.80241931  0.81093144  1
  Zn  Zn123  1  0.18949485  0.44271550  0.43839779  1
  Zn  Zn124  1  0.18103094  0.44025625  0.93791124  1
  Zn  Zn125  1  0.19088035  0.94045428  0.43666902  1
  Zn  Zn126  1  0.18680678  0.93459670  0.94279561  1
  Zn  Zn127  1  0.65740875  0.41705173  0.48576169  1
  Zn  Zn128  1  0.68719628  0.43568914  0.93556408  1
  Zn  Zn129  1  0.68585731  0.93481875  0.50140781  1
  Zn  Zn130  1  0.68423672  0.93014802  0.81759052  1
  Zn  Zn131  1  0.31102805  0.06252660  0.06406539  1
  Zn  Zn132  1  0.31192203  0.06120243  0.56142152  1
  Zn  Zn133  1  0.30549481  0.56797332  0.06836540  1
  Zn  Zn134  1  0.30962325  0.56289650  0.56952015  1
  Zn  Zn135  1  0.81414451  0.06605491  0.06415104  1
  Zn  Zn136  1  0.81352818  0.06500789  0.56209821  1
  Zn  Zn137  1  0.82228136  0.55858562  0.06610469  1
  Zn  Zn138  1  0.80712524  0.55412144  0.56328919  1
  Zn  Zn139  1  0.43763295  0.43851842  0.18043770  1
  Zn  Zn140  1  0.56794590  0.43691673  0.67576536  1
  Zn  Zn141  1  0.44046270  0.93601619  0.18920601  1
  Zn  Zn142  1  0.43955280  0.93872547  0.68804746  1
  Zn  Zn143  1  0.94253034  0.43113862  0.18426879  1
  Zn  Zn144  1  0.93209817  0.43921386  0.68875560  1
  Zn  Zn145  1  0.93788444  0.93877467  0.18955352  1
  Zn  Zn146  1  0.93054136  0.93271119  0.68857392  1
  Zn  Zn147  1  0.06173796  0.05733170  0.31447028  1
  Zn  Zn148  1  0.05959085  0.06218576  0.81359779  1
  Zn  Zn149  1  0.07014742  0.56482566  0.30681473  1
  Zn  Zn150  1  0.05876665  0.55885082  0.81740413  1
  Zn  Zn151  1  0.56108026  0.06282281  0.31020371  1
  Zn  Zn152  1  0.55616867  0.07016795  0.81742623  1
  Zn  Zn153  1  0.55697878  0.57127049  0.31260865  1
  Zn  Zn154  1  0.57432249  0.57278373  0.80520970  1
  Zn  Zn155  1  0.43886804  0.19219589  0.43236787  1
  Zn  Zn156  1  0.43660959  0.18876552  0.93517552  1
  Zn  Zn157  1  0.43816784  0.68878561  0.44212284  1
  Zn  Zn158  1  0.46152460  0.62996962  0.91286155  1
  Zn  Zn159  1  0.92934607  0.17800198  0.43518645  1
  Zn  Zn160  1  0.93735994  0.18981620  0.93902327  1
  Zn  Zn161  1  0.93817000  0.68210193  0.43117060  1
  Zn  Zn162  1  0.93469836  0.68910398  0.93864991  1
  Zn  Zn163  1  0.06668400  0.31614496  0.06345051  1
  Zn  Zn164  1  0.04346145  0.29578532  0.50484891  1
  Zn  Zn165  1  0.06009812  0.81303890  0.06621558  1
  Zn  Zn166  1  0.06342451  0.80757718  0.56624890  1
  Zn  Zn167  1  0.56788287  0.32250229  0.04613486  1
  Zn  Zn168  1  0.55050867  0.30316353  0.55411636  1
  Zn  Zn169  1  0.56545435  0.81041456  0.05919658  1
  Zn  Zn170  1  0.56349533  0.80948328  0.56494158  1
  O  O171  1  0.12669812  0.11816645  0.12107714  1
  O  O172  1  0.12155619  0.11477648  0.62137789  1
  O  O173  1  0.11967182  0.62109945  0.12916325  1
  O  O174  1  0.12910422  0.61577059  0.61179790  1
  O  O175  1  0.62032849  0.11887252  0.12029993  1
  O  O176  1  0.61568522  0.12218532  0.61518887  1
  O  O177  1  0.61986571  0.61707574  0.12712201  1
  O  O178  1  0.61871412  0.63027830  0.61192501  1
  O  O179  1  0.37951239  0.36885260  0.38591250  1
  O  O180  1  0.37906050  0.37912587  0.88959474  1
  O  O181  1  0.37677273  0.88240957  0.38204097  1
  O  O182  1  0.37724122  0.87803360  0.88650814  1
  O  O183  1  0.87345557  0.37084103  0.38565203  1
  O  O184  1  0.88926433  0.36626924  0.87279904  1
  O  O185  1  0.87942107  0.87889878  0.39087519  1
  O  O186  1  0.88243493  0.88095249  0.88223255  1
  O  O187  1  0.26396828  0.00962952  0.37678238  1
  O  O188  1  0.25371755  0.00322716  0.87217914  1
  O  O189  1  0.25077212  0.50684044  0.36351405  1
  O  O190  1  0.23811458  0.51257181  0.86823177  1
  O  O191  1  0.74247003  -0.00720541  0.35942774  1
  O  O192  1  0.76092904  0.00911698  0.87862222  1
  O  O193  1  0.73231046  0.49077056  0.36984655  1
  O  O194  1  0.74566122  0.49295492  0.85717234  1
  O  O195  1  0.24733560  0.49586177  0.13653355  1
  O  O196  1  0.23807584  0.49453920  0.63302056  1
  O  O197  1  0.24023742  0.98985865  0.11999933  1
  O  O198  1  0.24511721  0.99297246  0.63252619  1
  O  O199  1  0.74708230  0.48679278  0.12294245  1
  O  O200  1  0.75925081  0.48925521  0.64018451  1
  O  O201  1  0.74425670  0.99124007  0.12668309  1
  O  O202  1  0.74133199  0.98897483  0.59802555  1
  O  O203  1  0.01820552  0.37322370  0.25065618  1
  O  O204  1  0.00574436  0.37185423  0.75750779  1
  O  O205  1  0.00886514  0.87031073  0.25240104  1
  O  O206  1  0.00212603  0.87423206  0.76411147  1
  O  O207  1  0.48975590  0.36263058  0.25271550  1
  O  O208  1  0.50311158  0.36668364  0.74820130  1
  O  O209  1  0.50472182  0.86648334  0.25730424  1
  O  O210  1  0.49603891  0.86259409  0.75187353  1
  O  O211  1  0.49139388  0.13451492  0.24436984  1
  O  O212  1  0.49007100  0.13080233  0.74062986  1
  O  O213  1  0.50082973  0.64024881  0.23958310  1
  O  O214  1  0.50060723  0.63682381  0.73416219  1
  O  O215  1  1.00293372  0.13273829  0.25325620  1
  O  O216  1  0.99642402  0.13348690  0.74460079  1
  O  O217  1  0.99030137  0.63282905  0.25413132  1
  O  O218  1  0.98152446  0.61896906  0.75790554  1
  O  O219  1  0.36266641  0.25043601  -0.00155771  1
  O  O220  1  0.37345810  0.24717017  0.51153691  1
  O  O221  1  0.36408202  0.76392834  0.01196930  1
  O  O222  1  0.36560323  0.76203728  0.49673940  1
  O  O223  1  0.86258569  0.24168139  0.01128924  1
  O  O224  1  0.86541897  0.25432887  0.50596302  1
  O  O225  1  0.86989765  0.75945105  0.00332212  1
  O  O226  1  0.87402073  0.74869366  0.50782058  1
  O  O227  1  0.13565897  0.23088553  0.51476527  1
  O  O228  1  0.13695449  0.24667710  0.99518128  1
  O  O229  1  0.13088951  0.74059978  0.50014054  1
  O  O230  1  0.13293279  0.76021655  0.99323016  1
  O  O231  1  0.62778735  0.24044783  0.49012123  1
  O  O232  1  0.63737537  0.23610817  1.00841905  1
  O  O233  1  0.63535815  0.74297289  0.49472146  1
  O  O234  1  0.63707759  0.74814916  0.99639077  1
  O  O235  1  0.50124910  0.24713762  0.12868329  1
  O  O236  1  0.49243545  0.24073858  0.63354363  1
  O  O237  1  0.49313079  0.75046708  0.13306840  1
  O  O238  1  0.50448339  0.74701444  0.63895454  1
  O  O239  1  0.98563048  0.25112757  0.11710069  1
  O  O240  1  0.99170042  0.24212484  0.62262758  1
  O  O241  1  0.99596234  0.75117950  0.13640311  1
  O  O242  1  0.98610996  0.75075465  0.63001111  1
  O  O243  1  0.00616959  0.25161294  0.40542217  1
  O  O244  1  0.00656828  0.25648144  0.86884714  1
  O  O245  1  0.00604040  0.75331506  0.36836574  1
  O  O246  1  0.00584590  0.75805818  0.87561221  1
  O  O247  1  0.50914362  0.25969499  0.36546794  1
  O  O248  1  0.49566586  0.24480203  0.85453194  1
  O  O249  1  0.50356196  0.75301666  0.36801195  1
  O  O250  1  0.51179862  0.74232935  0.85430375  1
  O  O251  1  0.24393613  0.12226016  0.49051706  1
  O  O252  1  0.24506769  0.13268934  0.99423516  1
  O  O253  1  0.24534522  0.63055855  0.49707316  1
  O  O254  1  0.25079494  0.63932025  0.99527280  1
  O  O255  1  0.74035685  0.13871547  0.50246657  1
  O  O256  1  0.74427318  0.12865125  0.99032538  1
  O  O257  1  0.74094649  0.62893579  0.49689873  1
  O  O258  1  0.75620154  0.64001614  1.01243805  1
  O  O259  1  0.25648609  0.37098061  0.00334493  1
  O  O260  1  0.25603556  0.37473198  0.50510118  1
  O  O261  1  0.25448218  0.86751868  0.01217277  1
  O  O262  1  0.25489172  0.86813644  0.50452004  1
  O  O263  1  0.74878737  0.36444502  0.00945055  1
  O  O264  1  0.75844206  0.36293529  0.50402581  1
  O  O265  1  0.76388810  0.86776014  0.00829816  1
  O  O266  1  0.76431841  0.85364617  0.49316397  1
  O  O267  1  0.13542305  0.48764748  0.24854414  1
  O  O268  1  0.12698968  0.49519961  0.74532466  1
  O  O269  1  0.12198916  0.99247122  0.23811723  1
  O  O270  1  0.13043315  0.99280061  0.74852209  1
  O  O271  1  0.62736791  0.49930807  0.24687425  1
  O  O272  1  0.63620934  0.50214248  0.74223439  1
  O  O273  1  0.63142568  0.99860772  0.23912554  1
  O  O274  1  0.62058764  1.00187915  0.75936648  1
  O  O275  1  0.38157884  0.00954515  0.25706284  1
  O  O276  1  0.36876763  0.00479247  0.75684293  1
  O  O277  1  0.36035246  0.49754104  0.24554737  1
  O  O278  1  0.35590559  0.50400210  0.74669272  1
  O  O279  1  0.86066889  -0.00110489  0.25138249  1
  O  O280  1  0.88542642  0.01083149  0.76101007  1
  O  O281  1  0.87998860  0.50470778  0.24974055  1
  O  O282  1  0.86857578  0.50550884  0.75629936  1
  O  O283  1  0.13061010  0.37549339  0.36603792  1
  O  O284  1  0.12039239  0.36870930  0.86322078  1
  O  O285  1  0.12960472  0.87783656  0.36144625  1
  O  O286  1  0.11795081  0.86836478  0.87261215  1
  O  O287  1  0.61972555  0.37402307  0.37452239  1
  O  O288  1  0.60194920  0.36577656  0.90986062  1
  O  O289  1  0.61640329  0.86046234  0.38001404  1
  O  O290  1  0.61991419  0.85427508  0.87893263  1
  O  O291  1  0.38181219  0.12587550  0.13044078  1
  O  O292  1  0.37888699  0.13087745  0.62993837  1
  O  O293  1  0.38069575  0.63841929  0.12277189  1
  O  O294  1  0.38831571  0.62657250  0.62424892  1
  O  O295  1  0.87762798  0.13657199  0.13035462  1
  O  O296  1  0.87907438  0.13323288  0.62975447  1
  O  O297  1  0.88225596  0.62656650  0.14129489  1
  O  O298  1  0.87633060  0.63196514  0.62030474  1
  O  O299  1  0.25375789  0.25876172  0.11450101  1
  O  O300  1  0.25875225  0.25877221  0.62693468  1
  O  O301  1  0.25586047  0.75545255  0.12257892  1
  O  O302  1  0.24538174  0.75471047  0.61351819  1
  O  O303  1  0.75724835  0.25794422  0.12016429  1
  O  O304  1  0.75667812  0.25112401  0.61803698  1
  O  O305  1  0.75081595  0.76289461  0.12181423  1
  O  O306  1  0.76317248  0.74918053  0.61739332  1
  O  O307  1  0.25868225  0.23369322  0.37562024  1
  O  O308  1  0.24546069  0.24735401  0.87860244  1
  O  O309  1  0.24649568  0.74281262  0.38690870  1
  O  O310  1  0.24000614  0.74809802  0.88588589  1
  O  O311  1  0.73577903  0.25586868  0.38185350  1
  O  O312  1  0.74781527  0.24485333  0.88330793  1
  O  O313  1  0.74270690  0.74480932  0.38082582  1
  O  O314  1  0.74160422  0.75397372  0.88350641  1
  O  O315  1  0.00893709  0.11959313  0.00048162  1
  O  O316  1  0.00935211  0.11342439  0.50850647  1
  O  O317  1  -0.00362354  0.61466951  -0.00045958  1
  O  O318  1  0.00662260  0.61166444  0.49611587  1
  O  O319  1  0.50656467  0.12237804  0.00395003  1
  O  O320  1  0.50430368  0.12526953  0.50696403  1
  O  O321  1  0.50582210  0.63903043  0.01744535  1
  O  O322  1  0.51037265  0.63811690  0.51368053  1
  O  O323  1  0.48666945  0.37186977  0.48653664  1
  O  O324  1  0.47564270  0.37994880  1.00881335  1
  O  O325  1  0.48997946  0.87828593  0.49444606  1
  O  O326  1  0.49080092  0.88009106  1.00102160  1
  O  O327  1  0.98907575  0.39367522  0.50534612  1
  O  O328  1  0.99998666  0.36795277  0.98589020  1
  O  O329  1  0.99734659  0.87935524  0.50282859  1
  O  O330  1  0.99162935  0.88002786  0.99265998  1
  O  O331  1  0.49931407  0.48620394  0.36187607  1
  O  O332  1  0.49706738  0.52901920  0.87290719  1
  O  O333  1  0.48913181  0.99469942  0.37741758  1
  O  O334  1  0.48990011  0.99934323  0.88564378  1
  O  O335  1  1.00536938  0.50074729  0.38390163  1
  O  O336  1  1.00233079  0.48489888  0.88598624  1
  O  O337  1  1.00334121  0.99445420  0.39208415  1
  O  O338  1  0.99416435  0.99312288  0.88268000  1
  O  O339  1  0.00815599  0.00272737  0.11903028  1
  O  O340  1  0.00494368  0.00187785  0.61890560  1
  O  O341  1  0.00218771  0.49903680  0.11346737  1
  O  O342  1  0.00945900  0.49785597  0.62438105  1
  O  O343  1  0.50804824  0.00540683  0.12124486  1
  O  O344  1  0.49737970  0.01242065  0.61821403  1
  O  O345  1  0.51144963  0.51075502  0.13192629  1
  O  O346  1  0.49993774  0.51707518  0.62686885  1
  O  O347  1  0.24771153  0.38407232  0.24445830  1
  O  O348  1  0.24254007  0.38264080  0.74822482  1
  O  O349  1  0.24412976  0.86896383  0.23958521  1
  O  O350  1  0.24649248  0.87692885  0.74723246  1
  O  O351  1  0.74333246  0.37674977  0.24766716  1
  O  O352  1  0.74697873  0.38255800  0.74716439  1
  O  O353  1  0.74751032  0.88296012  0.24179201  1
  O  O354  1  0.76569471  0.88321931  0.75543886  1
  O  O355  1  0.26328207  0.12756111  0.25367193  1
  O  O356  1  0.25387900  0.12003406  0.75496418  1
  O  O357  1  0.24740923  0.61352560  0.26037754  1
  O  O358  1  0.24713738  0.61932760  0.75818138  1
  O  O359  1  0.74711381  0.10854991  0.24457724  1
  O  O360  1  0.75340247  0.13279324  0.76252231  1
  O  O361  1  0.76753655  0.62479656  0.25170985  1
  O  O362  1  0.76478931  0.60927278  0.74412001  1
  O  O363  1  0.37293361  0.11838050  0.36615729  1
  O  O364  1  0.36718145  0.11901453  0.86908866  1
  O  O365  1  0.36358890  0.62867025  0.38097725  1
  O  O366  1  0.35581430  0.63749658  0.86947577  1
  O  O367  1  0.86844787  0.11282009  0.37313268  1
  O  O368  1  0.86775133  0.11935952  0.87082392  1
  O  O369  1  0.87078302  0.62329476  0.35984203  1
  O  O370  1  0.86799883  0.62649899  0.86864358  1
  O  O371  1  0.13898423  0.37669219  0.12853476  1
  O  O372  1  0.12976372  0.38260346  0.63932361  1
  O  O373  1  0.13179177  0.88117601  0.13423925  1
  O  O374  1  0.13088107  0.87829857  0.63380869  1
  O  O375  1  0.63279682  0.38437628  0.12232555  1
  O  O376  1  0.62367073  0.37917845  0.59568957  1
  O  O377  1  0.63328678  0.88429092  0.12367766  1
  O  O378  1  0.63386654  0.88719773  0.60155013  1
  O  O379  1  0.13267152  0.26812075  0.24902908  1
  O  O380  1  0.11876155  0.25809781  0.75156548  1
  O  O381  1  0.11593641  0.75901928  0.25282645  1
  O  O382  1  0.12074884  0.75516846  0.75882511  1
  O  O383  1  0.61631508  0.24606525  0.25573930  1
  O  O384  1  0.60877019  0.24708489  0.74885985  1
  O  O385  1  0.61924285  0.75139253  0.25776408  1
  O  O386  1  0.62969829  0.74839376  0.75366282  1
  O  O387  1  0.38309651  0.24159317  0.24458425  1
  O  O388  1  0.38285149  0.25016833  0.73899086  1
  O  O389  1  0.38364810  0.75843624  0.24130163  1
  O  O390  1  0.38612680  0.74848141  0.75025561  1
  O  O391  1  0.87182098  0.24509122  0.23715327  1
  O  O392  1  0.88046402  0.24467456  0.74223090  1
  O  O393  1  0.88667301  0.75829667  0.25179685  1
  O  O394  1  0.87581235  0.73122584  0.73962537  1
  O  O395  1  0.37067596  0.49232984  0.50194410  1
  O  O396  1  0.36532338  0.49661985  1.00005888  1
  O  O397  1  0.37946445  0.99404455  0.49148433  1
  O  O398  1  0.37693842  0.98982864  0.99834659  1
  O  O399  1  0.88551029  0.49558665  0.49834107  1
  O  O400  1  0.89349107  0.49360186  1.00316476  1
  O  O401  1  0.88643908  0.98907743  0.50476034  1
  O  O402  1  0.87915795  0.99475852  0.99266748  1
  O  O403  1  0.12000705  0.00410090  0.00999095  1
  O  O404  1  0.12194673  0.00522286  0.50766752  1
  O  O405  1  0.10354096  0.48772962  0.00362517  1
  O  O406  1  0.11403514  0.50354565  0.50694888  1
  O  O407  1  0.61953515  0.01362551  0.01267258  1
  O  O408  1  0.61146809  0.01770041  0.48180489  1
  O  O409  1  0.63278440  0.50784755  0.01303850  1
  O  O410  1  0.61775483  0.52198114  0.49125709  1
  O  O411  1  0.36162885  0.37642678  0.11451161  1
  O  O412  1  0.36796167  0.36587490  0.61197871  1
  O  O413  1  0.36793118  0.87187495  0.12187953  1
  O  O414  1  0.36865005  0.88328842  0.61262442  1
  O  O415  1  0.86575750  0.36142194  0.13182506  1
  O  O416  1  0.87807055  0.36159060  0.61984575  1
  O  O417  1  0.86877845  0.87697206  0.11764259  1
  O  O418  1  0.87406880  0.86351661  0.61503991  1
  O  O419  1  0.13625326  0.11660580  0.38363312  1
  O  O420  1  0.13011107  0.13130112  0.87956209  1
  O  O421  1  0.13565360  0.62262818  0.38848453  1
  O  O422  1  0.12978107  0.63801537  0.87270571  1
  O  O423  1  0.61639274  0.13689528  0.38000537  1
  O  O424  1  0.63143120  0.13251231  0.88446257  1
  O  O425  1  0.62266653  0.63736684  0.38401730  1
  O  O426  1  0.63077289  0.64412994  0.87780225  1
