# generated using pymatgen
data_V85Zn86O256
_symmetry_space_group_name_H-M   'P 1'
_cell_length_a   16.97424131
_cell_length_b   16.96187373
_cell_length_c   16.96313390
_cell_angle_alpha   90.18455397
_cell_angle_beta   90.03381721
_cell_angle_gamma   89.94851370
_symmetry_Int_Tables_number   1
_chemical_formula_structural   V85Zn86O256
_chemical_formula_sum   'V85 Zn86 O256'
_cell_volume   4883.91149239
_cell_formula_units_Z   1
loop_
 _symmetry_equiv_pos_site_id
 _symmetry_equiv_pos_as_xyz
  1  'x, y, z'
loop_
 _atom_site_type_symbol
 _atom_site_label
 _atom_site_symmetry_multiplicity
 _atom_site_fract_x
 _atom_site_fract_y
 _atom_site_fract_z
 _atom_site_occupancy
  V  V0  1  0.49234233  0.00706951  0.50217723  1
  V  V1  1  0.11945211  0.00134410  0.12212770  1
  V  V2  1  0.89133637  0.24695354  0.12752224  1
  V  V3  1  0.48419499  0.25196471  0.75892054  1
  V  V4  1  0.87499052  0.25072290  0.62576136  1
  V  V5  1  0.25268607  0.35470520  0.12024139  1
  V  V6  1  0.62612968  0.87983131  0.25209694  1
  V  V7  1  0.74937291  0.00851804  0.25056612  1
  V  V8  1  0.75488093  0.37803868  0.14001774  1
  V  V9  1  0.74669524  0.12915413  0.37608712  1
  V  V10  1  0.12823690  0.48466505  0.62765554  1
  V  V11  1  0.25110643  0.12544695  0.37384107  1
  V  V12  1  0.74322476  0.25339734  0.49893473  1
  V  V13  1  0.38195881  0.48151510  0.37878432  1
  V  V14  1  0.12513371  0.74810190  0.37463089  1
  V  V15  1  0.62548478  0.87802005  0.75068021  1
  V  V16  1  0.75125499  0.87813410  0.12735062  1
  V  V17  1  0.12725293  0.74235566  0.87683672  1
  V  V18  1  0.75415450  0.25675281  0.00543135  1
  V  V19  1  0.88014645  0.74771197  0.12207676  1
  V  V20  1  0.62465355  0.12669171  0.00318621  1
  V  V21  1  0.49746410  0.74914588  0.74698713  1
  V  V22  1  0.88869392  0.12715566  0.24679165  1
  V  V23  1  0.25184950  0.62083243  0.37828618  1
  V  V24  1  0.73751925  0.75565253  0.49959705  1
  V  V25  1  -0.00172826  0.74322545  0.24766771  1
  V  V26  1  0.00053988  0.49763444  0.49773880  1
  V  V27  1  0.12054138  0.12057766  0.50391822  1
  V  V28  1  0.74888723  0.37913510  0.63948351  1
  V  V29  1  0.24429418  0.12528358  0.87307270  1
  V  V30  1  0.49802910  0.62117055  0.12579569  1
  V  V31  1  0.00098196  0.74910208  0.74585536  1
  V  V32  1  0.86812342  0.61967035  0.24982158  1
  V  V33  1  0.49103337  0.61849100  0.62749200  1
  V  V34  1  0.75237407  0.12853538  0.87598230  1
  V  V35  1  0.35980233  0.75224632  0.12593722  1
  V  V36  1  0.26050731  0.25445762  0.50422443  1
  V  V37  1  -0.00126666  0.62201767  0.62192497  1
  V  V38  1  0.86649757  0.61643946  0.74505673  1
  V  V39  1  0.87189063  0.74904403  0.62183506  1
  V  V40  1  0.49823903  0.75338113  0.24896245  1
  V  V41  1  0.24794891  -0.00693734  0.24137037  1
  V  V42  1  0.87640736  0.87944972  0.50195734  1
  V  V43  1  0.00252117  0.87585111  0.87286753  1
  V  V44  1  0.37258237  -0.00259997  0.37546972  1
  V  V45  1  0.25437763  0.50021526  0.76226045  1
  V  V46  1  0.37424397  0.00965278  0.86833444  1
  V  V47  1  0.61627462  0.62301078  0.50069704  1
  V  V48  1  0.62210462  0.00709794  0.62601080  1
  V  V49  1  0.49714479  0.39383204  0.88260101  1
  V  V50  1  0.62876034  0.49822713  0.63792301  1
  V  V51  1  0.48290883  0.13123663  0.63477949  1
  V  V52  1  0.12584247  0.62286924  0.50047316  1
  V  V53  1  0.12159675  0.24862366  0.37127703  1
  V  V54  1  0.36091023  0.87598839  -0.00024401  1
  V  V55  1  -0.00078630  0.36983556  0.37070819  1
  V  V56  1  0.00812258  0.25702254  0.74860339  1
  V  V57  1  0.49771127  0.88004667  0.37560571  1
  V  V58  1  0.87990787  0.12596350  0.74937069  1
  V  V59  1  0.29244058  0.69105272  -0.05791069  1
  V  V60  1  0.49898050  0.00197721  0.00554433  1
  V  V61  1  0.00024437  0.87738367  0.37740246  1
  V  V62  1  0.25433232  0.76204887  0.50399505  1
  V  V63  1  0.13211812  0.87261534  0.74016478  1
  V  V64  1  0.87491820  0.37315533  0.50073549  1
  V  V65  1  0.12498679  0.25267658  0.87951717  1
  V  V66  1  0.27181932  0.37458759  0.62914141  1
  V  V67  1  0.12553734  0.86976659  0.23873700  1
  V  V68  1  0.63465876  0.50436219  0.13775614  1
  V  V69  1  0.00330876  0.38664113  0.87959241  1
  V  V70  1  0.74803801  0.75315176  -0.00171422  1
  V  V71  1  0.87642929  -0.00110412  0.37638392  1
  V  V72  1  0.61324363  0.37838649  0.25971831  1
  V  V73  1  0.62963629  0.26190050  0.86713929  1
  V  V74  1  0.25309999  0.00041255  0.73704453  1
  V  V75  1  0.62788494  0.75316903  0.87574954  1
  V  V76  1  -0.00073935  0.00869435  0.00080294  1
  V  V77  1  0.37692214  0.12366143  0.22802776  1
  V  V78  1  0.87639236  -0.00045785  0.87419673  1
  V  V79  1  0.37416530  0.62354005  0.25283601  1
  V  V80  1  0.62513886  0.61602994  0.00103210  1
  V  V81  1  0.24552654  0.49179838  0.25178853  1
  V  V82  1  0.12338961  0.50147169  0.11738162  1
  V  V83  1  0.75014123  0.00139166  0.75026053  1
  V  V84  1  0.49970361  0.87845454  0.87681207  1
  Zn  Zn85  1  -0.00118391  0.12016476  0.62008821  1
  Zn  Zn86  1  0.87702867  0.87596336  -0.00056662  1
  Zn  Zn87  1  0.36931347  0.62456481  0.76763776  1
  Zn  Zn88  1  0.87348950  0.50504498  0.88368256  1
  Zn  Zn89  1  0.38191262  0.37438277  0.01056185  1
  Zn  Zn90  1  0.56102362  0.30403108  0.41127819  1
  Zn  Zn91  1  0.62140674  0.13132262  0.50116568  1
  Zn  Zn92  1  0.49719519  0.47067812  0.50298164  1
  Zn  Zn93  1  -0.03482474  0.56781858  0.06427697  1
  Zn  Zn94  1  0.12398160  0.62882489  0.00202358  1
  Zn  Zn95  1  0.61668861  0.00535583  0.13039231  1
  Zn  Zn96  1  0.36556065  0.76091484  0.62532243  1
  Zn  Zn97  1  0.11976186  0.36604478  0.24543029  1
  Zn  Zn98  1  0.48657114  0.25607162  0.23855966  1
  Zn  Zn99  1  0.12637498  0.13051601  0.00484793  1
  Zn  Zn100  1  0.12211659  -0.00838067  0.61716840  1
  Zn  Zn101  1  0.74593805  0.62068203  0.86592415  1
  Zn  Zn102  1  0.74163944  0.62177758  0.37070735  1
  Zn  Zn103  1  0.74697826  0.87938940  0.62371475  1
  Zn  Zn104  1  0.88002905  0.38940685  0.00627301  1
  Zn  Zn105  1  0.61969335  0.74968014  0.37734911  1
  Zn  Zn106  1  0.86950433  0.49569975  0.36802475  1
  Zn  Zn107  1  0.18208746  0.17966771  0.19050029  1
  Zn  Zn108  1  0.19626420  0.19162268  0.69028031  1
  Zn  Zn109  1  0.18695743  0.67982642  0.18962312  1
  Zn  Zn110  1  0.18874579  0.68113779  0.68579436  1
  Zn  Zn111  1  0.65229199  0.21048525  0.17048381  1
  Zn  Zn112  1  0.68942645  0.18778400  0.68651462  1
  Zn  Zn113  1  0.68791140  0.69407995  0.18853548  1
  Zn  Zn114  1  0.68338344  0.68929376  0.68109044  1
  Zn  Zn115  1  0.30873562  0.30653362  0.30515972  1
  Zn  Zn116  1  0.33194535  0.29516755  0.86607931  1
  Zn  Zn117  1  0.31048112  0.81173476  0.31440394  1
  Zn  Zn118  1  0.31661838  0.82042448  0.80619529  1
  Zn  Zn119  1  0.81398385  0.30794297  0.31164444  1
  Zn  Zn120  1  0.82167586  0.31619924  0.81732725  1
  Zn  Zn121  1  0.81058142  0.80919763  0.31505437  1
  Zn  Zn122  1  0.81423898  0.81153223  0.80911084  1
  Zn  Zn123  1  0.18988095  0.43229881  0.44020659  1
  Zn  Zn124  1  0.18635595  0.43192115  0.94075794  1
  Zn  Zn125  1  0.18487363  0.93816884  0.43164323  1
  Zn  Zn126  1  0.18467347  0.93919411  0.92932805  1
  Zn  Zn127  1  0.68798013  0.44416012  0.44454452  1
  Zn  Zn128  1  0.69505373  0.43898108  0.93828834  1
  Zn  Zn129  1  0.68384176  0.94330995  0.43852876  1
  Zn  Zn130  1  0.68794927  0.94058471  0.93844894  1
  Zn  Zn131  1  0.30311137  0.05532370  0.05565210  1
  Zn  Zn132  1  0.31007340  0.06475865  0.55989851  1
  Zn  Zn133  1  0.31427395  0.54886323  0.06557824  1
  Zn  Zn134  1  0.31468923  0.55827696  0.55884593  1
  Zn  Zn135  1  0.81378409  0.06590845  0.06354835  1
  Zn  Zn136  1  0.81206733  0.06307778  0.56246570  1
  Zn  Zn137  1  0.80250581  0.56376058  0.05855947  1
  Zn  Zn138  1  0.80048392  0.55556032  0.53874338  1
  Zn  Zn139  1  0.42649922  0.44448866  0.16622434  1
  Zn  Zn140  1  0.44025741  0.43630167  0.70300767  1
  Zn  Zn141  1  0.43344836  0.93686576  0.18502784  1
  Zn  Zn142  1  0.43516075  0.93497963  0.68393543  1
  Zn  Zn143  1  0.93801352  0.43278818  0.19018195  1
  Zn  Zn144  1  0.94020439  0.43588251  0.68692717  1
  Zn  Zn145  1  0.93786350  0.93574169  0.18814884  1
  Zn  Zn146  1  0.94298115  0.93950118  0.68324787  1
  Zn  Zn147  1  0.06473262  0.05783268  0.31567078  1
  Zn  Zn148  1  0.06579971  0.06163690  0.80617676  1
  Zn  Zn149  1  0.06016396  0.55999729  0.31129700  1
  Zn  Zn150  1  0.06674387  0.56263575  0.80476191  1
  Zn  Zn151  1  0.54567006  0.10003292  0.32607878  1
  Zn  Zn152  1  0.56159354  0.06980644  0.81641173  1
  Zn  Zn153  1  0.56010747  0.56035127  0.31291742  1
  Zn  Zn154  1  0.56549749  0.56820417  0.81142765  1
  Zn  Zn155  1  0.43518671  0.18744974  0.43296618  1
  Zn  Zn156  1  0.44164299  0.19068980  0.95181952  1
  Zn  Zn157  1  0.43568298  0.68690983  0.43669531  1
  Zn  Zn158  1  0.45474178  0.69015203  0.94103808  1
  Zn  Zn159  1  0.93460895  0.18746314  0.43585875  1
  Zn  Zn160  1  0.93947729  0.19259011  0.93669892  1
  Zn  Zn161  1  0.93423446  0.68982197  0.43575329  1
  Zn  Zn162  1  0.93782677  0.68968865  0.93100021  1
  Zn  Zn163  1  0.06679633  0.31797961  0.05908102  1
  Zn  Zn164  1  0.06440317  0.30507582  0.55725306  1
  Zn  Zn165  1  0.06214810  0.80466247  0.05447697  1
  Zn  Zn166  1  0.06167157  0.80915854  0.55932772  1
  Zn  Zn167  1  0.56417347  0.31568153  0.06430705  1
  Zn  Zn168  1  0.55818648  0.31569813  0.58110508  1
  Zn  Zn169  1  0.55941239  0.81385611  0.06533803  1
  Zn  Zn170  1  0.53721573  0.82384008  0.57098352  1
  O  O171  1  0.12442819  0.10651397  0.12275780  1
  O  O172  1  0.12930756  0.13020853  0.60852974  1
  O  O173  1  0.12806511  0.60681417  0.12674624  1
  O  O174  1  0.11875531  0.61655973  0.61498348  1
  O  O175  1  0.64575160  0.11577673  0.10580795  1
  O  O176  1  0.61842174  0.11676398  0.62735618  1
  O  O177  1  0.62302030  0.62320903  0.12332910  1
  O  O178  1  0.61668113  0.61396767  0.62102018  1
  O  O179  1  0.37032958  0.38358143  0.36646249  1
  O  O180  1  0.39452625  0.39366375  0.87885659  1
  O  O181  1  0.38220223  0.88948894  0.36592572  1
  O  O182  1  0.38207569  0.88170869  0.88217258  1
  O  O183  1  0.88163624  0.37542484  0.38244720  1
  O  O184  1  0.88877607  0.38058619  0.88227299  1
  O  O185  1  0.88076417  0.87714976  0.38106512  1
  O  O186  1  0.88447160  0.88094487  0.87317323  1
  O  O187  1  0.25415588  0.00460788  0.36549327  1
  O  O188  1  0.25673876  0.00301907  0.86204615  1
  O  O189  1  0.25662957  0.50179353  0.37167148  1
  O  O190  1  0.24139727  0.49265604  0.86025212  1
  O  O191  1  0.75782858  0.00370125  0.36824172  1
  O  O192  1  0.75714475  0.00638589  0.86993440  1
  O  O193  1  0.76777021  0.51833820  0.41585403  1
  O  O194  1  0.75844089  0.51029595  0.88415848  1
  O  O195  1  0.23820397  0.49125464  0.13733344  1
  O  O196  1  0.24450981  0.48726426  0.61708128  1
  O  O197  1  0.23954877  0.99503147  0.13459714  1
  O  O198  1  0.24709972  1.00233485  0.63320945  1
  O  O199  1  0.74212405  0.49489752  0.12635496  1
  O  O200  1  0.73702470  0.49307762  0.61722506  1
  O  O201  1  0.75431395  0.98868830  0.13195582  1
  O  O202  1  0.74023216  1.00172923  0.63176868  1
  O  O203  1  0.00182972  0.37629229  0.26649606  1
  O  O204  1  -0.00680646  0.36519034  0.76071109  1
  O  O205  1  0.00427232  0.86347052  0.25697773  1
  O  O206  1  0.00563464  0.86896122  0.75747072  1
  O  O207  1  0.51132181  0.37618095  0.24486285  1
  O  O208  1  0.50318076  0.36245813  0.76830992  1
  O  O209  1  0.50711281  0.87767904  0.25695836  1
  O  O210  1  0.50696600  0.86782657  0.75922582  1
  O  O211  1  0.47747474  0.10757914  0.23584698  1
  O  O212  1  0.50043535  0.13910755  0.74830099  1
  O  O213  1  0.49297584  0.63391056  0.24761753  1
  O  O214  1  0.49158910  0.63046735  0.74764601  1
  O  O215  1  0.98729724  0.11744459  0.25732464  1
  O  O216  1  0.98864217  0.13228749  0.75198736  1
  O  O217  1  0.99194534  0.63808662  0.25338402  1
  O  O218  1  0.99284674  0.63109526  0.73984588  1
  O  O219  1  0.36690169  0.26602280  -0.02845512  1
  O  O220  1  0.35896971  0.24260632  0.49474581  1
  O  O221  1  0.36589844  0.75340766  0.00279695  1
  O  O222  1  0.35620082  0.74696929  0.49566343  1
  O  O223  1  0.86475892  0.24690978  0.00863171  1
  O  O224  1  0.86775428  0.25400395  0.50780672  1
  O  O225  1  0.86563632  0.75328656  0.00627927  1
  O  O226  1  0.86438011  0.75851325  0.50402874  1
  O  O227  1  0.13484598  0.23874237  0.49008403  1
  O  O228  1  0.11858813  0.24617663  0.98462115  1
  O  O229  1  0.13216526  0.74224203  0.49311452  1
  O  O230  1  0.13626031  0.75279615  0.98556484  1
  O  O231  1  0.63575910  0.25076793  0.50190951  1
  O  O232  1  0.63873463  0.24431286  0.99179025  1
  O  O233  1  0.62493142  0.75119825  0.50190419  1
  O  O234  1  0.63111909  0.74883483  0.99654712  1
  O  O235  1  0.54200336  0.23924735  0.14070043  1
  O  O236  1  0.50406115  0.24492344  0.65082925  1
  O  O237  1  0.49434420  0.74199101  0.13217609  1
  O  O238  1  0.51775485  0.73172602  0.64304297  1
  O  O239  1  0.99011796  0.25389068  0.11847396  1
  O  O240  1  0.99389485  0.24652788  0.63171609  1
  O  O241  1  0.98693828  0.76029263  0.13250230  1
  O  O242  1  0.99251349  0.74137369  0.62518463  1
  O  O243  1  0.00813395  0.25853877  0.38443837  1
  O  O244  1  0.00491440  0.25855296  0.86661225  1
  O  O245  1  0.00456571  0.75709347  0.36763351  1
  O  O246  1  0.00820627  0.75913621  0.86539484  1
  O  O247  1  0.51127272  0.21828324  0.35401256  1
  O  O248  1  0.51705724  0.24856528  0.86885353  1
  O  O249  1  0.49638777  0.76430816  0.36893987  1
  O  O250  1  0.50736877  0.75738827  0.86479204  1
  O  O251  1  0.24262242  0.13037723  0.49094753  1
  O  O252  1  0.24205988  0.11238564  0.97918615  1
  O  O253  1  0.24365732  0.62651080  0.49226100  1
  O  O254  1  0.24810313  0.61999528  1.00340620  1
  O  O255  1  0.75018670  0.13468837  0.49454283  1
  O  O256  1  0.74878585  0.13231770  0.99155533  1
  O  O257  1  0.72885004  0.64103718  0.50832532  1
  O  O258  1  0.74020315  0.64258632  1.00314149  1
  O  O259  1  0.25301923  0.37956967  0.01826162  1
  O  O260  1  0.24738096  0.36532923  0.51298510  1
  O  O261  1  0.26221195  0.88420548  -0.00500049  1
  O  O262  1  0.24270823  0.86039363  0.49321491  1
  O  O263  1  0.75527340  0.36920797  0.01263420  1
  O  O264  1  0.75589301  0.36732719  0.50772978  1
  O  O265  1  0.74950685  0.86861569  0.00869895  1
  O  O266  1  0.75412674  0.87182105  0.50073844  1
  O  O267  1  0.13592459  0.49763886  0.24950833  1
  O  O268  1  0.13838606  0.50456773  0.73526321  1
  O  O269  1  0.12764889  0.99005737  0.24280596  1
  O  O270  1  0.13544742  0.98881853  0.74846801  1
  O  O271  1  0.63114113  0.49349828  0.24883187  1
  O  O272  1  0.62992880  0.50954395  0.73632538  1
  O  O273  1  0.63562965  0.99519559  0.24750822  1
  O  O274  1  0.62947983  1.00009060  0.74670448  1
  O  O275  1  0.36331718  0.00320767  0.25208755  1
  O  O276  1  0.36699114  -0.01012859  0.75671217  1
  O  O277  1  0.36226099  0.50245000  0.25532550  1
  O  O278  1  0.36010689  0.50512962  0.74920716  1
  O  O279  1  0.86834413  0.00352842  0.25533000  1
  O  O280  1  0.87060362  0.00748603  0.75409076  1
  O  O281  1  0.88067565  0.51657062  0.24963894  1
  O  O282  1  0.87777538  0.51594268  0.74412629  1
  O  O283  1  0.11774461  0.36436495  0.37671424  1
  O  O284  1  0.11369844  0.36753637  0.87563671  1
  O  O285  1  0.11572931  0.86891030  0.36592697  1
  O  O286  1  0.11878508  0.86762318  0.86238930  1
  O  O287  1  0.62616505  0.38914666  0.36488121  1
  O  O288  1  0.62489324  0.36396764  0.88054661  1
  O  O289  1  0.61915868  0.87880202  0.36324098  1
  O  O290  1  0.62045142  0.87253534  0.87060389  1
  O  O291  1  0.36200185  0.11959541  0.13006691  1
  O  O292  1  0.38422376  0.12331085  0.62647089  1
  O  O293  1  0.38277985  0.63288428  0.13219779  1
  O  O294  1  0.38757790  0.62792913  0.62003059  1
  O  O295  1  0.87203177  0.13374291  0.13543132  1
  O  O296  1  0.87528687  0.13148547  0.63293051  1
  O  O297  1  0.87480664  0.63282402  0.13353551  1
  O  O298  1  0.87671228  0.63028227  0.62873703  1
  O  O299  1  0.23082242  0.25764492  0.12385865  1
  O  O300  1  0.24882342  0.26565780  0.62020831  1
  O  O301  1  0.26057679  0.74674493  0.13263291  1
  O  O302  1  0.24899555  0.74700857  0.60913525  1
  O  O303  1  0.75068638  0.26140716  0.11936823  1
  O  O304  1  0.75448321  0.25727194  0.61879953  1
  O  O305  1  0.75773183  0.76137993  0.12039029  1
  O  O306  1  0.75220118  0.75774675  0.61448897  1
  O  O307  1  0.24371582  0.24117022  0.38004097  1
  O  O308  1  0.23353359  0.23878066  0.85831003  1
  O  O309  1  0.24315162  0.74161323  0.38084514  1
  O  O310  1  0.24452351  0.75258499  0.87044646  1
  O  O311  1  0.75833872  0.24085761  0.38665156  1
  O  O312  1  0.74609107  0.25044668  0.88222302  1
  O  O313  1  0.74460330  0.74866496  0.38880496  1
  O  O314  1  0.74693661  0.75050796  0.88387660  1
  O  O315  1  0.00218777  0.11103746  -0.00761046  1
  O  O316  1  0.01719675  0.12994618  0.49706827  1
  O  O317  1  0.01004570  0.64737211  0.00380952  1
  O  O318  1  0.00333653  0.61745833  0.50155141  1
  O  O319  1  0.51224883  0.11543088  -0.00617688  1
  O  O320  1  0.50053577  0.12204316  0.51010724  1
  O  O321  1  0.51395627  0.63124560  0.01431010  1
  O  O322  1  0.50712605  0.63152860  0.50989794  1
  O  O323  1  0.50609010  0.35798057  0.49396224  1
  O  O324  1  0.50699258  0.37009567  0.98496618  1
  O  O325  1  0.51076978  0.89214887  0.47938174  1
  O  O326  1  0.49509903  0.88095017  0.99220129  1
  O  O327  1  0.99670827  0.37982937  0.49274019  1
  O  O328  1  0.99899292  0.37466559  0.98372296  1
  O  O329  1  0.98911368  0.86596281  0.48905352  1
  O  O330  1  0.99969465  0.87868742  0.98396701  1
  O  O331  1  0.48325799  0.49949057  0.37272257  1
  O  O332  1  0.51615879  0.49098045  0.87733015  1
  O  O333  1  0.49050223  1.00512742  0.38156099  1
  O  O334  1  0.49257583  0.99694907  0.88043942  1
  O  O335  1  0.99628184  0.49254075  0.38361755  1
  O  O336  1  1.00118518  0.48882689  0.86528402  1
  O  O337  1  0.99411184  0.98480825  0.37156698  1
  O  O338  1  0.99677045  0.99310398  0.87740242  1
  O  O339  1  0.00569126  -0.01043709  0.11216168  1
  O  O340  1  0.00963371  0.00810919  0.62928644  1
  O  O341  1  0.01766549  0.49480788  0.13501702  1
  O  O342  1  0.00975068  0.50309098  0.61969476  1
  O  O343  1  0.50001422  -0.00702204  0.10903004  1
  O  O344  1  0.50372495  0.01195887  0.62059395  1
  O  O345  1  0.51864901  0.51895593  0.14251211  1
  O  O346  1  0.50853470  0.50261329  0.62784370  1
  O  O347  1  0.24141156  0.37762018  0.24290939  1
  O  O348  1  0.25062005  0.38958201  0.73067954  1
  O  O349  1  0.23670067  0.88112678  0.25747222  1
  O  O350  1  0.24194942  0.88320214  0.74810478  1
  O  O351  1  0.75829503  0.38178210  0.24189246  1
  O  O352  1  0.75954609  0.37103235  0.73790747  1
  O  O353  1  0.74502625  0.88112569  0.24599849  1
  O  O354  1  0.74351176  0.88323071  0.74819172  1
  O  O355  1  0.25347317  0.11277684  0.25600970  1
  O  O356  1  0.24510136  0.11221947  0.75851276  1
  O  O357  1  0.25467954  0.61515510  0.26003529  1
  O  O358  1  0.25386372  0.60770698  0.74351406  1
  O  O359  1  0.75713007  0.11425282  0.25779289  1
  O  O360  1  0.76185464  0.12257208  0.75543635  1
  O  O361  1  0.76373371  0.63397703  0.25245820  1
  O  O362  1  0.76381831  0.63523624  0.74594179  1
  O  O363  1  0.36273440  0.11267129  0.36908225  1
  O  O364  1  0.36888592  0.11172982  0.87828901  1
  O  O365  1  0.36789786  0.61925790  0.36883016  1
  O  O366  1  0.36737244  0.63899794  0.88721064  1
  O  O367  1  0.86723877  0.11795901  0.37062901  1
  O  O368  1  0.87139688  0.12174162  0.86774528  1
  O  O369  1  0.87383760  0.62904686  0.35880093  1
  O  O370  1  0.87662604  0.62871881  0.85475951  1
  O  O371  1  0.13106774  0.38368487  0.12791376  1
  O  O372  1  0.12195263  0.38383589  0.61969647  1
  O  O373  1  0.11767461  0.87753975  0.13544869  1
  O  O374  1  0.11857738  0.87152995  0.63638104  1
  O  O375  1  0.63466146  0.38836368  0.13725267  1
  O  O376  1  0.63345700  0.38918716  0.62915476  1
  O  O377  1  0.63213944  0.87745808  0.13597118  1
  O  O378  1  0.61981034  0.89171019  0.63288198  1
  O  O379  1  0.12543799  0.24469000  0.26672902  1
  O  O380  1  0.11067178  0.24212258  0.75394507  1
  O  O381  1  0.11766692  0.75255804  0.25251764  1
  O  O382  1  0.12134765  0.75423145  0.75232670  1
  O  O383  1  0.64305119  0.28043853  0.26095453  1
  O  O384  1  0.63120356  0.24663214  0.76678932  1
  O  O385  1  0.61794282  0.76170567  0.25329626  1
  O  O386  1  0.62184951  0.75588619  0.75756479  1
  O  O387  1  0.37228214  0.22720580  0.25076089  1
  O  O388  1  0.38667959  0.25361907  0.76788935  1
  O  O389  1  0.37881906  0.74759292  0.24343199  1
  O  O390  1  0.38372386  0.74726173  0.74544985  1
  O  O391  1  0.87351066  0.23888738  0.24021954  1
  O  O392  1  0.88267129  0.24239688  0.74591527  1
  O  O393  1  0.88024694  0.74480941  0.24230124  1
  O  O394  1  0.88173042  0.74627323  0.73864390  1
  O  O395  1  0.37956060  0.49839439  0.48355080  1
  O  O396  1  0.39750974  0.47884074  1.05614403  1
  O  O397  1  0.38354603  1.00362016  0.49148461  1
  O  O398  1  0.38151378  0.99310250  0.99185122  1
  O  O399  1  0.89294520  0.49179554  0.51000271  1
  O  O400  1  0.88467865  0.50819211  1.00531084  1
  O  O401  1  0.86927251  0.98647834  0.49514142  1
  O  O402  1  0.88131616  0.99750280  0.99327601  1
  O  O403  1  0.11596148  -0.00539609  0.00664951  1
  O  O404  1  0.13272386  0.01584872  0.49845933  1
  O  O405  1  0.12607416  0.50183496  0.01409844  1
  O  O406  1  0.11549683  0.50255448  0.50358382  1
  O  O407  1  0.61590092  0.00720326  -0.00135159  1
  O  O408  1  0.61415667  0.00591093  0.50986867  1
  O  O409  1  0.63203096  0.51373406  0.01303233  1
  O  O410  1  0.61386346  0.50957723  0.50965511  1
  O  O411  1  0.35467105  0.35387065  0.13962383  1
  O  O412  1  0.37010707  0.37912969  0.62742763  1
  O  O413  1  0.38143192  0.86264042  0.11227361  1
  O  O414  1  0.42775192  0.85353348  0.61007345  1
  O  O415  1  0.87142532  0.36665345  0.12482366  1
  O  O416  1  0.86988390  0.36985920  0.61955285  1
  O  O417  1  0.86637939  0.86718452  0.12417438  1
  O  O418  1  0.87418679  0.86925521  0.61671641  1
  O  O419  1  0.13413500  0.12603095  0.38104414  1
  O  O420  1  0.12873629  0.13133176  0.87451229  1
  O  O421  1  0.13027521  0.62813716  0.37986029  1
  O  O422  1  0.12260166  0.63915957  0.87153625  1
  O  O423  1  0.64368287  0.11603987  0.38010648  1
  O  O424  1  0.63510159  0.13338879  0.88414427  1
  O  O425  1  0.62206751  0.62825055  0.38465397  1
  O  O426  1  0.62535098  0.63526766  0.88531018  1
