# generated using pymatgen
data_V85Zn86O256
_symmetry_space_group_name_H-M   'P 1'
_cell_length_a   16.93995958
_cell_length_b   16.94411403
_cell_length_c   16.93400275
_cell_angle_alpha   89.97976178
_cell_angle_beta   90.03889176
_cell_angle_gamma   90.04932869
_symmetry_Int_Tables_number   1
_chemical_formula_structural   V85Zn86O256
_chemical_formula_sum   'V85 Zn86 O256'
_cell_volume   4860.60772865
_cell_formula_units_Z   1
loop_
 _symmetry_equiv_pos_site_id
 _symmetry_equiv_pos_as_xyz
  1  'x, y, z'
loop_
 _atom_site_type_symbol
 _atom_site_label
 _atom_site_symmetry_multiplicity
 _atom_site_fract_x
 _atom_site_fract_y
 _atom_site_fract_z
 _atom_site_occupancy
  V  V0  1  0.62702503  0.49960766  0.13050213  1
  V  V1  1  0.62744189  0.62616050  0.49940032  1
  V  V2  1  0.88096577  0.25657329  0.62806766  1
  V  V3  1  0.24988790  0.62413668  0.37589048  1
  V  V4  1  0.62891620  0.75669526  0.37131638  1
  V  V5  1  0.37838313  0.23812563  0.63416704  1
  V  V6  1  0.12990721  0.87716095  0.74753300  1
  V  V7  1  0.49993503  0.37564920  0.37108958  1
  V  V8  1  0.49306517  0.49599256  -0.00252483  1
  V  V9  1  -0.05874546  0.79350395  0.69106117  1
  V  V10  1  0.50508291  0.87822250  0.37198415  1
  V  V11  1  0.74829214  0.49872970  0.74719548  1
  V  V12  1  0.87074005  0.12387356  0.25034288  1
  V  V13  1  -0.00037033  0.25101123  0.24956410  1
  V  V14  1  0.87177431  0.00037174  0.87686150  1
  V  V15  1  0.49705038  0.62455916  0.12613850  1
  V  V16  1  0.13896789  0.88332270  0.25122608  1
  V  V17  1  0.25149112  0.25135173  0.49965016  1
  V  V18  1  0.87846987  0.37344397  -0.00061626  1
  V  V19  1  0.12323665  0.75196106  0.87067831  1
  V  V20  1  0.12592292  0.63290178  -0.00205158  1
  V  V21  1  0.87455891  0.62581341  0.74608554  1
  V  V22  1  0.61913249  -0.00501948  0.12613269  1
  V  V23  1  0.62109095  0.62806869  -0.00459451  1
  V  V24  1  0.86750678  0.37503557  0.50317737  1
  V  V25  1  0.25087445  0.12225919  0.36437329  1
  V  V26  1  0.00305310  0.00091289  0.50137233  1
  V  V27  1  0.24793117  0.62611618  0.86519942  1
  V  V28  1  0.62691216  0.50122970  0.62951508  1
  V  V29  1  0.69276573  0.32503591  0.68131406  1
  V  V30  1  0.74271734  0.24980622  0.00066080  1
  V  V31  1  0.61239949  0.12424434  0.00464543  1
  V  V32  1  0.25513816  0.88155510  0.62667550  1
  V  V33  1  0.74338361  0.12366067  0.88033331  1
  V  V34  1  0.87176917  0.49734328  0.37017689  1
  V  V35  1  0.12565439  0.37857994  0.76608796  1
  V  V36  1  0.00060627  0.62495834  0.62898985  1
  V  V37  1  0.13025647  0.50019433  0.12245898  1
  V  V38  1  0.00324889  0.12163045  0.12516833  1
  V  V39  1  0.87667374  0.49872805  0.87594361  1
  V  V40  1  0.75029189  0.62333157  0.36906661  1
  V  V41  1  0.74515848  0.62715984  0.87381906  1
  V  V42  1  0.00123429  0.75175689  0.24836068  1
  V  V43  1  0.38140433  0.87101070  0.50405581  1
  V  V44  1  0.37367782  0.37442023  0.50308625  1
  V  V45  1  0.12823704  0.74885548  0.37448859  1
  V  V46  1  0.37126350  0.63296691  0.74571750  1
  V  V47  1  0.25001584  0.50058238  0.24761306  1
  V  V48  1  0.37447620  0.00051425  0.37073887  1
  V  V49  1  0.75917205  0.75490726  0.50822961  1
  V  V50  1  0.48678959  -0.00789534  0.00255580  1
  V  V51  1  0.24770951  0.38108390  0.63051116  1
  V  V52  1  0.74220466  -0.00890685  0.25137964  1
  V  V53  1  0.00004297  0.87582010  0.37551785  1
  V  V54  1  0.64237601  -0.00012432  0.62690554  1
  V  V55  1  0.74421528  0.12522048  0.38202991  1
  V  V56  1  0.50638832  0.01425291  0.50897493  1
  V  V57  1  0.63603214  0.87121743  0.75212012  1
  V  V58  1  0.24871952  0.11766531  0.85873111  1
  V  V59  1  0.12550773  0.25283733  0.37459669  1
  V  V60  1  0.25820568  0.87655432  0.10641937  1
  V  V61  1  0.87531205  0.62160289  0.24741436  1
  V  V62  1  0.37151528  -0.00634042  0.85403004  1
  V  V63  1  0.74943920  0.37765266  0.13050846  1
  V  V64  1  0.36791064  0.49232874  0.86731574  1
  V  V65  1  0.25603141  0.74832355  0.50664440  1
  V  V66  1  0.00559230  0.25480627  0.76811126  1
  V  V67  1  0.12647938  0.12545453  0.50130780  1
  V  V68  1  0.24376261  0.24793907  -0.00981750  1
  V  V69  1  0.49641881  0.63616270  0.62392649  1
  V  V70  1  0.62304949  0.24765224  0.37769222  1
  V  V71  1  0.37787380  0.24281967  0.11138610  1
  V  V72  1  0.51481388  0.37229224  0.86882957  1
  V  V73  1  0.50111394  0.50009336  0.50137383  1
  V  V74  1  0.25845642  0.37627667  0.11815297  1
  V  V75  1  0.87433778  0.12602920  0.75472334  1
  V  V76  1  0.87548942  0.87455488  0.00454137  1
  V  V77  1  0.00278149  0.49587170  -0.00450720  1
  V  V78  1  0.74720893  0.75024914  0.00102165  1
  V  V79  1  -0.00105466  0.87027474  0.87462192  1
  V  V80  1  0.49653088  0.24438671  0.24475104  1
  V  V81  1  0.37442131  0.49852386  0.37421927  1
  V  V82  1  0.50287823  0.75367244  0.24809556  1
  V  V83  1  0.87299392  -0.00124388  0.37843924  1
  V  V84  1  -0.00038718  0.49904562  0.50210521  1
  Zn  Zn85  1  0.37519642  0.12092362  0.24267592  1
  Zn  Zn86  1  0.12565451  0.62392631  0.50357662  1
  Zn  Zn87  1  0.12359180  0.12336666  -0.00541155  1
  Zn  Zn88  1  0.37500769  0.62826356  0.25278464  1
  Zn  Zn89  1  0.87577820  0.87457365  0.51587542  1
  Zn  Zn90  1  0.62747855  0.37577674  0.24994876  1
  Zn  Zn91  1  0.00530357  0.13050226  0.62919903  1
  Zn  Zn92  1  0.50014683  0.86860415  0.87512915  1
  Zn  Zn93  1  0.13493739  0.00385142  0.12575073  1
  Zn  Zn94  1  0.51176146  0.24771751  0.74208824  1
  Zn  Zn95  1  0.12522481  0.37521375  0.24731871  1
  Zn  Zn96  1  -0.00088643  0.37526209  0.37478633  1
  Zn  Zn97  1  0.00224080  0.62527359  0.12410030  1
  Zn  Zn98  1  0.37463286  0.75846135  0.11485746  1
  Zn  Zn99  1  0.87319923  0.25003047  0.12603682  1
  Zn  Zn100  1  0.13371708  0.00815081  0.63393943  1
  Zn  Zn101  1  0.74495348  0.87110926  0.13015806  1
  Zn  Zn102  1  0.12762514  0.50061773  0.63193042  1
  Zn  Zn103  1  0.74435272  0.24927702  0.50427128  1
  Zn  Zn104  1  0.87476330  0.74942570  0.12600375  1
  Zn  Zn105  1  0.00265404  -0.00101834  0.00252683  1
  Zn  Zn106  1  0.50524647  0.74975121  0.76130791  1
  Zn  Zn107  1  0.18850609  0.19122819  0.18427673  1
  Zn  Zn108  1  0.18778151  0.19740313  0.68703885  1
  Zn  Zn109  1  0.19068768  0.69152570  0.18517396  1
  Zn  Zn110  1  0.18410674  0.69225473  0.68798513  1
  Zn  Zn111  1  0.68331576  0.18510489  0.18649750  1
  Zn  Zn112  1  0.68399731  0.15735791  0.69176805  1
  Zn  Zn113  1  0.68574299  0.68714596  0.18700792  1
  Zn  Zn114  1  0.68597305  0.68932677  0.68740450  1
  Zn  Zn115  1  0.31333905  0.31302533  0.30682041  1
  Zn  Zn116  1  0.31175410  0.31155901  0.81284691  1
  Zn  Zn117  1  0.31896876  0.81002743  0.31431693  1
  Zn  Zn118  1  0.31039073  0.81159595  0.81457550  1
  Zn  Zn119  1  0.81138623  0.31171403  0.31292859  1
  Zn  Zn120  1  0.81652708  0.30700953  0.82249063  1
  Zn  Zn121  1  0.81616965  0.81193743  0.31667334  1
  Zn  Zn122  1  0.80239870  0.81525554  0.81994130  1
  Zn  Zn123  1  0.18576112  0.43717184  0.43940045  1
  Zn  Zn124  1  0.19468312  0.43954605  0.94005783  1
  Zn  Zn125  1  0.19092160  0.93766299  0.43762766  1
  Zn  Zn126  1  0.18629853  0.94338375  0.93702273  1
  Zn  Zn127  1  0.68751264  0.43662812  0.43722393  1
  Zn  Zn128  1  0.68783882  0.44169213  0.94241655  1
  Zn  Zn129  1  0.68792437  0.93658444  0.44352512  1
  Zn  Zn130  1  0.68497278  0.93886779  0.93721152  1
  Zn  Zn131  1  0.30751513  0.06288581  0.06197247  1
  Zn  Zn132  1  0.31562347  0.06015147  0.55552530  1
  Zn  Zn133  1  0.32632105  0.59579033  0.04082930  1
  Zn  Zn134  1  0.31363965  0.56133536  0.56372708  1
  Zn  Zn135  1  0.81007396  0.06028951  0.06584088  1
  Zn  Zn136  1  0.81737296  0.06737604  0.56387882  1
  Zn  Zn137  1  0.81184632  0.56128727  0.06350696  1
  Zn  Zn138  1  0.81210741  0.56491481  0.56230131  1
  Zn  Zn139  1  0.43709358  0.43572506  0.18621031  1
  Zn  Zn140  1  0.43967410  0.43604146  0.69160834  1
  Zn  Zn141  1  0.43631351  0.93760967  0.18582101  1
  Zn  Zn142  1  0.44566101  0.92896718  0.68603511  1
  Zn  Zn143  1  0.94027360  0.43820414  0.18389956  1
  Zn  Zn144  1  0.94012090  0.43609429  0.69050174  1
  Zn  Zn145  1  0.93579845  0.93751929  0.18957696  1
  Zn  Zn146  1  0.94305917  0.95640202  0.69040538  1
  Zn  Zn147  1  0.06209580  0.06428103  0.31323408  1
  Zn  Zn148  1  0.06160129  0.06173429  0.81675806  1
  Zn  Zn149  1  0.06202209  0.56249756  0.31262520  1
  Zn  Zn150  1  0.05987654  0.56103535  0.81168324  1
  Zn  Zn151  1  0.56138494  0.06370929  0.31224331  1
  Zn  Zn152  1  0.56005246  0.05327353  0.80667609  1
  Zn  Zn153  1  0.56383368  0.56381014  0.31127758  1
  Zn  Zn154  1  0.55803603  0.56292035  0.81073608  1
  Zn  Zn155  1  0.43626185  0.18885766  0.43703244  1
  Zn  Zn156  1  0.45536074  0.16771011  0.89090865  1
  Zn  Zn157  1  0.43898851  0.68773310  0.43635856  1
  Zn  Zn158  1  0.42996244  0.69871308  0.93589967  1
  Zn  Zn159  1  0.93661139  0.18844925  0.43795463  1
  Zn  Zn160  1  0.93519439  0.18782687  0.94329101  1
  Zn  Zn161  1  0.93841239  0.68637344  0.43717183  1
  Zn  Zn162  1  0.93842111  0.68710157  0.93626728  1
  Zn  Zn163  1  0.06498090  0.31212374  0.06253110  1
  Zn  Zn164  1  0.06132313  0.31563851  0.56512132  1
  Zn  Zn165  1  0.06631300  0.81501769  0.06521236  1
  Zn  Zn166  1  0.07176939  0.81606949  0.55793232  1
  Zn  Zn167  1  0.55988021  0.31279420  0.05724494  1
  Zn  Zn168  1  0.55481628  0.30646759  0.55597517  1
  Zn  Zn169  1  0.56265252  0.81394217  0.06046963  1
  Zn  Zn170  1  0.57063094  0.81720742  0.56253777  1
  O  O171  1  0.11614261  0.12242040  0.12877172  1
  O  O172  1  0.12771860  0.12671295  0.61563238  1
  O  O173  1  0.12833992  0.61978088  0.11482471  1
  O  O174  1  0.11601101  0.62086789  0.62455674  1
  O  O175  1  0.62829619  0.11194940  0.11446453  1
  O  O176  1  0.62120277  0.10173496  0.62167392  1
  O  O177  1  0.61652584  0.61861396  0.12007522  1
  O  O178  1  0.61849304  0.61758791  0.61863204  1
  O  O179  1  0.37882177  0.37921721  0.38110149  1
  O  O180  1  0.37730024  0.39041188  0.86847144  1
  O  O181  1  0.38342357  0.88171186  0.38329383  1
  O  O182  1  0.37031440  0.88967425  0.87283222  1
  O  O183  1  0.87615201  0.38196727  0.38095747  1
  O  O184  1  0.86876291  0.38285043  0.89128221  1
  O  O185  1  0.88433514  0.88343622  0.37721753  1
  O  O186  1  0.87694995  0.88011841  0.88478484  1
  O  O187  1  0.26161893  0.01020582  0.38241642  1
  O  O188  1  0.25846577  0.00699636  0.87155751  1
  O  O189  1  0.25311648  0.50523620  0.37127507  1
  O  O190  1  0.26168514  0.50415678  0.87104115  1
  O  O191  1  0.75101405  0.00641479  0.37152596  1
  O  O192  1  0.76473871  0.00740037  0.88452240  1
  O  O193  1  0.76249641  0.50795974  0.37894710  1
  O  O194  1  0.75554236  0.50972336  0.87031722  1
  O  O195  1  0.24192478  0.49505490  0.12425540  1
  O  O196  1  0.24736939  0.48549347  0.61956470  1
  O  O197  1  0.25117692  0.98413531  0.12587435  1
  O  O198  1  0.24985228  0.98611542  0.61434933  1
  O  O199  1  0.73936877  0.49092994  0.11785209  1
  O  O200  1  0.74130315  0.50476962  0.63225482  1
  O  O201  1  0.74223734  0.99711761  0.13581267  1
  O  O202  1  0.74206784  0.99989668  0.61725243  1
  O  O203  1  0.00057044  0.36229326  0.24995697  1
  O  O204  1  0.00973116  0.36376376  0.75086066  1
  O  O205  1  0.00589997  0.86788863  0.25538424  1
  O  O206  1  -0.00074850  0.86679369  0.75198932  1
  O  O207  1  0.49987623  0.36547164  0.25627137  1
  O  O208  1  0.50171896  0.36762588  0.76300031  1
  O  O209  1  0.49761516  0.86942171  0.26329875  1
  O  O210  1  0.51100500  0.86857590  0.75294722  1
  O  O211  1  0.49664932  0.14070180  0.25436461  1
  O  O212  1  0.50533252  0.14710059  0.78916046  1
  O  O213  1  0.50222559  0.63414059  0.24318943  1
  O  O214  1  0.49369302  0.62944287  0.74016353  1
  O  O215  1  0.99224908  0.13372709  0.24811239  1
  O  O216  1  0.99332803  0.13751316  0.75322208  1
  O  O217  1  0.99357877  0.63350519  0.24939328  1
  O  O218  1  0.99184063  0.62310274  0.73818581  1
  O  O219  1  0.36517398  0.24845358  0.01175120  1
  O  O220  1  0.37064071  0.25803216  0.50512670  1
  O  O221  1  0.35841714  0.70479829  0.01695622  1
  O  O222  1  0.36806433  0.75897556  0.49249912  1
  O  O223  1  0.86754541  0.25870814  0.00555275  1
  O  O224  1  0.87409133  0.25660909  0.50999221  1
  O  O225  1  0.86777803  0.75559342  0.00229168  1
  O  O226  1  0.86371016  0.75215800  0.49396428  1
  O  O227  1  0.12802311  0.24525638  0.49314746  1
  O  O228  1  0.14009464  0.24718868  1.00321281  1
  O  O229  1  0.13569168  0.74789764  0.49043763  1
  O  O230  1  0.11882748  0.74006264  0.99274287  1
  O  O231  1  0.62646098  0.25450795  0.48408396  1
  O  O232  1  0.63079876  0.23811838  1.00649619  1
  O  O233  1  0.63537982  0.74462776  0.49110330  1
  O  O234  1  0.63192318  0.73647496  1.00659851  1
  O  O235  1  0.48484184  0.25859482  0.12818858  1
  O  O236  1  0.48429861  0.25231126  0.62559954  1
  O  O237  1  0.49933166  0.74366190  0.13114050  1
  O  O238  1  0.50513249  0.73683288  0.61784131  1
  O  O239  1  0.99859436  0.24084441  0.13348184  1
  O  O240  1  0.99315563  0.24881752  0.63369151  1
  O  O241  1  1.00004797  0.74837892  0.13770816  1
  O  O242  1  1.00408821  0.74263127  0.62197693  1
  O  O243  1  0.00755709  0.25017020  0.36787727  1
  O  O244  1  -0.00413854  0.25087424  0.86660011  1
  O  O245  1  0.00649993  0.75320764  0.36699359  1
  O  O246  1  0.01086814  0.75597886  0.87715354  1
  O  O247  1  0.50449700  0.25597966  0.36818628  1
  O  O248  1  0.49486810  0.27671156  0.89382328  1
  O  O249  1  0.50968700  0.75569440  0.36954094  1
  O  O250  1  0.50126300  0.75304467  0.87711743  1
  O  O251  1  0.24047209  0.13089212  0.49069256  1
  O  O252  1  0.24626685  0.13732457  0.99816229  1
  O  O253  1  0.24996315  0.63151913  0.49568532  1
  O  O254  1  0.22967219  0.61077195  0.97892355  1
  O  O255  1  0.75859325  0.12976252  0.48561998  1
  O  O256  1  0.74577378  0.13207630  0.99856434  1
  O  O257  1  0.74955452  0.63237157  0.48681449  1
  O  O258  1  0.74391311  0.62885414  0.99394230  1
  O  O259  1  0.24903545  0.36099989  0.00436908  1
  O  O260  1  0.25403106  0.36946795  0.50619430  1
  O  O261  1  0.24488174  0.87168621  0.00849340  1
  O  O262  1  0.25996088  0.86764377  0.50265344  1
  O  O263  1  0.75382348  0.36827375  0.00821352  1
  O  O264  1  0.76352868  0.37222067  0.49684616  1
  O  O265  1  0.75530773  0.86486970  -0.00073886  1
  O  O266  1  0.75593618  0.86019111  0.49720805  1
  O  O267  1  0.12957773  0.49992946  0.24009931  1
  O  O268  1  0.11621940  0.48271771  0.74919143  1
  O  O269  1  0.11998265  0.98555642  0.25182391  1
  O  O270  1  0.11226995  0.98315148  0.74799141  1
  O  O271  1  0.62035145  0.49787481  0.23553006  1
  O  O272  1  0.62895024  0.50342088  0.73709271  1
  O  O273  1  0.63156013  1.00583482  0.24158153  1
  O  O274  1  0.62427859  0.99164880  0.73503266  1
  O  O275  1  0.38558823  0.00349456  0.26591700  1
  O  O276  1  0.37997517  -0.00215502  0.75574291  1
  O  O277  1  0.36872278  0.49836838  0.25971106  1
  O  O278  1  0.38301939  0.51115751  0.76222992  1
  O  O279  1  0.86749975  0.00697226  0.25775771  1
  O  O280  1  0.87838531  0.01540396  0.76089911  1
  O  O281  1  0.88251523  0.50772288  0.25844649  1
  O  O282  1  0.86940501  0.50535457  0.75487167  1
  O  O283  1  0.12244889  0.36357612  0.37336078  1
  O  O284  1  0.13038136  0.37707752  0.86487862  1
  O  O285  1  0.12064123  0.87060847  0.36808153  1
  O  O286  1  0.12079323  0.86984877  0.86785615  1
  O  O287  1  0.61907758  0.37021660  0.37070348  1
  O  O288  1  0.61433400  0.38320374  0.87635319  1
  O  O289  1  0.62032626  0.86466094  0.37891412  1
  O  O290  1  0.62384881  0.88706715  0.85686430  1
  O  O291  1  0.36979359  0.13941353  0.12578175  1
  O  O292  1  0.36647760  0.14047431  0.61849814  1
  O  O293  1  0.39272940  0.61068036  0.13670362  1
  O  O294  1  0.38458704  0.61722296  0.63283417  1
  O  O295  1  0.87887259  0.12520006  0.13825219  1
  O  O296  1  0.87561244  0.13853537  0.63651269  1
  O  O297  1  0.87655281  0.62409485  0.13708278  1
  O  O298  1  0.87982599  0.62328267  0.63812292  1
  O  O299  1  0.25870091  0.25740465  0.11828411  1
  O  O300  1  0.25858489  0.26080317  0.61825989  1
  O  O301  1  0.25375251  0.77249220  0.13763918  1
  O  O302  1  0.24577046  0.75821136  0.61102409  1
  O  O303  1  0.75035043  0.25579406  0.11691767  1
  O  O304  1  0.75263372  0.25514114  0.62800135  1
  O  O305  1  0.75215096  0.74990565  0.11526987  1
  O  O306  1  0.75016183  0.73940378  0.60589918  1
  O  O307  1  0.24357189  0.24556627  0.37886283  1
  O  O308  1  0.25878851  0.23796549  0.88576005  1
  O  O309  1  0.24845059  0.74256641  0.38187818  1
  O  O310  1  0.23487086  0.74021724  0.87070642  1
  O  O311  1  0.74102285  0.24237529  0.37312642  1
  O  O312  1  0.75340789  0.24056412  0.89210644  1
  O  O313  1  0.74382723  0.74380939  0.37894902  1
  O  O314  1  0.75236295  0.73604447  0.88779496  1
  O  O315  1  0.00141195  0.12532259  0.01167446  1
  O  O316  1  0.01234211  0.12141670  0.49834604  1
  O  O317  1  0.00841507  0.61637241  0.00189990  1
  O  O318  1  -0.00318405  0.61780004  0.51157348  1
  O  O319  1  0.51006006  0.11523047  -0.01196256  1
  O  O320  1  0.50035981  0.11206234  0.49424854  1
  O  O321  1  0.50795869  0.61604845  0.00735459  1
  O  O322  1  0.50588703  0.61844707  0.50385524  1
  O  O323  1  0.49332625  0.38155188  0.49119698  1
  O  O324  1  0.50467110  0.39284416  0.99454099  1
  O  O325  1  0.49572028  0.87492025  0.48936745  1
  O  O326  1  0.50292135  0.88876643  0.99623359  1
  O  O327  1  0.98863140  0.38215654  0.49874809  1
  O  O328  1  0.99116279  0.38244363  1.00721512  1
  O  O329  1  1.00091212  0.88463665  0.49483845  1
  O  O330  1  0.99089990  0.87362887  0.99582590  1
  O  O331  1  0.49555717  0.49599691  0.37957058  1
  O  O332  1  0.49248689  0.49291888  0.87895372  1
  O  O333  1  0.49995135  0.99281280  0.38379690  1
  O  O334  1  0.48414139  0.99556625  0.88370865  1
  O  O335  1  0.98898454  0.50022784  0.38261038  1
  O  O336  1  0.99356743  0.50322929  0.88784640  1
  O  O337  1  0.99576018  0.99864030  0.38502874  1
  O  O338  1  0.98772578  0.99153464  0.87790782  1
  O  O339  1  -0.00156143  0.01346342  0.12945610  1
  O  O340  1  0.00604871  0.01023580  0.61188017  1
  O  O341  1  0.01354815  0.50194723  0.11688487  1
  O  O342  1  -0.00070982  0.50706572  0.61821557  1
  O  O343  1  0.50413924  -0.00157871  0.11343363  1
  O  O344  1  0.49588307  -0.00067845  0.60912124  1
  O  O345  1  0.50569641  0.50359483  0.11727417  1
  O  O346  1  0.50849519  0.50392406  0.61936824  1
  O  O347  1  0.24693808  0.38291327  0.24031571  1
  O  O348  1  0.23444628  0.36623186  0.74412844  1
  O  O349  1  0.23826212  0.87595146  0.26176523  1
  O  O350  1  0.24323396  0.86987986  0.73766354  1
  O  O351  1  0.75021644  0.37024342  0.23470981  1
  O  O352  1  0.75133191  0.37604694  0.75001195  1
  O  O353  1  0.75516966  0.88761168  0.25259294  1
  O  O354  1  0.73728640  0.87349845  0.74932162  1
  O  O355  1  0.25096691  0.12889205  0.26146661  1
  O  O356  1  0.24648516  0.13082018  0.76052699  1
  O  O357  1  0.25142205  0.61909284  0.25663113  1
  O  O358  1  0.25294598  0.62584170  0.75527279  1
  O  O359  1  0.75637630  0.11781651  0.25777057  1
  O  O360  1  0.76511950  0.13560628  0.76592829  1
  O  O361  1  0.75782784  0.63035747  0.26102393  1
  O  O362  1  0.75459827  0.62204358  0.75664752  1
  O  O363  1  0.36613087  0.11906771  0.37532414  1
  O  O364  1  0.35825427  0.10672443  0.87971796  1
  O  O365  1  0.36766089  0.61706345  0.37483228  1
  O  O366  1  0.36292534  0.61812511  0.86449077  1
  O  O367  1  0.86984584  0.12043261  0.36611689  1
  O  O368  1  0.87042694  0.11842823  0.87415441  1
  O  O369  1  0.87029923  0.61876203  0.36586001  1
  O  O370  1  0.86943298  0.61978958  0.86507453  1
  O  O371  1  0.13578357  0.38288687  0.12485814  1
  O  O372  1  0.13297192  0.37556000  0.63227747  1
  O  O373  1  0.13491338  0.87658750  0.13857151  1
  O  O374  1  0.13564142  0.87805053  0.63071265  1
  O  O375  1  0.63154222  0.38271846  0.12331464  1
  O  O376  1  0.62850912  0.37901866  0.61949012  1
  O  O377  1  0.62748943  0.88872340  0.12180979  1
  O  O378  1  0.62162356  0.88819146  0.63424553  1
  O  O379  1  0.11753532  0.25082404  0.25763963  1
  O  O380  1  0.11157732  0.25899928  0.75042273  1
  O  O381  1  0.11922673  0.75892468  0.25574712  1
  O  O382  1  0.12256928  0.76369822  0.75659301  1
  O  O383  1  0.61622556  0.25250350  0.25620724  1
  O  O384  1  0.63568282  0.25883111  0.73296120  1
  O  O385  1  0.61564756  0.74709243  0.25853924  1
  O  O386  1  0.62468949  0.76477975  0.74308756  1
  O  O387  1  0.38059514  0.24858060  0.23876727  1
  O  O388  1  0.37312253  0.25197157  0.73551475  1
  O  O389  1  0.39086220  0.74794342  0.24917912  1
  O  O390  1  0.37552922  0.73609060  0.75225427  1
  O  O391  1  0.88172333  0.24192448  0.24994449  1
  O  O392  1  0.88667115  0.24992212  0.74767025  1
  O  O393  1  0.88385154  0.74241179  0.25037436  1
  O  O394  1  0.87273816  0.74321158  0.75512740  1
  O  O395  1  0.37990729  0.49314262  0.49322580  1
  O  O396  1  0.38314933  0.50979973  0.98161244  1
  O  O397  1  0.38788846  0.99291760  0.49005337  1
  O  O398  1  0.38714080  1.00369320  1.00188710  1
  O  O399  1  0.88171941  0.49464755  0.49508081  1
  O  O400  1  0.88345035  0.49517229  0.99802899  1
  O  O401  1  0.88468190  0.99824825  0.49736367  1
  O  O402  1  0.87735975  0.99099983  0.99688029  1
  O  O403  1  0.11938840  0.00330749  0.00673119  1
  O  O404  1  0.11981953  0.00968904  0.49808458  1
  O  O405  1  0.11846561  0.50335151  0.00442457  1
  O  O406  1  0.10930100  0.50049767  0.49982157  1
  O  O407  1  0.61699883  0.00560448  0.00721094  1
  O  O408  1  0.61313382  -0.00889084  0.51052038  1
  O  O409  1  0.61890624  0.51159156  0.00864837  1
  O  O410  1  0.62340346  0.50596570  0.50826022  1
  O  O411  1  0.36331017  0.36861456  0.12585945  1
  O  O412  1  0.36816770  0.37223421  0.62077940  1
  O  O413  1  0.36414547  0.87497842  0.12286706  1
  O  O414  1  0.37116091  0.87589077  0.61176936  1
  O  O415  1  0.86737800  0.37689577  0.11569602  1
  O  O416  1  0.87747256  0.36517699  0.62028543  1
  O  O417  1  0.87153541  0.87371574  0.11495110  1
  O  O418  1  0.89147462  0.86713040  0.63410034  1
  O  O419  1  0.13083569  0.13440515  0.37934346  1
  O  O420  1  0.14231142  0.11692564  0.87647514  1
  O  O421  1  0.13320469  0.62966389  0.37788294  1
  O  O422  1  0.12590075  0.63255468  0.87449749  1
  O  O423  1  0.63366564  0.13372040  0.37045963  1
  O  O424  1  0.64119174  0.11044714  0.88595139  1
  O  O425  1  0.63355354  0.63116188  0.37887330  1
  O  O426  1  0.63344873  0.61665911  0.88322452  1
