# generated using pymatgen
data_V85Zn86O256
_symmetry_space_group_name_H-M   'P 1'
_cell_length_a   16.93992421
_cell_length_b   16.93754606
_cell_length_c   16.93906971
_cell_angle_alpha   89.92526388
_cell_angle_beta   90.07660001
_cell_angle_gamma   90.03242719
_symmetry_Int_Tables_number   1
_chemical_formula_structural   V85Zn86O256
_chemical_formula_sum   'V85 Zn86 O256'
_cell_volume   4860.16127275
_cell_formula_units_Z   1
loop_
 _symmetry_equiv_pos_site_id
 _symmetry_equiv_pos_as_xyz
  1  'x, y, z'
loop_
 _atom_site_type_symbol
 _atom_site_label
 _atom_site_symmetry_multiplicity
 _atom_site_fract_x
 _atom_site_fract_y
 _atom_site_fract_z
 _atom_site_occupancy
  V  V0  1  0.37154671  0.00523266  0.37472493  1
  V  V1  1  0.49901696  0.37565721  0.87629787  1
  V  V2  1  0.11560418  0.24068308  0.87592802  1
  V  V3  1  0.24878347  0.49547475  0.74696144  1
  V  V4  1  0.12551611  0.49520228  0.61999465  1
  V  V5  1  0.24627864  0.75611104  0.00142909  1
  V  V6  1  -0.00643724  0.62127710  0.12092217  1
  V  V7  1  0.24406121  0.00910294  0.25612072  1
  V  V8  1  0.62542477  0.62041875  0.00085430  1
  V  V9  1  0.24989579  0.24811146  0.48980003  1
  V  V10  1  0.00436029  0.00074607  0.50545993  1
  V  V11  1  0.87304412  0.50016219  0.37461955  1
  V  V12  1  0.75884064  0.50031218  0.75451660  1
  V  V13  1  0.24665051  0.88868725  0.63017310  1
  V  V14  1  0.49708718  0.36740413  0.36736870  1
  V  V15  1  0.62618130  0.49939872  0.62650776  1
  V  V16  1  0.49727158  0.87612317  0.88001670  1
  V  V17  1  0.51255433  0.87499573  0.37264027  1
  V  V18  1  0.37434397  0.87750080  0.49948617  1
  V  V19  1  0.87744814  0.01071709  0.87469416  1
  V  V20  1  0.62757526  0.25124423  0.87970229  1
  V  V21  1  0.87853658  0.74918535  0.63372542  1
  V  V22  1  0.37200681  0.50027441  0.87493542  1
  V  V23  1  0.23712055  0.37985360  0.12204032  1
  V  V24  1  0.87529442  0.63174525  0.24884280  1
  V  V25  1  0.74672198  0.62708530  0.37515341  1
  V  V26  1  0.74780158  0.37477294  0.11270017  1
  V  V27  1  0.00369786  0.25661114  0.24638965  1
  V  V28  1  0.00245098  0.87663666  0.36968850  1
  V  V29  1  0.51284584  0.75432583  0.25505349  1
  V  V30  1  0.74949853  0.12768601  0.38318710  1
  V  V31  1  0.12469914  0.75537914  0.36774435  1
  V  V32  1  0.38047767  0.13116877  0.24753951  1
  V  V33  1  0.62480590  0.00377299  0.62708973  1
  V  V34  1  0.49860542  0.49766433  0.49943878  1
  V  V35  1  -0.00001873  0.12572603  0.11966879  1
  V  V36  1  0.87089899  0.12384227  0.25111237  1
  V  V37  1  0.12709609  0.12295618  0.49414477  1
  V  V38  1  0.24379227  0.87751190  0.13571337  1
  V  V39  1  -0.00120419  0.87175999  0.87149168  1
  V  V40  1  0.12571800  0.89089743  0.74797047  1
  V  V41  1  0.25316026  0.36377441  0.62379362  1
  V  V42  1  0.00227489  0.37062934  0.37287703  1
  V  V43  1  0.37216814  0.00598956  0.86640000  1
  V  V44  1  0.75262793  0.12995942  0.87611706  1
  V  V45  1  0.62312550  0.37166119  0.24645695  1
  V  V46  1  0.50014925  0.74878634  0.75013010  1
  V  V47  1  0.75563022  0.75012814  0.00467838  1
  V  V48  1  0.62774631  0.74841969  0.87679990  1
  V  V49  1  0.24645398  0.62129292  0.37478119  1
  V  V50  1  0.00656054  0.00287440  0.00071303  1
  V  V51  1  0.12461248  0.61550208  0.00997589  1
  V  V52  1  0.24785510  0.62549499  0.87559087  1
  V  V53  1  0.25200141  0.23841319  -0.00027556  1
  V  V54  1  0.62894393  0.25219625  0.38026923  1
  V  V55  1  0.86413102  0.25165081  0.11658637  1
  V  V56  1  0.37355719  0.62577981  0.74843335  1
  V  V57  1  0.62635356  0.12489543  0.00241470  1
  V  V58  1  0.87731522  0.87324027  0.00635581  1
  V  V59  1  0.37350276  0.75408815  0.12665782  1
  V  V60  1  0.86712759  0.36083983  0.49533840  1
  V  V61  1  0.48693545  0.12796179  0.62909191  1
  V  V62  1  0.74623671  0.75107788  0.50064878  1
  V  V63  1  0.12271694  0.00045549  0.13014966  1
  V  V64  1  0.00135499  0.62601715  0.63274713  1
  V  V65  1  0.87642510  0.87505969  0.50271799  1
  V  V66  1  0.62229593  0.62901817  0.49694691  1
  V  V67  1  0.12089468  0.62798520  0.50060098  1
  V  V68  1  0.24816242  0.75372293  0.50250736  1
  V  V69  1  0.00286346  0.12909850  0.63278817  1
  V  V70  1  0.37254972  0.75177409  0.62605729  1
  V  V71  1  0.75515254  0.00285590  0.75206830  1
  V  V72  1  0.62502550  0.37239876  0.75189247  1
  V  V73  1  0.62286732  -0.00285514  0.13151639  1
  V  V74  1  0.50085028  0.00300068  0.50063247  1
  V  V75  1  0.37383244  0.62727307  0.25273471  1
  V  V76  1  0.49939279  0.62591402  0.12532403  1
  V  V77  1  0.74923380  0.87446122  0.13333523  1
  V  V78  1  0.12372816  0.75118617  0.86793049  1
  V  V79  1  0.37423628  0.36764811  0.50269817  1
  V  V80  1  0.48685390  0.24650202  0.74792334  1
  V  V81  1  0.87000681  0.24190519  0.63578735  1
  V  V82  1  0.62625288  0.87544053  0.75226136  1
  V  V83  1  0.25411182  0.12403635  0.85340562  1
  V  V84  1  0.11190356  0.36302095  0.74926700  1
  Zn  Zn85  1  0.24298580  0.49585530  0.23772208  1
  Zn  Zn86  1  0.87204809  -0.00005102  0.37683666  1
  Zn  Zn87  1  -0.00293159  0.49797292  0.49821028  1
  Zn  Zn88  1  0.49672616  0.00261769  0.00290554  1
  Zn  Zn89  1  0.49771462  0.62568017  0.62417602  1
  Zn  Zn90  1  0.74936709  0.49889243  0.24607115  1
  Zn  Zn91  1  0.49741836  0.50125466  0.00031520  1
  Zn  Zn92  1  0.62512597  0.49961726  0.12607947  1
  Zn  Zn93  1  0.62729135  0.13355507  0.50570496  1
  Zn  Zn94  1  0.74509589  -0.00315343  0.25439944  1
  Zn  Zn95  1  0.36549150  0.37675398  -0.00145810  1
  Zn  Zn96  1  0.50352358  0.13069213  0.12819120  1
  Zn  Zn97  1  0.37869895  0.49953568  0.37100189  1
  Zn  Zn98  1  0.95935824  0.44517564  0.91493480  1
  Zn  Zn99  1  0.75087447  0.87554082  0.62730935  1
  Zn  Zn100  1  0.12978473  0.24413288  0.36586192  1
  Zn  Zn101  1  -0.00023158  0.75732175  0.24044936  1
  Zn  Zn102  1  0.76203562  0.61981673  0.88011012  1
  Zn  Zn103  1  0.38151178  0.25949895  0.12857044  1
  Zn  Zn104  1  0.88355390  0.62379965  0.75732568  1
  Zn  Zn105  1  0.37117095  0.88115401  0.00223800  1
  Zn  Zn106  1  0.74542343  0.36586412  0.61829662  1
  Zn  Zn107  1  0.18830945  0.18572909  0.18222940  1
  Zn  Zn108  1  0.18452035  0.18596436  0.68093798  1
  Zn  Zn109  1  0.18505393  0.68879516  0.18934532  1
  Zn  Zn110  1  0.18700693  0.69071552  0.68787568  1
  Zn  Zn111  1  0.68379125  0.18867556  0.19425944  1
  Zn  Zn112  1  0.68674638  0.18602118  0.69163877  1
  Zn  Zn113  1  0.68886097  0.68928347  0.18651313  1
  Zn  Zn114  1  0.68946375  0.68464253  0.68537976  1
  Zn  Zn115  1  0.31028018  0.31648238  0.30992249  1
  Zn  Zn116  1  0.30733037  0.31238009  0.81482962  1
  Zn  Zn117  1  0.31596630  0.81498562  0.31408671  1
  Zn  Zn118  1  0.31092591  0.81733946  0.81251724  1
  Zn  Zn119  1  0.81027477  0.31084209  0.30519382  1
  Zn  Zn120  1  0.81182638  0.31166124  0.80422446  1
  Zn  Zn121  1  0.81288774  0.81040403  0.31785540  1
  Zn  Zn122  1  0.81331895  0.81445933  0.81661650  1
  Zn  Zn123  1  0.17062255  0.45526969  0.40759086  1
  Zn  Zn124  1  0.16160482  0.43567125  0.93137167  1
  Zn  Zn125  1  0.18570854  0.94008840  0.43933276  1
  Zn  Zn126  1  0.18872098  0.94234011  0.93768578  1
  Zn  Zn127  1  0.68608621  0.43819030  0.43579441  1
  Zn  Zn128  1  0.79841324  0.43111068  0.93745966  1
  Zn  Zn129  1  0.68938027  0.94181870  0.44084333  1
  Zn  Zn130  1  0.68789135  0.93943202  0.94284069  1
  Zn  Zn131  1  0.31418665  0.06070921  0.06151317  1
  Zn  Zn132  1  0.30995558  0.06589485  0.56200962  1
  Zn  Zn133  1  0.31021882  0.56222515  0.06199241  1
  Zn  Zn134  1  0.31009573  0.55989873  0.55977257  1
  Zn  Zn135  1  0.81180443  0.06264335  0.06090748  1
  Zn  Zn136  1  0.81372114  0.06257171  0.56306032  1
  Zn  Zn137  1  0.81531141  0.56084942  0.06092303  1
  Zn  Zn138  1  0.81363104  0.56014616  0.56284368  1
  Zn  Zn139  1  0.43056949  0.43878764  0.18451994  1
  Zn  Zn140  1  0.43719628  0.43512131  0.68662532  1
  Zn  Zn141  1  0.43730402  0.93995569  0.18943817  1
  Zn  Zn142  1  0.43823825  0.93768669  0.68875116  1
  Zn  Zn143  1  0.94348442  0.43524008  0.08024833  1
  Zn  Zn144  1  0.93755568  0.43252085  0.67813543  1
  Zn  Zn145  1  0.93315013  0.93945402  0.18855905  1
  Zn  Zn146  1  0.94030926  0.94046242  0.68842690  1
  Zn  Zn147  1  0.05810196  0.06323467  0.31235885  1
  Zn  Zn148  1  0.06130378  0.06668937  0.81475650  1
  Zn  Zn149  1  0.05210034  0.54469035  0.28767248  1
  Zn  Zn150  1  0.06760339  0.55959457  0.81050903  1
  Zn  Zn151  1  0.56260082  0.06326870  0.31427231  1
  Zn  Zn152  1  0.56063459  0.06403094  0.81304161  1
  Zn  Zn153  1  0.56281580  0.55878214  0.31224593  1
  Zn  Zn154  1  0.56426297  0.56254209  0.81293971  1
  Zn  Zn155  1  0.43795480  0.18646701  0.43731048  1
  Zn  Zn156  1  0.43793783  0.18749783  0.93920636  1
  Zn  Zn157  1  0.43837487  0.69136401  0.43708403  1
  Zn  Zn158  1  0.43446646  0.69033903  0.93898665  1
  Zn  Zn159  1  0.93859505  0.18507372  0.43668082  1
  Zn  Zn160  1  0.93319779  0.28337995  0.94031989  1
  Zn  Zn161  1  0.93748273  0.69054813  0.43922242  1
  Zn  Zn162  1  0.93958484  0.68509425  0.93760199  1
  Zn  Zn163  1  0.06971367  0.30417031  0.06035486  1
  Zn  Zn164  1  0.06026050  0.30777995  0.55744066  1
  Zn  Zn165  1  0.06197783  0.81053520  0.06457390  1
  Zn  Zn166  1  0.06144475  0.81325855  0.56583246  1
  Zn  Zn167  1  0.55964519  0.31041332  0.06128285  1
  Zn  Zn168  1  0.55968812  0.31067196  0.56303537  1
  Zn  Zn169  1  0.56553603  0.81158164  0.06443262  1
  Zn  Zn170  1  0.56203676  0.81571762  0.56292373  1
  O  O171  1  0.11493141  0.11194660  0.12756350  1
  O  O172  1  0.10951206  0.13013684  0.61304328  1
  O  O173  1  0.12042556  0.62996114  0.11523807  1
  O  O174  1  0.12060308  0.62146421  0.61870294  1
  O  O175  1  0.62824767  0.11959170  0.11759806  1
  O  O176  1  0.62039591  0.11425363  0.62663607  1
  O  O177  1  0.61620020  0.62680985  0.11870142  1
  O  O178  1  0.62229314  0.61696196  0.61426777  1
  O  O179  1  0.38121099  0.37799408  0.38168556  1
  O  O180  1  0.38022029  0.38445638  0.87508645  1
  O  O181  1  0.38014776  0.88620344  0.38172702  1
  O  O182  1  0.38129672  0.88244307  0.87831919  1
  O  O183  1  0.87620076  0.37808335  0.38074864  1
  O  O184  1  0.87665813  0.36647432  0.87972303  1
  O  O185  1  0.88189777  0.87323582  0.38899135  1
  O  O186  1  0.88359367  0.88205041  0.88368976  1
  O  O187  1  0.25786544  -0.00614677  0.36671417  1
  O  O188  1  0.26208300  0.00942283  0.87848147  1
  O  O189  1  0.26656184  0.52190769  0.40211169  1
  O  O190  1  0.25455203  0.50445249  0.86837369  1
  O  O191  1  0.75132847  0.00850867  0.37204295  1
  O  O192  1  0.75674443  0.00368011  0.87069728  1
  O  O193  1  0.75367192  0.51315177  0.37723392  1
  O  O194  1  0.74624491  0.49941324  0.85804066  1
  O  O195  1  0.24926538  0.48674036  0.12177354  1
  O  O196  1  0.24390278  0.48822895  0.62542717  1
  O  O197  1  0.24131826  0.99628339  0.13139191  1
  O  O198  1  0.25234455  0.98775475  0.62245375  1
  O  O199  1  0.74761302  0.49031219  0.12583881  1
  O  O200  1  0.73761620  0.49747856  0.62944290  1
  O  O201  1  0.74362252  0.99110235  0.12636234  1
  O  O202  1  0.74418416  0.99993865  0.63415900  1
  O  O203  1  -0.00680344  0.35748622  0.25575184  1
  O  O204  1  0.01360966  0.37744035  0.74599228  1
  O  O205  1  -0.00916891  0.87497253  0.26532051  1
  O  O206  1  0.01168276  0.87939416  0.75903859  1
  O  O207  1  0.50391762  0.38430222  0.25956481  1
  O  O208  1  0.50547055  0.37059377  0.75716172  1
  O  O209  1  0.49376698  0.86649289  0.26022996  1
  O  O210  1  0.50580749  0.86927896  0.76193398  1
  O  O211  1  0.48383686  0.11995877  0.25072820  1
  O  O212  1  0.50394994  0.13482228  0.74261869  1
  O  O213  1  0.49302817  0.63127965  0.24638258  1
  O  O214  1  0.49354377  0.63182300  0.74838150  1
  O  O215  1  0.98986382  0.12997457  0.24150114  1
  O  O216  1  1.00220579  0.11813542  0.73127991  1
  O  O217  1  0.99315728  0.62752622  0.24103786  1
  O  O218  1  1.00442307  0.61998707  0.73788396  1
  O  O219  1  0.36079342  0.25331184  -0.00495206  1
  O  O220  1  0.36851667  0.25939688  0.49579645  1
  O  O221  1  0.36092391  0.75269168  0.00647412  1
  O  O222  1  0.36898790  0.75683406  0.50665663  1
  O  O223  1  0.86718904  0.23355271  0.01876193  1
  O  O224  1  0.87305582  0.25877356  0.50047499  1
  O  O225  1  0.86628288  0.76008131  -0.00435872  1
  O  O226  1  0.86770859  0.75587683  0.51003840  1
  O  O227  1  0.13252834  0.24143120  0.49585872  1
  O  O228  1  0.13690808  0.24724765  0.98351368  1
  O  O229  1  0.13009658  0.74619387  0.49696628  1
  O  O230  1  0.13489995  0.74869048  0.99284969  1
  O  O231  1  0.62322854  0.25250261  0.48684565  1
  O  O232  1  0.62371780  0.24385375  0.98502673  1
  O  O233  1  0.63270495  0.74122314  0.50770151  1
  O  O234  1  0.63148661  0.74341176  0.99308526  1
  O  O235  1  0.49354782  0.24367142  0.11933402  1
  O  O236  1  0.50497732  0.23990277  0.63483300  1
  O  O237  1  0.49504387  0.74337927  0.13207507  1
  O  O238  1  0.49140656  0.75137498  0.63210665  1
  O  O239  1  0.99078710  0.24296342  0.13232577  1
  O  O240  1  0.98831505  0.23616271  0.61671085  1
  O  O241  1  1.00582196  0.73465083  0.12785459  1
  O  O242  1  0.99079981  0.73962368  0.62085970  1
  O  O243  1  -0.00408418  0.25217509  0.36069104  1
  O  O244  1  0.01677343  0.23424276  0.87753283  1
  O  O245  1  0.00905516  0.75913493  0.37796958  1
  O  O246  1  0.00936155  0.76472761  0.88289505  1
  O  O247  1  0.50541741  0.26234421  0.37846572  1
  O  O248  1  0.50619409  0.25666599  0.86882409  1
  O  O249  1  0.49513755  0.76213186  0.36708015  1
  O  O250  1  0.50575531  0.75595593  0.87050563  1
  O  O251  1  0.24029094  0.13474423  0.50489470  1
  O  O252  1  0.25277193  0.13603715  0.99551050  1
  O  O253  1  0.23986012  0.63584308  0.50061380  1
  O  O254  1  0.24201210  0.63619821  0.99809739  1
  O  O255  1  0.74716027  0.12035838  0.48762610  1
  O  O256  1  0.73792340  0.11773712  0.98759762  1
  O  O257  1  0.74256036  0.63075431  0.49655432  1
  O  O258  1  0.74338103  0.63337624  1.00067708  1
  O  O259  1  0.24356550  0.36575177  0.00565339  1
  O  O260  1  0.25882637  0.36871867  0.50513116  1
  O  O261  1  0.24807112  0.87077232  0.01075628  1
  O  O262  1  0.25392353  0.87116091  0.50808093  1
  O  O263  1  0.73825367  0.37146189  0.01319972  1
  O  O264  1  0.76300176  0.37950230  0.50024923  1
  O  O265  1  0.75831660  0.86959206  0.00672598  1
  O  O266  1  0.75731236  0.86793473  0.50270595  1
  O  O267  1  0.15011627  0.50023976  0.30040044  1
  O  O268  1  0.13372542  0.48628985  0.73793345  1
  O  O269  1  0.13187899  1.00295394  0.24468733  1
  O  O270  1  0.12526400  0.98921951  0.75391704  1
  O  O271  1  0.62723432  0.48851113  0.24840445  1
  O  O272  1  0.62964088  0.49316580  0.74318148  1
  O  O273  1  0.62627848  1.00578681  0.23637613  1
  O  O274  1  0.63041102  0.99433522  0.74649364  1
  O  O275  1  0.36647284  0.00708249  0.25729468  1
  O  O276  1  0.37694041  -0.00671083  0.76723473  1
  O  O277  1  0.36823455  0.51529368  0.25199772  1
  O  O278  1  0.36983227  0.50434225  0.75715670  1
  O  O279  1  0.87219614  0.01306620  0.25309915  1
  O  O280  1  0.86613718  -0.00747637  0.76081566  1
  O  O281  1  0.86827790  0.51448696  0.26775466  1
  O  O282  1  0.86070406  0.49639131  0.73828891  1
  O  O283  1  0.10461936  0.36323909  0.38622641  1
  O  O284  1  0.13819665  0.35040240  0.85655421  1
  O  O285  1  0.11439016  0.86754604  0.38393110  1
  O  O286  1  0.12061656  0.87280847  0.86706377  1
  O  O287  1  0.61827662  0.37081482  0.36948115  1
  O  O288  1  0.61683132  0.36763817  0.86209621  1
  O  O289  1  0.61193870  0.88074167  0.38101563  1
  O  O290  1  0.61872460  0.86612434  0.87426241  1
  O  O291  1  0.37490762  0.12210211  0.13998945  1
  O  O292  1  0.38783463  0.11989268  0.62462546  1
  O  O293  1  0.37920726  0.63252956  0.13114250  1
  O  O294  1  0.37386908  0.63115235  0.63073876  1
  O  O295  1  0.87651313  0.13025208  0.13325894  1
  O  O296  1  0.88319938  0.13600444  0.61833538  1
  O  O297  1  0.88426854  0.62352885  0.13269707  1
  O  O298  1  0.88438501  0.63044271  0.62747935  1
  O  O299  1  0.25169339  0.25330297  0.11143546  1
  O  O300  1  0.24644149  0.25978756  0.61334337  1
  O  O301  1  0.24998529  0.75972304  0.12136196  1
  O  O302  1  0.25555231  0.75883682  0.62121158  1
  O  O303  1  0.75908066  0.25526631  0.13363111  1
  O  O304  1  0.76285142  0.24657881  0.62789615  1
  O  O305  1  0.74467019  0.75835541  0.11266305  1
  O  O306  1  0.75627432  0.75109047  0.61563465  1
  O  O307  1  0.24677809  0.25622747  0.38513779  1
  O  O308  1  0.24798492  0.23825074  0.88081984  1
  O  O309  1  0.24479916  0.74592973  0.38208505  1
  O  O310  1  0.24491880  0.74767416  0.88335970  1
  O  O311  1  0.74102485  0.24200504  0.36996679  1
  O  O312  1  0.74211205  0.23872122  0.86443817  1
  O  O313  1  0.75367817  0.73926914  0.38962431  1
  O  O314  1  0.74175681  0.75167296  0.88585669  1
  O  O315  1  -0.00710959  0.11497633  0.01711227  1
  O  O316  1  0.00430082  0.11699969  0.50417076  1
  O  O317  1  0.01326282  0.62895146  0.00965070  1
  O  O318  1  0.01038968  0.62606361  0.50698682  1
  O  O319  1  0.51534017  0.12274691  -0.00362194  1
  O  O320  1  0.50352389  0.11985796  0.50862343  1
  O  O321  1  0.50546227  0.63117672  0.00955806  1
  O  O322  1  0.50557127  0.61823564  0.50030541  1
  O  O323  1  0.49315269  0.38030854  0.49462114  1
  O  O324  1  0.50074833  0.37964550  0.98418604  1
  O  O325  1  0.49280477  0.88215922  0.49518379  1
  O  O326  1  0.49885624  0.87158755  0.98814505  1
  O  O327  1  0.98453857  0.37349814  0.49140800  1
  O  O328  1  0.99305192  0.36309116  1.00376220  1
  O  O329  1  0.99417537  0.88178350  0.49750872  1
  O  O330  1  0.99424832  0.88135686  0.99499748  1
  O  O331  1  0.49855574  0.49128870  0.38452141  1
  O  O332  1  0.49054130  0.49363107  0.87190457  1
  O  O333  1  0.49328392  0.99450464  0.38055366  1
  O  O334  1  0.49196542  0.99238646  0.87656404  1
  O  O335  1  0.98902905  0.48776563  0.37354689  1
  O  O336  1  1.05732155  0.48186321  0.88634902  1
  O  O337  1  0.99616476  0.99288030  0.38572738  1
  O  O338  1  0.99528465  0.99559882  0.88258345  1
  O  O339  1  0.00469425  0.00324745  0.12139745  1
  O  O340  1  -0.00875910  0.01295414  0.61363638  1
  O  O341  1  0.00511226  0.51915828  0.13201494  1
  O  O342  1  0.00644901  0.50672334  0.61882579  1
  O  O343  1  0.50772873  0.00322077  0.12251508  1
  O  O344  1  0.50694017  0.00542922  0.62300988  1
  O  O345  1  0.49867596  0.51546901  0.12298612  1
  O  O346  1  0.51103344  0.50028792  0.61991446  1
  O  O347  1  0.25565096  0.37394603  0.22896681  1
  O  O348  1  0.24585599  0.37675138  0.73916777  1
  O  O349  1  0.25476278  0.88483522  0.24015602  1
  O  O350  1  0.23593401  0.87272683  0.74448207  1
  O  O351  1  0.73946530  0.37720985  0.24238252  1
  O  O352  1  0.74102347  0.38401073  0.74362961  1
  O  O353  1  0.75926941  0.87306083  0.23736784  1
  O  O354  1  0.74335011  0.88477783  0.75128790  1
  O  O355  1  0.25741719  0.11373029  0.24754603  1
  O  O356  1  0.25319831  0.13031214  0.75387337  1
  O  O357  1  0.25594804  0.62797939  0.26002786  1
  O  O358  1  0.25294907  0.61859054  0.75538937  1
  O  O359  1  0.75613202  0.12407715  0.26027465  1
  O  O360  1  0.74428708  0.11075825  0.76138744  1
  O  O361  1  0.75452750  0.62698793  0.25898436  1
  O  O362  1  0.74907643  0.60875174  0.74913363  1
  O  O363  1  0.37860052  0.11293276  0.36657191  1
  O  O364  1  0.37150824  0.11316432  0.87472782  1
  O  O365  1  0.36836724  0.63031850  0.36679790  1
  O  O366  1  0.36803394  0.62116265  0.86890996  1
  O  O367  1  0.86677811  0.12500284  0.36893204  1
  O  O368  1  0.86604948  0.11212824  0.87911008  1
  O  O369  1  0.86804233  0.61919360  0.37583222  1
  O  O370  1  0.87539880  0.62681019  0.86942812  1
  O  O371  1  0.13776864  0.36909860  0.12548846  1
  O  O372  1  0.12948550  0.37267957  0.63098503  1
  O  O373  1  0.13017148  0.88800133  0.12324903  1
  O  O374  1  0.12971958  0.87056895  0.64066308  1
  O  O375  1  0.62869765  0.37524635  0.13119857  1
  O  O376  1  0.62409728  0.37998482  0.63405411  1
  O  O377  1  0.63589855  0.88408168  0.11930237  1
  O  O378  1  0.62543473  0.88704943  0.63237512  1
  O  O379  1  0.10829360  0.23986810  0.24823399  1
  O  O380  1  0.12439525  0.25589025  0.75282432  1
  O  O381  1  0.12319341  0.75035290  0.26460610  1
  O  O382  1  0.12851877  0.75552202  0.76470679  1
  O  O383  1  0.62325880  0.26344106  0.26151584  1
  O  O384  1  0.61886038  0.25708038  0.75749421  1
  O  O385  1  0.61186358  0.74650396  0.24975688  1
  O  O386  1  0.62307726  0.75362746  0.75705166  1
  O  O387  1  0.36683946  0.23313271  0.25194725  1
  O  O388  1  0.38821824  0.25743852  0.75410021  1
  O  O389  1  0.37891515  0.74193092  0.24457411  1
  O  O390  1  0.37827202  0.74654542  0.74577906  1
  O  O391  1  0.88211032  0.23953405  0.24177529  1
  O  O392  1  0.87940049  0.25093635  0.73367534  1
  O  O393  1  0.87885680  0.73542555  0.26040866  1
  O  O394  1  0.86672923  0.75018853  0.73678033  1
  O  O395  1  0.38971111  0.49353491  0.50442727  1
  O  O396  1  0.37615458  0.50386280  0.98494510  1
  O  O397  1  0.37928056  0.99808133  0.49264082  1
  O  O398  1  0.37860017  0.99823245  0.98938375  1
  O  O399  1  0.87572859  0.49216656  0.49016198  1
  O  O400  1  0.87977997  0.49168956  0.99631979  1
  O  O401  1  0.88008168  0.98952497  0.49978034  1
  O  O402  1  0.88449255  0.99354273  0.99395632  1
  O  O403  1  0.11180471  -0.00261803  0.00566899  1
  O  O404  1  0.11530403  0.00679237  0.50099441  1
  O  O405  1  0.14076090  0.51918906  0.00928849  1
  O  O406  1  0.12168549  0.51086289  0.50169103  1
  O  O407  1  0.62248350  0.00726853  0.00998679  1
  O  O408  1  0.61886209  0.00211165  0.51191265  1
  O  O409  1  0.61905366  0.51820722  0.00002855  1
  O  O410  1  0.61560527  0.50352635  0.50666743  1
  O  O411  1  0.36621129  0.37542045  0.11558176  1
  O  O412  1  0.36665445  0.37858040  0.61458050  1
  O  O413  1  0.36586926  0.87066745  0.12396951  1
  O  O414  1  0.36789035  0.87157846  0.62129470  1
  O  O415  1  0.86472256  0.35953142  0.12660160  1
  O  O416  1  0.87373519  0.36024488  0.61169876  1
  O  O417  1  0.86864672  0.88042157  0.11284554  1
  O  O418  1  0.87645991  0.86822426  0.61763082  1
  O  O419  1  0.11813584  0.12613397  0.38849753  1
  O  O420  1  0.13740595  0.13382522  0.86653753  1
  O  O421  1  0.13218348  0.63844570  0.38694934  1
  O  O422  1  0.13015905  0.63579688  0.88632055  1
  O  O423  1  0.63065050  0.13472353  0.37559353  1
  O  O424  1  0.63204206  0.13116097  0.87947553  1
  O  O425  1  0.63073729  0.61995212  0.38833141  1
  O  O426  1  0.62656921  0.63662849  0.88093959  1
