# generated using pymatgen
data_V85Zn86O256
_symmetry_space_group_name_H-M   'P 1'
_cell_length_a   16.96271086
_cell_length_b   16.95633411
_cell_length_c   16.96654044
_cell_angle_alpha   90.00347167
_cell_angle_beta   89.95367012
_cell_angle_gamma   89.94065350
_symmetry_Int_Tables_number   1
_chemical_formula_structural   V85Zn86O256
_chemical_formula_sum   'V85 Zn86 O256'
_cell_volume   4880.00363343
_cell_formula_units_Z   1
loop_
 _symmetry_equiv_pos_site_id
 _symmetry_equiv_pos_as_xyz
  1  'x, y, z'
loop_
 _atom_site_type_symbol
 _atom_site_label
 _atom_site_symmetry_multiplicity
 _atom_site_fract_x
 _atom_site_fract_y
 _atom_site_fract_z
 _atom_site_occupancy
  V  V0  1  0.74897210  0.86685965  0.62729458  1
  V  V1  1  0.49876278  -0.00275125  -0.00049328  1
  V  V2  1  0.25344010  0.12627101  0.37543224  1
  V  V3  1  0.12722797  0.88863717  0.74738839  1
  V  V4  1  0.37345590  0.12395611  0.24680511  1
  V  V5  1  0.67504305  0.67920362  0.04871569  1
  V  V6  1  0.87568845  0.50317034  0.87300505  1
  V  V7  1  0.24764516  0.38445767  0.62535586  1
  V  V8  1  0.00100977  0.24345865  0.74629414  1
  V  V9  1  0.12377478  0.24917434  0.87436020  1
  V  V10  1  0.24503582  0.87404815  0.12845268  1
  V  V11  1  0.12710049  0.74287904  0.87079836  1
  V  V12  1  0.51499502  0.86758187  0.36481674  1
  V  V13  1  0.24419368  0.38136264  0.12267284  1
  V  V14  1  0.50651003  0.86586597  0.86321174  1
  V  V15  1  0.11609104  0.74899514  0.38218952  1
  V  V16  1  0.37320222  0.25216800  0.12281956  1
  V  V17  1  0.12109628  0.62201342  0.01000684  1
  V  V18  1  0.50790040  0.12207646  0.62371731  1
  V  V19  1  0.25650249  0.25040741  0.49879325  1
  V  V20  1  0.50112538  0.24839776  0.74892487  1
  V  V21  1  0.62481798  0.62868208  0.49526531  1
  V  V22  1  0.24982649  0.12089166  0.87307960  1
  V  V23  1  0.74673648  0.74838843  0.49174006  1
  V  V24  1  0.63231890  0.37748347  0.25084604  1
  V  V25  1  0.37493856  0.50661343  0.36359531  1
  V  V26  1  0.36981631  0.12063241  0.74783559  1
  V  V27  1  0.50356343  0.37573677  0.36919580  1
  V  V28  1  -0.00764669  0.74111121  0.24619372  1
  V  V29  1  0.62499569  0.24936356  0.87505770  1
  V  V30  1  0.00064653  0.37453165  0.87268586  1
  V  V31  1  0.63165184  -0.01179299  0.12682549  1
  V  V32  1  0.88369647  0.87078361  0.49255973  1
  V  V33  1  0.37409742  0.63142240  0.75270753  1
  V  V34  1  0.62212061  0.50000563  0.62572566  1
  V  V35  1  0.87868010  0.24730292  0.62618014  1
  V  V36  1  0.49941687  0.37670098  0.87604619  1
  V  V37  1  0.25121832  0.62854745  0.36925208  1
  V  V38  1  0.37867816  0.24937825  0.62127906  1
  V  V39  1  0.74897254  0.50474148  0.75272346  1
  V  V40  1  0.01896288  0.62155575  0.62441738  1
  V  V41  1  0.12689741  0.24799661  0.37460740  1
  V  V42  1  0.12563779  0.38423458  0.24868914  1
  V  V43  1  0.37593950  -0.00393422  0.37180582  1
  V  V44  1  0.24771182  0.24808663  -0.00104531  1
  V  V45  1  0.74823973  0.22780854  0.50015975  1
  V  V46  1  0.86798071  0.50400037  0.38424755  1
  V  V47  1  0.37159407  0.87126180  0.00220100  1
  V  V48  1  0.12136332  0.12247047  0.51449636  1
  V  V49  1  0.50104985  0.25314259  0.24734760  1
  V  V50  1  0.11384403  0.87605573  0.25855017  1
  V  V51  1  0.37470643  0.87522542  0.49789435  1
  V  V52  1  0.49939571  0.50168263  0.50085895  1
  V  V53  1  0.51253554  -0.00110872  0.49618972  1
  V  V54  1  -0.00294847  -0.00654544  0.00472109  1
  V  V55  1  -0.00139713  0.87162829  0.87347418  1
  V  V56  1  0.38200594  0.75377108  0.62934375  1
  V  V57  1  0.12174481  0.12123976  0.00246108  1
  V  V58  1  0.74953636  0.12202110  0.87256701  1
  V  V59  1  0.24922412  0.74646574  0.50092447  1
  V  V60  1  0.36699439  0.50398745  0.87168695  1
  V  V61  1  0.62830440  -0.00448834  0.63107155  1
  V  V62  1  0.00127451  0.24487529  0.25205051  1
  V  V63  1  0.37378526  0.37358107  -0.00287496  1
  V  V64  1  0.24633632  0.88904313  0.62699659  1
  V  V65  1  0.87598662  0.62507097  0.74676009  1
  V  V66  1  0.87207437  -0.00485399  0.87791664  1
  V  V67  1  0.85919934  0.12324580  0.25774405  1
  V  V68  1  0.87435315  0.24757917  0.12602461  1
  V  V69  1  0.36953914  -0.00402970  0.87172109  1
  V  V70  1  0.62505398  0.37487876  0.75057886  1
  V  V71  1  0.61856248  0.50425160  0.12430591  1
  V  V72  1  0.80769782  0.55943708  0.20328270  1
  V  V73  1  0.75035108  0.37440604  0.62051050  1
  V  V74  1  0.62888519  0.73456673  0.86087888  1
  V  V75  1  0.75020727  0.25017792  -0.00141401  1
  V  V76  1  0.01581641  0.49849071  0.50372896  1
  V  V77  1  0.87515957  0.37345514  0.00091323  1
  V  V78  1  0.37883189  0.37441233  0.49780545  1
  V  V79  1  0.24781467  0.74495731  -0.00368617  1
  V  V80  1  0.74758140  -0.01031430  0.75343944  1
  V  V81  1  0.62459842  0.12341723  0.00036583  1
  V  V82  1  0.50178322  0.51316093  0.00017451  1
  V  V83  1  0.86457677  0.85648024  0.01179525  1
  V  V84  1  0.50184292  0.73559417  0.24202221  1
  Zn  Zn85  1  0.87150557  0.00155528  0.37817575  1
  Zn  Zn86  1  0.74964234  0.62536439  0.37027277  1
  Zn  Zn87  1  -0.00250242  0.12008934  0.12802107  1
  Zn  Zn88  1  0.12134742  -0.00163410  0.13183158  1
  Zn  Zn89  1  0.75349121  0.38007515  0.13201151  1
  Zn  Zn90  1  0.87752003  0.37276420  0.49965618  1
  Zn  Zn91  1  0.64087557  0.22791549  0.37114537  1
  Zn  Zn92  1  0.50260217  0.63529796  0.62762997  1
  Zn  Zn93  1  0.88162704  0.11801826  0.75008948  1
  Zn  Zn94  1  0.00118261  0.75012322  0.74601743  1
  Zn  Zn95  1  0.24524948  -0.00267380  0.25180433  1
  Zn  Zn96  1  0.87471953  0.74505852  0.62560796  1
  Zn  Zn97  1  -0.00772606  0.61681801  0.13427653  1
  Zn  Zn98  1  0.24157135  0.51243475  0.74697154  1
  Zn  Zn99  1  0.74126653  -0.01642752  0.25721184  1
  Zn  Zn100  1  -0.00018398  0.37682865  0.37676268  1
  Zn  Zn101  1  0.00524180  -0.00148009  0.50870654  1
  Zn  Zn102  1  0.12140331  0.38090598  0.74121477  1
  Zn  Zn103  1  0.37221089  0.73250981  0.13240614  1
  Zn  Zn104  1  0.49847941  0.12450311  0.12125176  1
  Zn  Zn105  1  0.25152882  0.51170081  0.23750094  1
  Zn  Zn106  1  0.00599533  0.49619273  0.00885539  1
  Zn  Zn107  1  0.18719995  0.18797720  0.18687005  1
  Zn  Zn108  1  0.19168901  0.19538105  0.68843866  1
  Zn  Zn109  1  0.18594404  0.69374262  0.18983261  1
  Zn  Zn110  1  0.19405219  0.69680752  0.68923877  1
  Zn  Zn111  1  0.68498861  0.18971089  0.18205257  1
  Zn  Zn112  1  0.69192411  0.18333196  0.68587107  1
  Zn  Zn113  1  0.68331605  0.80961761  0.19019262  1
  Zn  Zn114  1  0.68446339  0.68598193  0.68759861  1
  Zn  Zn115  1  0.31446179  0.31761923  0.30949574  1
  Zn  Zn116  1  0.31270248  0.31096984  0.80885623  1
  Zn  Zn117  1  0.31369535  0.81004480  0.30998404  1
  Zn  Zn118  1  0.30931525  0.81421391  0.81036743  1
  Zn  Zn119  1  0.81493977  0.31275500  0.31991729  1
  Zn  Zn120  1  0.81332662  0.31390228  0.81021221  1
  Zn  Zn121  1  0.81329231  0.81125268  0.31386163  1
  Zn  Zn122  1  0.81080047  0.80770776  0.81717465  1
  Zn  Zn123  1  0.19242036  0.43659767  0.43343976  1
  Zn  Zn124  1  0.18468815  0.43812386  0.93443014  1
  Zn  Zn125  1  0.18641149  0.93798706  0.43903243  1
  Zn  Zn126  1  0.18472648  0.93392013  0.93629356  1
  Zn  Zn127  1  0.68571391  0.43498098  0.43824967  1
  Zn  Zn128  1  0.68894362  0.44254691  0.93850262  1
  Zn  Zn129  1  0.69773549  0.94169483  0.43702966  1
  Zn  Zn130  1  0.68584860  0.92850672  0.94023365  1
  Zn  Zn131  1  0.30871282  0.05869160  0.06265398  1
  Zn  Zn132  1  0.31706130  0.06395057  0.55780582  1
  Zn  Zn133  1  0.30718528  0.56142535  0.05088681  1
  Zn  Zn134  1  0.31606724  0.56770660  0.55941422  1
  Zn  Zn135  1  0.81287658  0.06040251  0.06408024  1
  Zn  Zn136  1  0.84506300  0.04669947  0.58177934  1
  Zn  Zn137  1  0.81702597  0.56744225  0.04373685  1
  Zn  Zn138  1  0.81335472  0.56172373  0.56317667  1
  Zn  Zn139  1  0.43750547  0.56101262  0.18204474  1
  Zn  Zn140  1  0.43312049  0.44103029  0.68816488  1
  Zn  Zn141  1  0.43782595  0.93461921  0.18487736  1
  Zn  Zn142  1  0.43493460  0.93819151  0.68620132  1
  Zn  Zn143  1  0.94459523  0.43496222  0.18845844  1
  Zn  Zn144  1  0.93965917  0.43635120  0.68477027  1
  Zn  Zn145  1  0.93324769  0.93424619  0.18962107  1
  Zn  Zn146  1  0.93743472  0.93504343  0.68436530  1
  Zn  Zn147  1  0.05490771  0.05813649  0.32433588  1
  Zn  Zn148  1  0.06037108  0.06064002  0.81635872  1
  Zn  Zn149  1  0.06381662  0.56559509  0.32267512  1
  Zn  Zn150  1  0.06365974  0.56040224  0.81243256  1
  Zn  Zn151  1  0.56119852  0.06183056  0.30770288  1
  Zn  Zn152  1  0.55987186  0.05743118  0.81209646  1
  Zn  Zn153  1  0.57051073  0.56118721  0.31233557  1
  Zn  Zn154  1  0.55514264  0.56542314  0.80957556  1
  Zn  Zn155  1  0.46817779  0.17353662  0.42407623  1
  Zn  Zn156  1  0.43777173  0.18555808  0.93561440  1
  Zn  Zn157  1  0.43882796  0.68958584  0.43477295  1
  Zn  Zn158  1  0.43660109  0.68947918  0.93446545  1
  Zn  Zn159  1  0.93913064  0.18659099  0.43896498  1
  Zn  Zn160  1  0.93755137  0.18400975  0.93541714  1
  Zn  Zn161  1  0.93711911  0.68306111  0.44317063  1
  Zn  Zn162  1  0.94032313  0.68596814  0.93550447  1
  Zn  Zn163  1  0.06033524  0.31099434  0.06413775  1
  Zn  Zn164  1  0.06495519  0.31034722  0.56028588  1
  Zn  Zn165  1  0.05861174  0.80861111  0.06678463  1
  Zn  Zn166  1  0.06403815  0.80915554  0.56792246  1
  Zn  Zn167  1  0.56278544  0.31890410  0.06481547  1
  Zn  Zn168  1  0.56793495  0.30996176  0.55797361  1
  Zn  Zn169  1  0.55121612  0.80984237  0.05976107  1
  Zn  Zn170  1  0.56556240  0.81627123  0.55949046  1
  O  O171  1  0.12438779  0.12220382  0.11276235  1
  O  O172  1  0.13588398  0.13131616  0.61213090  1
  O  O173  1  0.12872249  0.62936571  0.11118605  1
  O  O174  1  0.11713214  0.62731738  0.63094137  1
  O  O175  1  0.62149959  0.12037410  0.11067951  1
  O  O176  1  0.61395219  0.11653062  0.63047868  1
  O  O177  1  0.62635567  0.60881263  0.11391684  1
  O  O178  1  0.62101661  0.61559074  0.61621419  1
  O  O179  1  0.37879228  0.38717356  0.38037445  1
  O  O180  1  0.38207968  0.37831322  0.87653598  1
  O  O181  1  0.37724187  0.88220257  0.38131368  1
  O  O182  1  0.37876018  0.87990181  0.88322047  1
  O  O183  1  0.88006454  0.38744883  0.37842794  1
  O  O184  1  0.88407753  0.37744123  0.88049868  1
  O  O185  1  0.87956051  0.86662682  0.39117351  1
  O  O186  1  0.88316569  0.87709938  0.88194221  1
  O  O187  1  0.26285546  0.00526073  0.37539804  1
  O  O188  1  0.26245277  0.00315821  0.88176465  1
  O  O189  1  0.25938616  0.51095594  0.37622033  1
  O  O190  1  0.26514170  0.49343090  0.87579648  1
  O  O191  1  0.75627411  0.00266727  0.36723178  1
  O  O192  1  0.75009278  0.00012001  0.87032547  1
  O  O193  1  0.76383508  0.50058529  0.38438061  1
  O  O194  1  0.76329150  0.49036654  0.86441042  1
  O  O195  1  0.24970548  0.48478001  0.12088427  1
  O  O196  1  0.25911189  0.48678810  0.62114885  1
  O  O197  1  0.24420413  0.98682909  0.12624930  1
  O  O198  1  0.25776936  0.98777404  0.61863739  1
  O  O199  1  0.75091789  0.50259009  0.13156681  1
  O  O200  1  0.74368633  0.49211104  0.63188098  1
  O  O201  1  0.73302691  1.00302377  0.12365365  1
  O  O202  1  0.74555007  0.99256328  0.63511005  1
  O  O203  1  0.00874369  0.36202949  0.25292463  1
  O  O204  1  0.00021569  0.36642725  0.75822167  1
  O  O205  1  0.00962110  0.86474541  0.24758422  1
  O  O206  1  0.00489884  0.87355174  0.75624533  1
  O  O207  1  0.51430645  0.36928730  0.25676678  1
  O  O208  1  0.50293396  0.37092573  0.75942380  1
  O  O209  1  0.49952737  0.88032167  0.26396142  1
  O  O210  1  0.49362042  0.88029918  0.76606493  1
  O  O211  1  0.48464844  0.13081735  0.24084986  1
  O  O212  1  0.49135787  0.12717104  0.74353207  1
  O  O213  1  0.50004103  0.63028500  0.25347293  1
  O  O214  1  0.48122245  0.61725667  0.74074707  1
  O  O215  1  0.99919898  0.13682769  0.24859532  1
  O  O216  1  1.00040396  0.13914790  0.75869470  1
  O  O217  1  1.00965610  0.63672590  0.25184502  1
  O  O218  1  0.99473747  0.62135013  0.73787494  1
  O  O219  1  0.36925136  0.25215254  0.00327367  1
  O  O220  1  0.37362843  0.25482349  0.50320755  1
  O  O221  1  0.36520288  0.75681295  -0.00038636  1
  O  O222  1  0.37012669  0.76194954  0.50270776  1
  O  O223  1  0.87246461  0.25365590  0.00624283  1
  O  O224  1  0.86810508  0.25251512  0.50872453  1
  O  O225  1  0.87670239  0.75729367  -0.00362308  1
  O  O226  1  0.86710699  0.75476944  0.50450551  1
  O  O227  1  0.13648946  0.24514338  0.49198576  1
  O  O228  1  0.12619197  0.23969807  0.99463247  1
  O  O229  1  0.13429243  0.75894727  0.48975252  1
  O  O230  1  0.12915168  0.74396960  0.99455987  1
  O  O231  1  0.64422506  0.24641334  0.50279496  1
  O  O232  1  0.62820660  0.24334722  0.99505164  1
  O  O233  1  0.63196427  0.73913329  0.50571189  1
  O  O234  1  0.61380449  0.74184652  0.99132673  1
  O  O235  1  0.49007714  0.25049028  0.12806918  1
  O  O236  1  0.49878105  0.24102796  0.62741834  1
  O  O237  1  0.49208858  0.74954797  0.13655994  1
  O  O238  1  0.48573063  0.75617800  0.61754714  1
  O  O239  1  0.98898292  0.24709511  0.13206889  1
  O  O240  1  0.99239325  0.25856648  0.63463272  1
  O  O241  1  1.00216514  0.74126458  0.14155921  1
  O  O242  1  0.99824343  0.73249982  0.62576193  1
  O  O243  1  0.00986057  0.25269814  0.36929434  1
  O  O244  1  0.00290839  0.25582759  0.86906643  1
  O  O245  1  0.01358131  0.74293120  0.37584196  1
  O  O246  1  0.00688763  0.76057992  0.87245645  1
  O  O247  1  0.48260646  0.27043830  0.36352630  1
  O  O248  1  0.50523218  0.25570294  0.86910839  1
  O  O249  1  0.49625060  0.76253107  0.36747222  1
  O  O250  1  0.50423159  0.76166640  0.87560207  1
  O  O251  1  0.24761818  0.13200221  0.49271317  1
  O  O252  1  0.24191166  0.12732632  0.99352549  1
  O  O253  1  0.25489246  0.64116965  0.49381215  1
  O  O254  1  0.23725864  0.63767724  0.99651384  1
  O  O255  1  0.75894702  0.13183540  0.51153683  1
  O  O256  1  0.74263902  0.12915914  0.99369257  1
  O  O257  1  0.74212902  0.63174766  0.50416810  1
  O  O258  1  0.73891051  0.62613342  0.99158376  1
  O  O259  1  0.25075935  0.36712987  0.00381064  1
  O  O260  1  0.25841873  0.37069121  0.50654491  1
  O  O261  1  0.25272049  0.86728759  0.00600590  1
  O  O262  1  0.25787110  0.86912892  0.50417690  1
  O  O263  1  0.76289398  0.36925719  -0.00158574  1
  O  O264  1  0.75034994  0.37495630  0.51438090  1
  O  O265  1  0.76637045  0.87634068  -0.00153695  1
  O  O266  1  0.75066032  0.86165044  0.50828368  1
  O  O267  1  0.12844634  0.48638574  0.26110558  1
  O  O268  1  0.13277886  0.49091703  0.76167109  1
  O  O269  1  0.12372279  0.99180047  0.25487987  1
  O  O270  1  0.12311729  0.98828033  0.75619656  1
  O  O271  1  0.62106542  0.48989583  0.23895085  1
  O  O272  1  0.63135993  0.49488479  0.74796893  1
  O  O273  1  0.62205027  1.00636487  0.22996118  1
  O  O274  1  0.63024357  1.00082169  0.73944728  1
  O  O275  1  0.37320901  0.00653244  0.25462560  1
  O  O276  1  0.37870915  0.00884421  0.75951280  1
  O  O277  1  0.37263736  0.49872304  0.26119285  1
  O  O278  1  0.36878186  0.50649396  0.75729920  1
  O  O279  1  0.87585532  0.01699227  0.24755795  1
  O  O280  1  0.86487867  -0.00174973  0.76125289  1
  O  O281  1  0.87042735  0.49741034  0.26076277  1
  O  O282  1  0.86912248  0.50201915  0.75481328  1
  O  O283  1  0.12838947  0.36231663  0.36760986  1
  O  O284  1  0.11138474  0.36653929  0.88091944  1
  O  O285  1  0.13119448  0.86292349  0.36924425  1
  O  O286  1  0.11620365  0.86835778  0.86914246  1
  O  O287  1  0.61692308  0.37291547  0.36917437  1
  O  O288  1  0.61827331  0.37070035  0.86984804  1
  O  O289  1  0.61178379  0.87902083  0.38115351  1
  O  O290  1  0.60870425  0.87091633  0.87820902  1
  O  O291  1  0.37130591  0.13390758  0.12816753  1
  O  O292  1  0.38133504  0.12791147  0.63339150  1
  O  O293  1  0.36188832  0.62005291  0.12678431  1
  O  O294  1  0.37747233  0.63856527  0.62767388  1
  O  O295  1  0.87560184  0.13331715  0.13308784  1
  O  O296  1  0.86404522  0.14514539  0.63653498  1
  O  O297  1  0.86599289  0.61411432  0.13823229  1
  O  O298  1  0.88051558  0.62149140  0.63729174  1
  O  O299  1  0.25509921  0.25334390  0.11687399  1
  O  O300  1  0.26137552  0.25847893  0.61755130  1
  O  O301  1  0.25123698  0.76112376  0.11776221  1
  O  O302  1  0.26026837  0.76079242  0.61552045  1
  O  O303  1  0.75960459  0.25232759  0.11613953  1
  O  O304  1  0.75454392  0.25740290  0.61968851  1
  O  O305  1  0.72640563  0.73723283  0.11044769  1
  O  O306  1  0.74966440  0.75402181  0.62011663  1
  O  O307  1  0.24769137  0.24728166  0.37872632  1
  O  O308  1  0.24459819  0.24412800  0.87991625  1
  O  O309  1  0.24582412  0.74561492  0.38150664  1
  O  O310  1  0.23884165  0.75978986  0.88510496  1
  O  O311  1  0.75293392  0.24837746  0.39424275  1
  O  O312  1  0.74403740  0.24467039  0.87851310  1
  O  O313  1  0.75267977  0.74414969  0.38851342  1
  O  O314  1  0.72741400  0.75472913  0.87163165  1
  O  O315  1  0.00653213  0.11499247  0.00055861  1
  O  O316  1  0.02072802  0.13786060  0.50359484  1
  O  O317  1  0.01181800  0.62643349  0.00544710  1
  O  O318  1  -0.00043834  0.61279332  0.51548238  1
  O  O319  1  0.50638898  0.11545695  -0.00201563  1
  O  O320  1  0.48445306  0.10761871  0.51701835  1
  O  O321  1  0.49444793  0.61207287  -0.00373727  1
  O  O322  1  0.50550528  0.61781351  0.50177129  1
  O  O323  1  0.49906226  0.38076818  0.49174775  1
  O  O324  1  0.49403326  0.37475507  0.98718200  1
  O  O325  1  0.49293326  0.88110792  0.49030103  1
  O  O326  1  0.48794307  0.88069286  0.99158610  1
  O  O327  1  1.00045349  0.38677779  0.50139606  1
  O  O328  1  0.98932410  0.37169458  0.99321585  1
  O  O329  1  0.98553467  0.87316329  0.51182040  1
  O  O330  1  0.99657850  0.87893874  0.99287728  1
  O  O331  1  0.49475197  0.49248624  0.37979361  1
  O  O332  1  0.49218598  0.49129290  0.87930804  1
  O  O333  1  0.49166728  0.99055951  0.38067137  1
  O  O334  1  0.49165687  0.99242380  0.88400663  1
  O  O335  1  0.99396002  0.50044731  0.38984545  1
  O  O336  1  0.99107735  0.48927328  0.87789718  1
  O  O337  1  0.98502104  1.01141409  0.39564436  1
  O  O338  1  0.99419156  0.98867895  0.88264131  1
  O  O339  1  0.00196385  0.00037728  0.11732654  1
  O  O340  1  -0.04264622  0.01566652  0.61100079  1
  O  O341  1  -0.00172515  0.50345438  0.12143676  1
  O  O342  1  0.00102800  0.50688677  0.61458454  1
  O  O343  1  0.50493993  0.00034211  0.11166777  1
  O  O344  1  0.50911643  0.00135264  0.62049508  1
  O  O345  1  0.50717261  0.49651442  0.11385781  1
  O  O346  1  0.50499409  0.49646082  0.61512765  1
  O  O347  1  0.24277282  0.37569938  0.23890633  1
  O  O348  1  0.25423093  0.37312761  0.73188089  1
  O  O349  1  0.24034675  0.87448137  0.24294197  1
  O  O350  1  0.24106122  0.87437101  0.73940878  1
  O  O351  1  0.73675725  0.36453019  0.25192946  1
  O  O352  1  0.74530984  0.38217828  0.74110105  1
  O  O353  1  0.75658433  0.87194343  0.24268567  1
  O  O354  1  0.75336034  0.88304758  0.74513999  1
  O  O355  1  0.25981036  0.12368263  0.25458669  1
  O  O356  1  0.26250337  0.13214841  0.75611954  1
  O  O357  1  0.24409483  0.62630865  0.26346751  1
  O  O358  1  0.26601101  0.62593740  0.74244296  1
  O  O359  1  0.75909155  0.12833944  0.24654085  1
  O  O360  1  0.74843475  0.11142641  0.75841494  1
  O  O361  1  0.74824004  0.62013723  0.25333364  1
  O  O362  1  0.75757164  0.61039469  0.74436379  1
  O  O363  1  0.37529790  0.11646960  0.36541582  1
  O  O364  1  0.37155418  0.11609548  0.86793380  1
  O  O365  1  0.36642390  0.61733627  0.38187676  1
  O  O366  1  0.37814535  0.61645625  0.86642909  1
  O  O367  1  0.87587241  0.13394707  0.35816032  1
  O  O368  1  0.86663547  0.11472682  0.87491013  1
  O  O369  1  0.87392104  0.60856538  0.38026454  1
  O  O370  1  0.88476474  0.61209225  0.86289157  1
  O  O371  1  0.13325639  0.36457882  0.13512702  1
  O  O372  1  0.14461980  0.36881116  0.62219070  1
  O  O373  1  0.13006227  0.87405596  0.13508842  1
  O  O374  1  0.13333557  0.87264144  0.63445613  1
  O  O375  1  0.63137796  0.38385198  0.13167615  1
  O  O376  1  0.63026943  0.37895536  0.63223229  1
  O  O377  1  0.62018429  0.88568616  0.11726142  1
  O  O378  1  0.63695798  0.88284064  0.62274629  1
  O  O379  1  0.11924498  0.25330505  0.25651488  1
  O  O380  1  0.11896380  0.25614649  0.75673410  1
  O  O381  1  0.11901841  0.75701746  0.26399815  1
  O  O382  1  0.12364656  0.75858725  0.75827780  1
  O  O383  1  0.61811247  0.25315725  0.25207914  1
  O  O384  1  0.62059240  0.25391200  0.75510990  1
  O  O385  1  0.60029542  0.75590243  0.24854209  1
  O  O386  1  0.61807065  0.74310332  0.75988024  1
  O  O387  1  0.37662379  0.24512896  0.23927243  1
  O  O388  1  0.38405682  0.24196655  0.74380117  1
  O  O389  1  0.39302549  0.75873065  0.24817043  1
  O  O390  1  0.37197396  0.74628850  0.74108776  1
  O  O391  1  0.88032983  0.24415424  0.24430223  1
  O  O392  1  0.88452538  0.25037811  0.74567224  1
  O  O393  1  0.89574735  0.74719555  0.26369822  1
  O  O394  1  0.87792527  0.73780315  0.75122395  1
  O  O395  1  0.38731347  0.49662968  0.49438588  1
  O  O396  1  0.38162952  0.49063495  0.99097369  1
  O  O397  1  0.38326963  0.98971125  0.49247135  1
  O  O398  1  0.38075686  0.99395626  0.99368736  1
  O  O399  1  0.88245352  0.49590189  0.49470384  1
  O  O400  1  0.87773255  0.48978158  0.98858571  1
  O  O401  1  0.85534379  0.97264984  0.49601582  1
  O  O402  1  0.88491696  0.99659367  0.99636281  1
  O  O403  1  0.11290994  0.00414614  -0.00101105  1
  O  O404  1  0.12628862  0.01754296  0.49785151  1
  O  O405  1  0.12483483  0.51899711  -0.01032318  1
  O  O406  1  0.11436693  0.49711258  0.49452603  1
  O  O407  1  0.61774393  0.00447783  0.00511454  1
  O  O408  1  0.61595440  -0.00468465  0.51043735  1
  O  O409  1  0.61213946  0.48769683  0.00817450  1
  O  O410  1  0.61393025  0.50218205  0.50471607  1
  O  O411  1  0.36276507  0.36008756  0.11446804  1
  O  O412  1  0.37162198  0.36923437  0.61713943  1
  O  O413  1  0.36694960  0.87727531  0.11178770  1
  O  O414  1  0.36989960  0.87237416  0.61683205  1
  O  O415  1  0.87331972  0.36590333  0.11800091  1
  O  O416  1  0.86560859  0.36642538  0.62634770  1
  O  O417  1  0.88174651  0.87221199  0.10956138  1
  O  O418  1  0.86088117  0.86650509  0.62078966  1
  O  O419  1  0.13415532  0.13655385  0.37759028  1
  O  O420  1  0.12940325  0.12762634  0.88496722  1
  O  O421  1  0.13510257  0.64025812  0.37963243  1
  O  O422  1  0.11554128  0.64024568  0.88241664  1
  O  O423  1  0.57447610  0.13899316  0.38512847  1
  O  O424  1  0.62714582  0.12658249  0.88400359  1
  O  O425  1  0.63029048  0.61537277  0.39146742  1
  O  O426  1  0.61909769  0.63409218  0.87172408  1
