# generated using pymatgen
data_V85Zn86O256
_symmetry_space_group_name_H-M   'P 1'
_cell_length_a   16.97363758
_cell_length_b   16.94826067
_cell_length_c   16.96177212
_cell_angle_alpha   90.04761093
_cell_angle_beta   90.05309592
_cell_angle_gamma   89.99339125
_symmetry_Int_Tables_number   1
_chemical_formula_structural   V85Zn86O256
_chemical_formula_sum   'V85 Zn86 O256'
_cell_volume   4879.45081613
_cell_formula_units_Z   1
loop_
 _symmetry_equiv_pos_site_id
 _symmetry_equiv_pos_as_xyz
  1  'x, y, z'
loop_
 _atom_site_type_symbol
 _atom_site_label
 _atom_site_symmetry_multiplicity
 _atom_site_fract_x
 _atom_site_fract_y
 _atom_site_fract_z
 _atom_site_occupancy
  V  V0  1  0.75077742  0.62820385  0.87593748  1
  V  V1  1  0.87585418  0.62462597  0.24882977  1
  V  V2  1  0.75041063  0.12164633  0.37135427  1
  V  V3  1  0.25244713  0.62567338  0.38098843  1
  V  V4  1  0.86220869  0.12089489  0.74966564  1
  V  V5  1  0.37132423  0.90175288  0.49739032  1
  V  V6  1  0.14521361  0.24695867  0.87900053  1
  V  V7  1  0.00243961  0.75257591  0.75084331  1
  V  V8  1  -0.00491499  0.24975553  0.75898295  1
  V  V9  1  0.00393977  0.37575164  0.37229427  1
  V  V10  1  0.12666980  0.88570527  0.24167395  1
  V  V11  1  0.50634720  0.37086884  0.87129032  1
  V  V12  1  0.74929912  0.50304158  0.75077097  1
  V  V13  1  0.62451458  -0.00676233  0.13096329  1
  V  V14  1  0.75052936  0.25030917  0.49933432  1
  V  V15  1  0.37674036  0.63765965  0.24378879  1
  V  V16  1  0.87776726  0.12321739  0.24449161  1
  V  V17  1  0.87330360  0.75213933  0.62508638  1
  V  V18  1  0.49844447  0.50251581  0.50372942  1
  V  V19  1  0.49374138  0.87296132  0.38158373  1
  V  V20  1  0.74823754  0.37108294  0.12131216  1
  V  V21  1  0.62486150  0.37513415  0.25031246  1
  V  V22  1  0.00256044  0.74977652  0.24844330  1
  V  V23  1  0.75096508  0.37697697  0.62446464  1
  V  V24  1  0.13927978  0.12850425  0.00918721  1
  V  V25  1  0.00205985  0.62367612  0.12328051  1
  V  V26  1  0.87771327  0.87922124  0.00338459  1
  V  V27  1  0.37079657  0.50878210  0.87648890  1
  V  V28  1  0.37690956  0.36847145  0.50526726  1
  V  V29  1  0.62247287  0.50674616  0.62660079  1
  V  V30  1  -0.00083572  0.87385130  0.37379627  1
  V  V31  1  0.36300050  0.01387611  0.86753061  1
  V  V32  1  0.25229352  0.36888349  0.11636597  1
  V  V33  1  0.62588740  0.87673093  0.74889078  1
  V  V34  1  0.49979406  0.49842609  -0.00202265  1
  V  V35  1  0.24529373  0.24163255  0.49781053  1
  V  V36  1  0.00050887  0.62667897  0.62450057  1
  V  V37  1  0.87620435  0.24951802  0.62429157  1
  V  V38  1  0.00485300  0.88045286  0.87608657  1
  V  V39  1  0.13178559  0.62521322  -0.00484311  1
  V  V40  1  0.37501148  0.24407854  0.12062763  1
  V  V41  1  0.61878386  0.63105149  0.49778835  1
  V  V42  1  0.87428538  0.75155396  0.12250574  1
  V  V43  1  0.87428117  0.62811487  0.75025804  1
  V  V44  1  0.74508445  0.62828803  0.37368438  1
  V  V45  1  0.62552328  0.62915354  0.00147637  1
  V  V46  1  0.36971866  0.74430205  0.60966358  1
  V  V47  1  0.32686630  0.19500056  0.67698820  1
  V  V48  1  0.01300243  0.00184368  0.50010816  1
  V  V49  1  0.51281059  0.24225801  0.74684108  1
  V  V50  1  0.12616480  0.49824154  0.12405405  1
  V  V51  1  0.36787264  0.63077973  0.75620896  1
  V  V52  1  0.62053370  0.11918899  0.49980466  1
  V  V53  1  0.87025126  0.00385877  0.87005917  1
  V  V54  1  0.75041802  -0.01512913  0.24530447  1
  V  V55  1  0.87583363  0.50096970  0.37334069  1
  V  V56  1  0.74588579  0.75141053  0.49786757  1
  V  V57  1  0.13354717  0.74938676  0.87254500  1
  V  V58  1  0.87294881  0.87912027  0.49816938  1
  V  V59  1  0.53384721  0.01768167  -0.02852439  1
  V  V60  1  0.75059827  0.76195648  -0.00017670  1
  V  V61  1  0.37379387  0.88312792  0.00507082  1
  V  V62  1  0.12397819  0.23574602  0.37931550  1
  V  V63  1  0.00045862  0.50223257  0.50010211  1
  V  V64  1  0.13022346  0.88993473  0.74334005  1
  V  V65  1  0.50617309  0.12084121  0.12720704  1
  V  V66  1  0.62494255  0.25118680  0.37436309  1
  V  V67  1  0.00446944  0.01418949  0.00986263  1
  V  V68  1  0.25423810  0.38085759  0.62818289  1
  V  V69  1  0.49156239  0.87459203  0.87221672  1
  V  V70  1  0.37549756  0.49557122  0.37398249  1
  V  V71  1  0.73863678  0.23638919  -0.01470906  1
  V  V72  1  0.12592569  0.50186800  0.62671344  1
  V  V73  1  0.25299633  0.75291003  0.00850751  1
  V  V74  1  0.74853435  0.88313421  0.62684613  1
  V  V75  1  0.61343694  -0.00390339  0.61966263  1
  V  V76  1  0.12945295  0.74953965  0.37809772  1
  V  V77  1  0.26408265  0.01412695  0.25037916  1
  V  V78  1  0.62034145  0.50067391  0.12496672  1
  V  V79  1  0.88000467  0.24660336  0.12277743  1
  V  V80  1  0.00363017  0.12042598  0.62079582  1
  V  V81  1  0.49592647  0.74579260  0.74508051  1
  V  V82  1  0.87496605  0.37570510  -0.00421747  1
  V  V83  1  0.25296002  0.49348509  0.24968846  1
  V  V84  1  0.61175728  0.85372682  0.25431120  1
  Zn  Zn85  1  0.24782721  0.50639200  0.75572400  1
  Zn  Zn86  1  0.62428395  0.75398063  0.87340612  1
  Zn  Zn87  1  0.12599435  0.37025018  0.24916816  1
  Zn  Zn88  1  0.13136049  0.63192760  0.50383530  1
  Zn  Zn89  1  0.87501215  0.37530311  0.49743937  1
  Zn  Zn90  1  0.74984053  0.50046961  0.24889945  1
  Zn  Zn91  1  0.38315396  0.12285212  0.26484758  1
  Zn  Zn92  1  0.00368480  0.24520307  0.24516973  1
  Zn  Zn93  1  0.00073085  0.49927460  -0.00374246  1
  Zn  Zn94  1  0.24390445  0.87643715  0.61136574  1
  Zn  Zn95  1  0.19085470  0.05791816  0.56207886  1
  Zn  Zn96  1  0.50328838  0.24731416  0.24770290  1
  Zn  Zn97  1  0.00226377  0.37684875  0.87549332  1
  Zn  Zn98  1  0.50018047  0.37438850  0.37611341  1
  Zn  Zn99  1  0.50480006  0.65288683  0.14065626  1
  Zn  Zn100  1  0.87526586  -0.00005583  0.37298280  1
  Zn  Zn101  1  0.25207144  0.87778414  0.12732940  1
  Zn  Zn102  1  0.37319616  0.36949563  -0.00478577  1
  Zn  Zn103  1  0.62857529  0.37394568  0.75423521  1
  Zn  Zn104  1  0.12340773  0.37710575  0.75322394  1
  Zn  Zn105  1  0.87785679  0.50077252  0.87538389  1
  Zn  Zn106  1  0.49458141  0.12372296  0.62326461  1
  Zn  Zn107  1  0.18774113  0.18923280  0.18717657  1
  Zn  Zn108  1  0.16616107  0.19357026  0.68690534  1
  Zn  Zn109  1  0.19059428  0.68681202  0.19010383  1
  Zn  Zn110  1  0.19220285  0.69225284  0.68671534  1
  Zn  Zn111  1  0.68932650  0.18411163  0.18368097  1
  Zn  Zn112  1  0.68488290  0.18669895  0.68535864  1
  Zn  Zn113  1  0.69276902  0.68736865  0.18229633  1
  Zn  Zn114  1  0.68538346  0.69143410  0.68510712  1
  Zn  Zn115  1  0.32963255  0.28065251  0.32817750  1
  Zn  Zn116  1  0.31860008  0.32119729  0.81278290  1
  Zn  Zn117  1  0.31079782  0.81616311  0.31801035  1
  Zn  Zn118  1  0.31094172  0.81504123  0.81446915  1
  Zn  Zn119  1  0.81291735  0.31224700  0.30965007  1
  Zn  Zn120  1  0.81024490  0.31096094  0.81260976  1
  Zn  Zn121  1  0.81145331  0.80948519  0.31230921  1
  Zn  Zn122  1  0.81323894  0.81781866  0.81425230  1
  Zn  Zn123  1  0.18828747  0.43592383  0.44103858  1
  Zn  Zn124  1  0.18734978  0.43602985  0.93617418  1
  Zn  Zn125  1  0.19263318  0.93387246  0.42652518  1
  Zn  Zn126  1  0.19028791  0.94496849  0.93608033  1
  Zn  Zn127  1  0.68812628  0.44127197  0.43869758  1
  Zn  Zn128  1  0.68922211  0.43682213  0.93794801  1
  Zn  Zn129  1  0.68069418  0.93667370  0.43041677  1
  Zn  Zn130  1  0.68376044  0.94957496  0.92804240  1
  Zn  Zn131  1  0.31518866  0.05711198  0.06934085  1
  Zn  Zn132  1  0.25721291  0.01608906  0.73739922  1
  Zn  Zn133  1  0.31269508  0.56383051  0.06246372  1
  Zn  Zn134  1  0.31698602  0.56459368  0.56522273  1
  Zn  Zn135  1  0.80959761  0.06083563  0.06297169  1
  Zn  Zn136  1  0.81210618  0.06233309  0.56234928  1
  Zn  Zn137  1  0.81032497  0.56120201  0.06206641  1
  Zn  Zn138  1  0.81186106  0.56382867  0.56025551  1
  Zn  Zn139  1  0.43681781  0.43405575  0.18644900  1
  Zn  Zn140  1  0.43943183  0.43955883  0.69099334  1
  Zn  Zn141  1  0.44025315  0.93742844  0.19057819  1
  Zn  Zn142  1  0.43093015  0.93441558  0.68411240  1
  Zn  Zn143  1  0.93864711  0.43462915  0.18673555  1
  Zn  Zn144  1  0.93641211  0.43802318  0.68997194  1
  Zn  Zn145  1  0.93989696  0.93874630  0.18531754  1
  Zn  Zn146  1  0.94050131  0.93934526  0.68628877  1
  Zn  Zn147  1  0.06041669  0.06047817  0.31325258  1
  Zn  Zn148  1  0.05985020  0.06941301  0.81764800  1
  Zn  Zn149  1  0.06601253  0.56232458  0.31103169  1
  Zn  Zn150  1  0.06142817  0.56333130  0.81330196  1
  Zn  Zn151  1  0.56174891  0.05645986  0.31278723  1
  Zn  Zn152  1  0.56257963  0.05619732  0.80396784  1
  Zn  Zn153  1  0.55905177  0.56328479  0.31363046  1
  Zn  Zn154  1  0.55968111  0.56556307  0.81554294  1
  Zn  Zn155  1  0.43492199  0.18096394  0.44495814  1
  Zn  Zn156  1  0.43861415  0.18807396  0.93645051  1
  Zn  Zn157  1  0.44324941  0.68853660  0.42630674  1
  Zn  Zn158  1  0.44736005  0.69875160  0.96093275  1
  Zn  Zn159  1  0.93738485  0.18697189  0.43613485  1
  Zn  Zn160  1  0.92844769  0.18728345  0.93765356  1
  Zn  Zn161  1  0.93734579  0.68879372  0.43764173  1
  Zn  Zn162  1  0.94215675  0.68900752  0.93717577  1
  Zn  Zn163  1  0.06307230  0.30995007  0.05901728  1
  Zn  Zn164  1  0.06143939  0.31529955  0.56263244  1
  Zn  Zn165  1  0.06201961  0.81238576  0.06029641  1
  Zn  Zn166  1  0.06047958  0.81341370  0.56114720  1
  Zn  Zn167  1  0.56148511  0.30953322  0.05903176  1
  Zn  Zn168  1  0.56443068  0.31365467  0.56533946  1
  Zn  Zn169  1  0.56041685  0.82236043  0.05992193  1
  Zn  Zn170  1  0.55230122  0.81101739  0.55972617  1
  O  O171  1  0.12038788  0.13910607  0.10742228  1
  O  O172  1  0.10923124  0.12666825  0.61715689  1
  O  O173  1  0.12214402  0.61739911  0.11944663  1
  O  O174  1  0.12130074  0.62125110  0.62405636  1
  O  O175  1  0.61548747  0.11269047  0.12989515  1
  O  O176  1  0.62734359  0.11348319  0.61568799  1
  O  O177  1  0.62149980  0.61693835  0.12101468  1
  O  O178  1  0.63248218  0.61314492  0.61562795  1
  O  O179  1  0.37678137  0.37817227  0.38541114  1
  O  O180  1  0.38800077  0.38537919  0.87696645  1
  O  O181  1  0.38338375  0.87515550  0.38471768  1
  O  O182  1  0.37884121  0.88116601  0.88098134  1
  O  O183  1  0.88439459  0.38161676  0.37347542  1
  O  O184  1  0.87275935  0.37683690  0.88592844  1
  O  O185  1  0.88039871  0.87392205  0.38243961  1
  O  O186  1  0.88782961  0.87863484  0.88300238  1
  O  O187  1  0.23612065  -0.00001304  0.34680835  1
  O  O188  1  0.25865210  0.00213180  0.86238672  1
  O  O189  1  0.25352104  0.50326900  0.36706814  1
  O  O190  1  0.26600694  0.49381171  0.87414132  1
  O  O191  1  0.75104520  0.00689712  0.36502529  1
  O  O192  1  0.77221501  -0.01126187  0.87185001  1
  O  O193  1  0.75829951  0.51052262  0.37468372  1
  O  O194  1  0.75165887  0.51060527  0.86885724  1
  O  O195  1  0.24137497  0.49668420  0.12992541  1
  O  O196  1  0.24177239  0.49712697  0.62655466  1
  O  O197  1  0.25076097  0.99390577  0.14338371  1
  O  O198  1  0.24359774  0.98918873  0.62925111  1
  O  O199  1  0.73862960  0.48907250  0.12395794  1
  O  O200  1  0.74541094  0.49510075  0.62902273  1
  O  O201  1  0.74224667  1.00195462  0.13653684  1
  O  O202  1  0.74390544  0.98624512  0.62001219  1
  O  O203  1  0.00233692  0.37027400  0.25849356  1
  O  O204  1  0.00004625  0.36399355  0.75051811  1
  O  O205  1  0.00682536  0.86981012  0.25325422  1
  O  O206  1  0.00901916  0.87199155  0.75677680  1
  O  O207  1  0.51528771  0.37461132  0.25191772  1
  O  O208  1  0.50432912  0.36658326  0.75494677  1
  O  O209  1  0.50611972  0.86886467  0.25828510  1
  O  O210  1  0.50335740  0.86651738  0.75363667  1
  O  O211  1  0.50107696  0.12584443  0.24349988  1
  O  O212  1  0.50725330  0.13744474  0.74715768  1
  O  O213  1  0.48455043  0.62483831  0.25099579  1
  O  O214  1  0.49300287  0.64074153  0.75622603  1
  O  O215  1  0.98174972  0.12523091  0.25788429  1
  O  O216  1  0.99512581  0.13385851  0.74055440  1
  O  O217  1  0.99579185  0.62967372  0.24343718  1
  O  O218  1  0.99372526  0.63311094  0.74447718  1
  O  O219  1  0.38354879  0.25225463  0.01350575  1
  O  O220  1  0.36554663  0.26452953  0.50341574  1
  O  O221  1  0.35698455  0.76574063  -0.01443475  1
  O  O222  1  0.37778367  0.73763346  0.51085783  1
  O  O223  1  0.86507363  0.25764949  0.00626025  1
  O  O224  1  0.86820879  0.25177031  0.50590751  1
  O  O225  1  0.87347214  0.75932733  0.00235255  1
  O  O226  1  0.87048858  0.76146965  0.50458583  1
  O  O227  1  0.12937101  0.25745216  0.48870202  1
  O  O228  1  0.12309184  0.24125976  0.98711659  1
  O  O229  1  0.11824073  0.75050320  0.48363447  1
  O  O230  1  0.13067037  0.74535908  0.99283178  1
  O  O231  1  0.63358895  0.24562792  0.49407035  1
  O  O232  1  0.64028387  0.25130068  1.00205697  1
  O  O233  1  0.62738663  0.73698477  0.50913048  1
  O  O234  1  0.63926644  0.75107559  0.99568866  1
  O  O235  1  0.50013372  0.23720779  0.12363926  1
  O  O236  1  0.50603831  0.24982481  0.64144127  1
  O  O237  1  0.49429502  0.73354916  0.06666451  1
  O  O238  1  0.48296748  0.75474802  0.63470727  1
  O  O239  1  0.98375869  0.25708126  0.12628802  1
  O  O240  1  0.99367922  0.24491392  0.63046439  1
  O  O241  1  0.99438461  0.74367249  0.12842154  1
  O  O242  1  0.99266427  0.74553757  0.62930362  1
  O  O243  1  0.00936023  0.25821952  0.37715812  1
  O  O244  1  -0.00634610  0.25127015  0.86463797  1
  O  O245  1  0.00439149  0.75421167  0.36700694  1
  O  O246  1  0.00934865  0.76266187  0.87272603  1
  O  O247  1  0.51882747  0.25363131  0.37628721  1
  O  O248  1  0.49379898  0.25733829  0.85953786  1
  O  O249  1  0.50562805  0.76913903  0.37904430  1
  O  O250  1  0.50090140  0.76313901  0.87060379  1
  O  O251  1  0.24506596  0.14268040  0.50622064  1
  O  O252  1  0.23757835  0.11856932  1.00612754  1
  O  O253  1  0.25040455  0.61659312  0.48464516  1
  O  O254  1  0.23913365  0.63453589  1.00474993  1
  O  O255  1  0.74320282  0.12941810  0.49161323  1
  O  O256  1  0.75408410  0.13762420  1.00009965  1
  O  O257  1  0.74315560  0.63068719  0.49244865  1
  O  O258  1  0.74600127  0.63261423  0.99258834  1
  O  O259  1  0.25271144  0.38079092  0.01295552  1
  O  O260  1  0.25524472  0.37132485  0.51247670  1
  O  O261  1  0.25394586  0.87322251  0.00349145  1
  O  O262  1  0.26631178  0.87793486  0.49238278  1
  O  O263  1  0.75606283  0.36921153  0.00620278  1
  O  O264  1  0.75237914  0.37118697  0.50726496  1
  O  O265  1  0.76242905  0.86724603  -0.01044609  1
  O  O266  1  0.75470233  0.86993622  0.50236757  1
  O  O267  1  0.13382509  0.49941286  0.24003719  1
  O  O268  1  0.12654783  0.50065163  0.73953561  1
  O  O269  1  0.11710930  0.98647413  0.24593868  1
  O  O270  1  0.12243379  0.99128677  0.75483088  1
  O  O271  1  0.62574254  0.49436443  0.24212494  1
  O  O272  1  0.63023616  0.50339338  0.74165273  1
  O  O273  1  0.63343202  0.99037965  0.24423922  1
  O  O274  1  0.62437246  0.98409736  0.73629319  1
  O  O275  1  0.36847529  0.00313669  0.25465264  1
  O  O276  1  0.37269962  -0.00417644  0.76153861  1
  O  O277  1  0.36937142  0.50040231  0.25684848  1
  O  O278  1  0.37729784  0.51322935  0.75770499  1
  O  O279  1  0.86715056  0.00336321  0.24891616  1
  O  O280  1  0.88401616  0.00912301  0.75725790  1
  O  O281  1  0.87384375  0.50556929  0.25620057  1
  O  O282  1  0.86655596  0.51061586  0.74978033  1
  O  O283  1  0.11138267  0.37943108  0.37374504  1
  O  O284  1  0.12306751  0.36099497  0.87604352  1
  O  O285  1  0.11818926  0.86633010  0.36338028  1
  O  O286  1  0.11960026  0.87217624  0.86670317  1
  O  O287  1  0.63017845  0.36903238  0.36708140  1
  O  O288  1  0.61090050  0.38391233  0.87275262  1
  O  O289  1  0.62273838  0.86890795  0.35978262  1
  O  O290  1  0.61554717  0.87603772  0.86310330  1
  O  O291  1  0.38782406  0.12902364  0.12748719  1
  O  O292  1  0.37862393  0.13354802  0.61999252  1
  O  O293  1  0.37638762  0.61928951  0.14149120  1
  O  O294  1  0.37202417  0.63798905  0.63571571  1
  O  O295  1  0.86817222  0.13430108  0.13262176  1
  O  O296  1  0.88219500  0.12962979  0.62971303  1
  O  O297  1  0.88107332  0.62801603  0.12930495  1
  O  O298  1  0.87824137  0.63273021  0.62956837  1
  O  O299  1  0.26000066  0.25918673  0.12932242  1
  O  O300  1  0.25259113  0.25725148  0.62394115  1
  O  O301  1  0.24430020  0.75497697  0.11318257  1
  O  O302  1  0.26497186  0.75779722  0.62552013  1
  O  O303  1  0.75592519  0.26020878  0.12085411  1
  O  O304  1  0.75332024  0.25913082  0.61992431  1
  O  O305  1  0.76157657  0.74547800  0.11083050  1
  O  O306  1  0.75535212  0.75878605  0.61696222  1
  O  O307  1  0.22895049  0.26369223  0.38525836  1
  O  O308  1  0.24314896  0.25364343  0.87126438  1
  O  O309  1  0.24065651  0.73882930  0.36885659  1
  O  O310  1  0.23603199  0.75677964  0.88334080  1
  O  O311  1  0.74321294  0.24357649  0.37801653  1
  O  O312  1  0.74949260  0.25007443  0.88582769  1
  O  O313  1  0.75504068  0.73586117  0.38149783  1
  O  O314  1  0.75100442  0.74462687  0.88189088  1
  O  O315  1  -0.00070206  0.11574861  -0.00377855  1
  O  O316  1  -0.01111797  0.11137812  0.50635271  1
  O  O317  1  0.01189985  0.62523464  0.00685937  1
  O  O318  1  0.00158412  0.61978984  0.50705926  1
  O  O319  1  0.49799692  0.11010373  0.00607632  1
  O  O320  1  0.51639847  0.13312677  0.50368228  1
  O  O321  1  0.51442430  0.60492958  -0.01733638  1
  O  O322  1  0.50835738  0.61587620  0.49346606  1
  O  O323  1  0.49296648  0.38117338  0.50179668  1
  O  O324  1  0.50128973  0.38440712  0.99202480  1
  O  O325  1  0.48525637  0.87520714  0.49233036  1
  O  O326  1  0.49461888  0.89481459  0.98535903  1
  O  O327  1  0.99621936  0.38492783  0.49295144  1
  O  O328  1  0.98773349  0.37543237  0.99900339  1
  O  O329  1  0.99139599  0.88203614  0.49608447  1
  O  O330  1  0.99820345  0.88454153  0.99226488  1
  O  O331  1  0.49633562  0.49517781  0.38726203  1
  O  O332  1  0.49267380  0.49216479  0.87833153  1
  O  O333  1  0.51599281  0.97520948  0.37510694  1
  O  O334  1  0.48348277  0.99062016  0.86993285  1
  O  O335  1  0.99501761  0.49586902  0.37806024  1
  O  O336  1  0.99624086  0.49630707  0.87726326  1
  O  O337  1  0.99539370  0.99204244  0.38255711  1
  O  O338  1  0.99534684  0.99245822  0.88185390  1
  O  O339  1  -0.00113282  -0.00010689  0.10766442  1
  O  O340  1  -0.00371114  0.00808520  0.61345161  1
  O  O341  1  0.01304245  0.50269547  0.12379369  1
  O  O342  1  0.00585783  0.50639256  0.62184561  1
  O  O343  1  0.50908107  0.00645329  0.12601867  1
  O  O344  1  0.51050689  0.00056960  0.62732596  1
  O  O345  1  0.51072839  0.49660772  0.11606852  1
  O  O346  1  0.50952721  0.49716417  0.61441270  1
  O  O347  1  0.24859726  0.38805586  0.23939542  1
  O  O348  1  0.24930295  0.37965491  0.73859700  1
  O  O349  1  0.23624489  0.87518119  0.24908791  1
  O  O350  1  0.23250540  0.87314588  0.75125926  1
  O  O351  1  0.74086566  0.37745301  0.24137702  1
  O  O352  1  0.74893404  0.38292734  0.74252668  1
  O  O353  1  0.74232077  0.88124228  0.25477361  1
  O  O354  1  0.73932851  0.86497655  0.73832122  1
  O  O355  1  0.25601826  0.11677679  0.24380455  1
  O  O356  1  0.25948638  0.13846100  0.73106513  1
  O  O357  1  0.25900971  0.61379884  0.25621546  1
  O  O358  1  0.26314226  0.62721932  0.75260978  1
  O  O359  1  0.75670380  0.11667989  0.25622100  1
  O  O360  1  0.76303930  0.12604281  0.74187094  1
  O  O361  1  0.75592822  0.62297319  0.25655613  1
  O  O362  1  0.75416372  0.62568961  0.75691445  1
  O  O363  1  0.36491968  0.17428332  0.36346741  1
  O  O364  1  0.37676562  0.11190599  0.87569416  1
  O  O365  1  0.36941400  0.61729975  0.36577699  1
  O  O366  1  0.38376528  0.61774955  0.86994889  1
  O  O367  1  0.86188457  0.12493081  0.36931280  1
  O  O368  1  0.87987611  0.11576079  0.86231128  1
  O  O369  1  0.86983438  0.62014475  0.36855986  1
  O  O370  1  0.86562088  0.62736055  0.87125834  1
  O  O371  1  0.13183015  0.38056249  0.12481512  1
  O  O372  1  0.13197519  0.38490385  0.62750076  1
  O  O373  1  0.12262361  0.86839579  0.14012356  1
  O  O374  1  0.12147809  0.86815377  0.64130203  1
  O  O375  1  0.63022265  0.37942579  0.13040564  1
  O  O376  1  0.63707760  0.38722203  0.62479754  1
  O  O377  1  0.61589100  0.87769948  0.14493189  1
  O  O378  1  0.62929771  0.87853346  0.62519612  1
  O  O379  1  0.12259986  0.25071724  0.26434838  1
  O  O380  1  0.11435432  0.25362069  0.76587570  1
  O  O381  1  0.11878732  0.75307502  0.25808278  1
  O  O382  1  0.11918790  0.75292703  0.75788185  1
  O  O383  1  0.62852602  0.25757163  0.25662595  1
  O  O384  1  0.61719346  0.25299345  0.75162246  1
  O  O385  1  0.62528116  0.75568427  0.24433027  1
  O  O386  1  0.61479184  0.75934094  0.74704354  1
  O  O387  1  0.38642266  0.25876650  0.22912667  1
  O  O388  1  0.38348493  0.25071461  0.74280181  1
  O  O389  1  0.36657901  0.73598814  0.25133539  1
  O  O390  1  0.37890685  0.74738930  0.74773647  1
  O  O391  1  0.87267602  0.24118888  0.24051126  1
  O  O392  1  0.87882488  0.24350992  0.74350147  1
  O  O393  1  0.88123134  0.74537890  0.24246328  1
  O  O394  1  0.88219933  0.74834930  0.74591586  1
  O  O395  1  0.38272639  0.49457029  0.49590777  1
  O  O396  1  0.38470215  0.50238026  0.99394267  1
  O  O397  1  0.37361328  0.99671846  0.50074899  1
  O  O398  1  0.36830352  0.99403801  0.98431739  1
  O  O399  1  0.88163718  0.50138228  0.49005516  1
  O  O400  1  0.87525823  0.48934713  1.00031291  1
  O  O401  1  0.87632384  0.98758646  0.49806819  1
  O  O402  1  0.88484602  0.99612903  0.99416172  1
  O  O403  1  0.11378388  0.01637328  -0.00826901  1
  O  O404  1  0.11634313  -0.00516047  0.49366863  1
  O  O405  1  0.12627767  0.50880486  0.00572732  1
  O  O406  1  0.11886640  0.50326439  0.51203904  1
  O  O407  1  0.62472813  -0.02757595  0.02508373  1
  O  O408  1  0.63226710  0.00852380  0.50623594  1
  O  O409  1  0.62244755  0.50442512  0.00831466  1
  O  O410  1  0.61846087  0.50776477  0.50626661  1
  O  O411  1  0.36786239  0.37102417  0.11872056  1
  O  O412  1  0.36577131  0.38687732  0.61802123  1
  O  O413  1  0.37907078  0.88132597  0.10870575  1
  O  O414  1  0.37469488  0.86720585  0.60703761  1
  O  O415  1  0.86520496  0.37072089  0.11833676  1
  O  O416  1  0.86356693  0.37203075  0.62358652  1
  O  O417  1  0.88140437  0.87057425  0.11000351  1
  O  O418  1  0.86768682  0.87209901  0.61944464  1
  O  O419  1  0.11846216  0.13720822  0.37758538  1
  O  O420  1  0.12337236  0.14149764  0.88254320  1
  O  O421  1  0.13433066  0.63151652  0.37477985  1
  O  O422  1  0.11984449  0.63579277  0.88447176  1
  O  O423  1  0.63461580  0.13026586  0.37862728  1
  O  O424  1  0.61296261  0.05112408  0.90497821  1
  O  O425  1  0.63457292  0.61790400  0.38405118  1
  O  O426  1  0.63770376  0.63009160  0.87843711  1
