# generated using pymatgen
data_V85Zn86O256
_symmetry_space_group_name_H-M   'P 1'
_cell_length_a   16.92408218
_cell_length_b   16.93517088
_cell_length_c   16.93930732
_cell_angle_alpha   90.01560750
_cell_angle_beta   90.03922651
_cell_angle_gamma   89.91592876
_symmetry_Int_Tables_number   1
_chemical_formula_structural   V85Zn86O256
_chemical_formula_sum   'V85 Zn86 O256'
_cell_volume   4855.00599442
_cell_formula_units_Z   1
loop_
 _symmetry_equiv_pos_site_id
 _symmetry_equiv_pos_as_xyz
  1  'x, y, z'
loop_
 _atom_site_type_symbol
 _atom_site_label
 _atom_site_symmetry_multiplicity
 _atom_site_fract_x
 _atom_site_fract_y
 _atom_site_fract_z
 _atom_site_occupancy
  V  V0  1  0.01328983  0.87085906  0.87346824  1
  V  V1  1  0.62835569  0.61476637  -0.00240712  1
  V  V2  1  0.87426592  0.37758683  0.50052664  1
  V  V3  1  0.00811011  0.12100172  0.62362102  1
  V  V4  1  0.87612239  0.25082673  0.62534754  1
  V  V5  1  0.61332407  0.50057773  0.62852832  1
  V  V6  1  0.24357566  0.62785069  0.88127886  1
  V  V7  1  0.88186943  -0.01029378  0.37568737  1
  V  V8  1  0.00803149  0.25142739  0.75404461  1
  V  V9  1  0.12483932  0.36995592  0.25742283  1
  V  V10  1  0.24152878  0.12823505  0.87347538  1
  V  V11  1  0.62401235  0.74781963  0.37583961  1
  V  V12  1  0.74873111  0.37786541  0.62427489  1
  V  V13  1  0.87275677  0.25095040  0.12127661  1
  V  V14  1  0.13929870  0.62783678  0.49963520  1
  V  V15  1  0.11796144  0.50013484  0.12725202  1
  V  V16  1  0.38292247  0.37239807  0.00124560  1
  V  V17  1  0.87409763  0.87469877  0.50835457  1
  V  V18  1  0.75053088  0.62087037  0.37448045  1
  V  V19  1  0.74725325  0.86665508  0.12094004  1
  V  V20  1  0.37711662  0.73497314  0.12670394  1
  V  V21  1  0.37266566  0.11837477  0.75138149  1
  V  V22  1  0.24826552  0.25563777  0.48776673  1
  V  V23  1  0.25387798  0.00750627  0.24959252  1
  V  V24  1  0.60977684  0.02291701  0.14782935  1
  V  V25  1  0.62468866  0.12672082  0.50188360  1
  V  V26  1  0.37445847  0.01281133  0.37393123  1
  V  V27  1  0.87506871  -0.00251624  0.87542118  1
  V  V28  1  0.38597260  0.38103179  0.50554497  1
  V  V29  1  0.87396035  0.50015777  0.37289005  1
  V  V30  1  -0.00794419  0.49973232  0.00483107  1
  V  V31  1  0.87205664  0.86438543  -0.00113179  1
  V  V32  1  0.87485798  0.62845558  0.75215902  1
  V  V33  1  0.37829738  0.50470710  0.89032682  1
  V  V34  1  0.37452045  0.87550148  0.00295190  1
  V  V35  1  0.37129343  0.75266259  0.62267767  1
  V  V36  1  0.50204542  0.00121356  0.00213344  1
  V  V37  1  0.49431091  0.73476789  0.24790493  1
  V  V38  1  0.62825996  0.87291277  0.74694810  1
  V  V39  1  0.24362015  0.75157605  -0.00067740  1
  V  V40  1  0.24325746  0.25067985  -0.00382917  1
  V  V41  1  0.62238803  0.86673396  0.24775483  1
  V  V42  1  0.87229988  0.62140469  0.24350199  1
  V  V43  1  0.64180478  0.74816626  0.88384326  1
  V  V44  1  0.12520932  0.00208110  0.12486853  1
  V  V45  1  0.49881871  0.25049183  0.75786904  1
  V  V46  1  0.23771882  0.87563189  0.62274054  1
  V  V47  1  0.62665115  0.36816809  0.24666481  1
  V  V48  1  0.61829846  0.62365507  0.50284243  1
  V  V49  1  0.36823328  0.24897685  0.62743292  1
  V  V50  1  0.75329901  -0.00640601  0.74411441  1
  V  V51  1  0.74892892  0.75366229  0.50937108  1
  V  V52  1  0.61284338  0.50116880  0.12573418  1
  V  V53  1  0.62824448  -0.00693860  0.62256617  1
  V  V54  1  0.00174309  0.50647624  0.49938086  1
  V  V55  1  0.13625644  0.75146061  0.38026100  1
  V  V56  1  0.75308212  0.12575616  0.87100320  1
  V  V57  1  0.74949470  0.50636777  0.75337250  1
  V  V58  1  0.87232814  0.49786713  0.87722499  1
  V  V59  1  -0.00194283  0.12483374  0.12343997  1
  V  V60  1  0.38377007  0.24248748  0.14067791  1
  V  V61  1  0.75318700  -0.00763756  0.25058709  1
  V  V62  1  0.75235472  0.25381354  -0.00211662  1
  V  V63  1  0.00060277  0.73521320  0.25347156  1
  V  V64  1  0.23404154  -0.00579819  0.74708466  1
  V  V65  1  0.62258655  0.12415059  -0.00712011  1
  V  V66  1  0.24681237  0.50027289  0.75434116  1
  V  V67  1  -0.00241469  -0.00110021  0.00011566  1
  V  V68  1  0.00991653  -0.00658417  0.50009793  1
  V  V69  1  0.01449768  0.75249773  0.75147551  1
  V  V70  1  0.00493009  0.37376347  0.88063683  1
  V  V71  1  0.87679955  0.12471656  0.74683578  1
  V  V72  1  0.11581207  0.63009888  0.00760973  1
  V  V73  1  0.37182076  0.87646273  0.49848507  1
  V  V74  1  0.49927747  0.87167180  0.87603486  1
  V  V75  1  0.75738432  0.38469511  0.12358633  1
  V  V76  1  0.49813168  0.74856117  0.75083578  1
  V  V77  1  -0.00148934  0.24875624  0.25810726  1
  V  V78  1  0.11510349  0.87621692  0.25452832  1
  V  V79  1  0.49858499  0.12185734  0.62624612  1
  V  V80  1  0.25054048  0.87596236  0.12661560  1
  V  V81  1  0.12542459  0.13199916  0.48988396  1
  V  V82  1  0.75125783  0.12429100  0.37671794  1
  V  V83  1  0.24623359  0.37503254  0.12239714  1
  V  V84  1  0.87348993  0.12247223  0.24947956  1
  Zn  Zn85  1  0.62398140  0.37550583  0.75292611  1
  Zn  Zn86  1  -0.00014666  0.62844841  0.62359952  1
  Zn  Zn87  1  0.87352214  0.75234213  0.62886450  1
  Zn  Zn88  1  0.61933402  0.24547869  0.36502009  1
  Zn  Zn89  1  0.12389189  0.50139720  0.62699022  1
  Zn  Zn90  1  0.49339139  0.62347478  0.62177678  1
  Zn  Zn91  1  0.49653804  0.87682326  0.37330300  1
  Zn  Zn92  1  0.87779465  0.74516207  0.12301827  1
  Zn  Zn93  1  0.50478007  0.38562501  0.87720766  1
  Zn  Zn94  1  0.45061300  0.53420668  0.43506770  1
  Zn  Zn95  1  0.37283241  0.62664385  0.75339174  1
  Zn  Zn96  1  0.12082267  0.12944317  -0.00400745  1
  Zn  Zn97  1  0.31450907  0.55664582  0.30283282  1
  Zn  Zn98  1  0.49223503  0.37266736  0.36136337  1
  Zn  Zn99  1  0.37280398  -0.00126665  0.87566245  1
  Zn  Zn100  1  0.62620607  0.25431318  0.87323870  1
  Zn  Zn101  1  0.25029120  0.13744533  0.36496007  1
  Zn  Zn102  1  0.74970258  0.25257335  0.49863456  1
  Zn  Zn103  1  0.24537305  0.37748875  0.62808586  1
  Zn  Zn104  1  0.12719087  0.37339611  0.75321085  1
  Zn  Zn105  1  0.49882991  0.00033078  0.49790403  1
  Zn  Zn106  1  0.00060042  0.37109432  0.37996862  1
  Zn  Zn107  1  0.18724758  0.19143576  0.18350024  1
  Zn  Zn108  1  0.18586354  0.18441299  0.68431284  1
  Zn  Zn109  1  0.18899786  0.68541855  0.19339574  1
  Zn  Zn110  1  0.18947021  0.68533762  0.68602991  1
  Zn  Zn111  1  0.68090045  0.18041077  0.18613763  1
  Zn  Zn112  1  0.68711437  0.18678228  0.68652806  1
  Zn  Zn113  1  0.68907849  0.68183523  0.18449998  1
  Zn  Zn114  1  0.68605755  0.68597000  0.68954839  1
  Zn  Zn115  1  0.32893937  0.35798359  0.29782277  1
  Zn  Zn116  1  0.31290254  0.31434224  0.81631975  1
  Zn  Zn117  1  0.31141586  0.81601816  0.30970895  1
  Zn  Zn118  1  0.30983504  0.81339874  0.81391881  1
  Zn  Zn119  1  0.80683335  0.31433720  0.31032678  1
  Zn  Zn120  1  0.81693277  0.31739725  0.81101623  1
  Zn  Zn121  1  0.81266614  0.80680523  0.31659856  1
  Zn  Zn122  1  0.81884529  0.81493559  0.81047244  1
  Zn  Zn123  1  0.19911918  0.44080048  0.43949730  1
  Zn  Zn124  1  0.18513295  0.44058443  0.94071273  1
  Zn  Zn125  1  0.18915189  0.93839070  0.43546621  1
  Zn  Zn126  1  0.18761555  0.94208623  0.93822530  1
  Zn  Zn127  1  0.65666900  0.45278045  0.42475744  1
  Zn  Zn128  1  0.68858990  0.43558546  0.93707705  1
  Zn  Zn129  1  0.68883895  0.93523599  0.43591316  1
  Zn  Zn130  1  0.68687398  0.93553265  0.93651665  1
  Zn  Zn131  1  0.31572307  0.06780976  0.06409821  1
  Zn  Zn132  1  0.30652020  0.06208755  0.56096925  1
  Zn  Zn133  1  0.29395222  0.57725168  0.10355884  1
  Zn  Zn134  1  0.31112816  0.56381854  0.56782546  1
  Zn  Zn135  1  0.80568034  0.05874175  0.06278915  1
  Zn  Zn136  1  0.81538142  0.06050505  0.56184092  1
  Zn  Zn137  1  0.80580840  0.57137623  0.05416024  1
  Zn  Zn138  1  0.80977612  0.56445901  0.56476631  1
  Zn  Zn139  1  0.43759780  0.43893764  0.18332515  1
  Zn  Zn140  1  0.42964223  0.43659117  0.69579094  1
  Zn  Zn141  1  0.43652087  0.93401479  0.18995290  1
  Zn  Zn142  1  0.43682312  0.93621563  0.68597251  1
  Zn  Zn143  1  0.93732740  0.43701755  0.18999764  1
  Zn  Zn144  1  0.93984496  0.43901114  0.68794522  1
  Zn  Zn145  1  0.93737893  0.93287152  0.18501508  1
  Zn  Zn146  1  0.94380298  0.93495348  0.68547120  1
  Zn  Zn147  1  0.06269298  0.06267290  0.31346272  1
  Zn  Zn148  1  0.06062888  0.06110169  0.81320096  1
  Zn  Zn149  1  0.11956589  0.54751329  0.32682120  1
  Zn  Zn150  1  0.06180579  0.56664072  0.81839852  1
  Zn  Zn151  1  0.56259665  0.06173200  0.31498445  1
  Zn  Zn152  1  0.56237840  0.05981175  0.81242581  1
  Zn  Zn153  1  0.56651566  0.55588241  0.30541311  1
  Zn  Zn154  1  0.56290962  0.56760410  0.81591495  1
  Zn  Zn155  1  0.43977048  0.19595394  0.43547756  1
  Zn  Zn156  1  0.43101570  0.18607202  0.94111068  1
  Zn  Zn157  1  0.42279053  0.69769218  0.42864698  1
  Zn  Zn158  1  0.43973395  0.68506842  0.94814726  1
  Zn  Zn159  1  0.93363052  0.18440337  0.44012842  1
  Zn  Zn160  1  0.93642373  0.18863039  0.93634290  1
  Zn  Zn161  1  0.94294537  0.69031909  0.43208134  1
  Zn  Zn162  1  0.93751354  0.68537567  0.93164572  1
  Zn  Zn163  1  0.05871086  0.31315575  0.06145217  1
  Zn  Zn164  1  0.06404444  0.31610206  0.56620342  1
  Zn  Zn165  1  0.05852269  0.81280584  0.06856919  1
  Zn  Zn166  1  0.05889796  0.80955741  0.56080244  1
  Zn  Zn167  1  0.56331508  0.30923773  0.06497971  1
  Zn  Zn168  1  0.56302556  0.30645493  0.57037330  1
  Zn  Zn169  1  0.56141881  0.80996973  0.06463357  1
  Zn  Zn170  1  0.55692773  0.81316449  0.56077317  1
  O  O171  1  0.11624979  0.11829507  0.12292118  1
  O  O172  1  0.11279515  0.12700198  0.61459977  1
  O  O173  1  0.12425980  0.61269146  0.11975847  1
  O  O174  1  0.12189056  0.62565916  0.61423275  1
  O  O175  1  0.65479554  0.11345730  0.09492062  1
  O  O176  1  0.62150044  0.11395066  0.62035669  1
  O  O177  1  0.63095364  0.60696526  0.11822142  1
  O  O178  1  0.61957079  0.61956625  0.61996646  1
  O  O179  1  0.37959156  0.37162896  0.40222573  1
  O  O180  1  0.37546502  0.38755291  0.88365246  1
  O  O181  1  0.37114487  0.88261128  0.38475532  1
  O  O182  1  0.38234573  0.87724829  0.88282504  1
  O  O183  1  0.87062610  0.38337310  0.38128793  1
  O  O184  1  0.88614714  0.39016344  0.87004952  1
  O  O185  1  0.86969196  0.88572800  0.38269117  1
  O  O186  1  0.88150485  0.88077222  0.88302630  1
  O  O187  1  0.25665824  0.00449721  0.36615213  1
  O  O188  1  0.25141419  0.00356757  0.86185194  1
  O  O189  1  0.22282415  0.50884023  0.35678923  1
  O  O190  1  0.25697854  0.50928721  0.87621003  1
  O  O191  1  0.75749483  0.00702320  0.37036652  1
  O  O192  1  0.75537167  0.00491311  0.86637435  1
  O  O193  1  0.75602643  0.51415884  0.38352085  1
  O  O194  1  0.75887247  0.49401126  0.86583185  1
  O  O195  1  0.23299576  0.48191330  0.11438061  1
  O  O196  1  0.24822206  0.50133517  0.64132354  1
  O  O197  1  0.24595057  0.99650835  0.12958206  1
  O  O198  1  0.25201697  0.98968501  0.63753360  1
  O  O199  1  0.74801191  0.48538519  0.11189949  1
  O  O200  1  0.74301661  0.49460460  0.63429229  1
  O  O201  1  0.73974180  0.99056681  0.13610269  1
  O  O202  1  0.74222709  1.00527441  0.63366516  1
  O  O203  1  0.00466134  0.36379834  0.25112616  1
  O  O204  1  0.00024511  0.36646114  0.75765147  1
  O  O205  1  0.01227461  0.87388078  0.25053234  1
  O  O206  1  -0.00326135  0.86301648  0.75842500  1
  O  O207  1  0.52379885  0.37750022  0.24441357  1
  O  O208  1  0.49797858  0.36400523  0.75496950  1
  O  O209  1  0.51095313  0.86791856  0.25219592  1
  O  O210  1  0.50495515  0.86785123  0.75689391  1
  O  O211  1  0.57561879  0.10423285  0.21166772  1
  O  O212  1  0.49061346  0.12666507  0.74696311  1
  O  O213  1  0.50561205  0.63599211  0.24893713  1
  O  O214  1  0.49673402  0.63991319  0.75217512  1
  O  O215  1  0.99352691  0.12993154  0.24393290  1
  O  O216  1  0.99635713  0.12880011  0.74265299  1
  O  O217  1  0.99208584  0.63418798  0.25356407  1
  O  O218  1  0.99526456  0.63671409  0.75114902  1
  O  O219  1  0.36312038  0.25703118  0.00438461  1
  O  O220  1  0.36725920  0.25465757  0.51239913  1
  O  O221  1  0.36772618  0.75944575  0.00655246  1
  O  O222  1  0.37646350  0.76181878  0.51131535  1
  O  O223  1  0.86763437  0.24336645  0.01293894  1
  O  O224  1  0.87274728  0.25770796  0.50739160  1
  O  O225  1  0.88116838  0.76040162  0.00127284  1
  O  O226  1  0.86883415  0.75780548  0.49950900  1
  O  O227  1  0.13490866  0.24449471  0.50539008  1
  O  O228  1  0.13752529  0.24833441  1.00465867  1
  O  O229  1  0.12250183  0.74693972  0.48720426  1
  O  O230  1  0.13079086  0.74276337  1.01126827  1
  O  O231  1  0.63080630  0.23521352  0.50769087  1
  O  O232  1  0.63280934  0.24086763  0.99663756  1
  O  O233  1  0.62981254  0.74563753  0.49682320  1
  O  O234  1  0.62901566  0.76264445  0.98396447  1
  O  O235  1  0.48327609  0.25355858  0.12342466  1
  O  O236  1  0.48855015  0.24150330  0.63788914  1
  O  O237  1  0.49228408  0.75715701  0.13987499  1
  O  O238  1  0.49039690  0.75183726  0.63469136  1
  O  O239  1  0.98953685  0.24440992  0.12984899  1
  O  O240  1  0.99329141  0.24338815  0.63204521  1
  O  O241  1  0.99533716  0.75759692  0.14704998  1
  O  O242  1  0.99630198  0.75138096  0.63906772  1
  O  O243  1  -0.01052825  0.24901514  0.36142109  1
  O  O244  1  -0.00758207  0.25995061  0.86700637  1
  O  O245  1  0.00869394  0.75472710  0.35913481  1
  O  O246  1  -0.00273048  0.75784691  0.86217534  1
  O  O247  1  0.50912091  0.26081906  0.37975612  1
  O  O248  1  0.49672006  0.24534446  0.86408746  1
  O  O249  1  0.50433842  0.75360612  0.36192712  1
  O  O250  1  0.50226630  0.76034501  0.87048396  1
  O  O251  1  0.24032264  0.13466279  0.49945118  1
  O  O252  1  0.24896269  0.13079800  0.98994268  1
  O  O253  1  0.23894112  0.62385241  0.50229450  1
  O  O254  1  0.23894515  0.63433641  1.00258105  1
  O  O255  1  0.74524746  0.12374479  0.49255253  1
  O  O256  1  0.75110627  0.13250535  0.98556542  1
  O  O257  1  0.74098395  0.63372220  0.49640075  1
  O  O258  1  0.72905335  0.63788541  1.00344902  1
  O  O259  1  0.25406028  0.36711334  0.00219211  1
  O  O260  1  0.25850707  0.37005965  0.50699165  1
  O  O261  1  0.25286589  0.87116232  0.00524510  1
  O  O262  1  0.25709338  0.88399041  0.51494560  1
  O  O263  1  0.74707702  0.36079517  0.00804977  1
  O  O264  1  0.75556334  0.37575283  0.51443771  1
  O  O265  1  0.75971094  0.88339352  0.00876002  1
  O  O266  1  0.75875257  0.86537948  0.49510302  1
  O  O267  1  0.10492035  0.48278556  0.23436712  1
  O  O268  1  0.13668519  0.50466439  0.75533882  1
  O  O269  1  0.12882493  0.99300300  0.24612232  1
  O  O270  1  0.13542038  1.00101107  0.74769858  1
  O  O271  1  0.63124092  0.49075004  0.23106202  1
  O  O272  1  0.63302400  0.50300218  0.74662969  1
  O  O273  1  0.63424297  0.97934900  0.25469012  1
  O  O274  1  0.63296293  0.99458185  0.74271413  1
  O  O275  1  0.36536372  -0.00525980  0.25901927  1
  O  O276  1  0.37021433  0.00983630  0.74965070  1
  O  O277  1  0.37425490  0.46080549  0.26972246  1
  O  O278  1  0.36263263  0.50466413  0.76501390  1
  O  O279  1  0.87294327  0.00059776  0.25750874  1
  O  O280  1  0.86977133  0.00322206  0.75193042  1
  O  O281  1  0.88071209  0.50668762  0.26416873  1
  O  O282  1  0.86979200  0.50670577  0.75548139  1
  O  O283  1  0.12053467  0.37568678  0.35979178  1
  O  O284  1  0.11002541  0.38086985  0.87356798  1
  O  O285  1  0.12965629  0.86395320  0.36794137  1
  O  O286  1  0.11235021  0.87803528  0.88016014  1
  O  O287  1  0.65229436  0.36720235  0.35109356  1
  O  O288  1  0.62063644  0.37221672  0.87148358  1
  O  O289  1  0.62516040  0.86447693  0.36739947  1
  O  O290  1  0.61902340  0.86781034  0.86715058  1
  O  O291  1  0.36918553  0.14234296  0.12977143  1
  O  O292  1  0.37671972  0.12900501  0.63185321  1
  O  O293  1  0.39036459  0.63918159  0.10112782  1
  O  O294  1  0.37523539  0.63804839  0.62980307  1
  O  O295  1  0.87571267  0.12889028  0.13126852  1
  O  O296  1  0.88432700  0.13039122  0.62787597  1
  O  O297  1  0.86534053  0.62475869  0.13952355  1
  O  O298  1  0.87717543  0.62613132  0.63821772  1
  O  O299  1  0.25400243  0.25922995  0.11593224  1
  O  O300  1  0.25983073  0.24878734  0.62344267  1
  O  O301  1  0.25752413  0.75725805  0.11696948  1
  O  O302  1  0.25900958  0.76634663  0.63596093  1
  O  O303  1  0.75570551  0.25452931  0.11648442  1
  O  O304  1  0.75815164  0.25845344  0.62768808  1
  O  O305  1  0.75276205  0.76326729  0.13015120  1
  O  O306  1  0.75026824  0.74690205  0.61325994  1
  O  O307  1  0.25683412  0.25371904  0.38744011  1
  O  O308  1  0.25343780  0.24025399  0.88195639  1
  O  O309  1  0.23528918  0.74856168  0.36540291  1
  O  O310  1  0.25363151  0.74487535  0.89076391  1
  O  O311  1  0.75097105  0.23379046  0.37541781  1
  O  O312  1  0.75367205  0.24622337  0.88030212  1
  O  O313  1  0.74416142  0.73977297  0.38578717  1
  O  O314  1  0.73914791  0.75587909  0.86957704  1
  O  O315  1  -0.00097400  0.11810103  0.00456271  1
  O  O316  1  0.00602912  0.12024098  0.50573962  1
  O  O317  1  0.00864729  0.61870379  -0.00427252  1
  O  O318  1  0.00362526  0.61998074  0.50200919  1
  O  O319  1  0.50976549  0.11544853  -0.00722716  1
  O  O320  1  0.50874531  0.12293366  0.50778697  1
  O  O321  1  0.53041500  0.64617084  0.00399171  1
  O  O322  1  0.51162460  0.62775430  0.49969561  1
  O  O323  1  0.48656481  0.36993641  0.51460639  1
  O  O324  1  0.48652720  0.36708223  0.99646338  1
  O  O325  1  0.48700191  0.87975532  0.49665234  1
  O  O326  1  0.49635815  0.88029772  0.99343030  1
  O  O327  1  0.99022679  0.38113346  0.49978917  1
  O  O328  1  0.99838604  0.38423296  0.99262393  1
  O  O329  1  0.99201671  0.88431140  0.50248828  1
  O  O330  1  0.99253437  0.87972980  0.99493928  1
  O  O331  1  0.53749981  0.47946619  0.38598289  1
  O  O332  1  0.48257231  0.50546589  0.87292840  1
  O  O333  1  0.49050074  0.99896002  0.37449946  1
  O  O334  1  0.49980608  0.98727434  0.88062903  1
  O  O335  1  0.99086876  0.49621541  0.38867322  1
  O  O336  1  0.99356822  0.49498684  0.88431310  1
  O  O337  1  0.99071411  1.00576013  0.38488980  1
  O  O338  1  0.99386690  0.99297949  0.87956600  1
  O  O339  1  0.00345568  0.00459952  0.11963100  1
  O  O340  1  -0.00453339  0.00934766  0.61386314  1
  O  O341  1  0.00077665  0.49392717  0.11203228  1
  O  O342  1  -0.00014325  0.50293410  0.61253197  1
  O  O343  1  0.50889610  -0.00817973  0.11711609  1
  O  O344  1  0.50911736  0.00550231  0.62494723  1
  O  O345  1  0.51425522  0.49416456  0.11874412  1
  O  O346  1  0.51012272  0.50200841  0.63878190  1
  O  O347  1  0.22960674  0.36615710  0.23751153  1
  O  O348  1  0.24765219  0.38507510  0.75416552  1
  O  O349  1  0.24046304  0.88498023  0.24376955  1
  O  O350  1  0.25290611  0.88774436  0.74241769  1
  O  O351  1  0.74675316  0.37275136  0.22859797  1
  O  O352  1  0.75108314  0.38525227  0.73967640  1
  O  O353  1  0.74492187  0.87380989  0.24558438  1
  O  O354  1  0.74712787  0.88682539  0.75214616  1
  O  O355  1  0.23946375  0.11210038  0.24960654  1
  O  O356  1  0.25305792  0.11460621  0.75264859  1
  O  O357  1  0.27410789  0.61748867  0.21232388  1
  O  O358  1  0.25114474  0.62298198  0.76553465  1
  O  O359  1  0.75490411  0.11501547  0.25691853  1
  O  O360  1  0.75566902  0.11649339  0.75347952  1
  O  O361  1  0.75880798  0.63130475  0.26253965  1
  O  O362  1  0.75729045  0.61433007  0.74710982  1
  O  O363  1  0.37209831  0.11611519  0.38081457  1
  O  O364  1  0.36341769  0.12034711  0.86703637  1
  O  O365  1  0.38566062  0.60724565  0.37984879  1
  O  O366  1  0.36528631  0.61790082  0.88481334  1
  O  O367  1  0.86853146  0.11399012  0.37077654  1
  O  O368  1  0.87257092  0.11752404  0.86593202  1
  O  O369  1  0.86925830  0.61876565  0.36940158  1
  O  O370  1  0.87886074  0.61367170  0.86201248  1
  O  O371  1  0.12696722  0.37862330  0.12908375  1
  O  O372  1  0.12711878  0.38165820  0.63409158  1
  O  O373  1  0.13035571  0.88254634  0.13324892  1
  O  O374  1  0.13917193  0.87094759  0.61967577  1
  O  O375  1  0.63553744  0.38160979  0.12547610  1
  O  O376  1  0.63168747  0.38250285  0.62931800  1
  O  O377  1  0.63041739  0.87914398  0.13311998  1
  O  O378  1  0.62073392  0.88619922  0.62846730  1
  O  O379  1  0.11203576  0.26020015  0.24243818  1
  O  O380  1  0.11124223  0.24687271  0.74771501  1
  O  O381  1  0.11789503  0.75361592  0.25577299  1
  O  O382  1  0.11305889  0.74640826  0.75053152  1
  O  O383  1  0.63209012  0.26387951  0.24383857  1
  O  O384  1  0.61329065  0.24869963  0.75043817  1
  O  O385  1  0.61726659  0.75144264  0.25180769  1
  O  O386  1  0.61880294  0.75424164  0.75823952  1
  O  O387  1  0.36880928  0.26309288  0.23856531  1
  O  O388  1  0.37644973  0.23797693  0.74644045  1
  O  O389  1  0.38678354  0.75378827  0.24359457  1
  O  O390  1  0.38228873  0.75262152  0.74468021  1
  O  O391  1  0.87785592  0.24436065  0.23959974  1
  O  O392  1  0.88362409  0.24385301  0.74418829  1
  O  O393  1  0.88496229  0.74059316  0.25385157  1
  O  O394  1  0.88004157  0.74220605  0.74889975  1
  O  O395  1  0.37960756  0.48638639  0.51611945  1
  O  O396  1  0.36758289  0.49088455  0.99139791  1
  O  O397  1  0.37412433  0.99534908  0.49226213  1
  O  O398  1  0.38651194  0.99641255  1.00095181  1
  O  O399  1  0.87829706  0.49743193  0.49312519  1
  O  O400  1  0.88095370  0.51119577  0.99068212  1
  O  O401  1  0.88237221  0.99320735  0.49351837  1
  O  O402  1  0.88076138  0.99312389  0.99633806  1
  O  O403  1  0.11562595  0.00208325  0.00767318  1
  O  O404  1  0.11479569  0.00798885  0.49395384  1
  O  O405  1  0.11370443  0.50668828  0.00907698  1
  O  O406  1  0.11755555  0.51052633  0.49952374  1
  O  O407  1  0.61369518  0.00344942  0.00060334  1
  O  O408  1  0.62613367  0.00735680  0.50647292  1
  O  O409  1  0.62641300  0.50763030  0.00471794  1
  O  O410  1  0.63407820  0.51268099  0.51754033  1
  O  O411  1  0.36374267  0.37106451  0.11513230  1
  O  O412  1  0.37023684  0.36475304  0.62364821  1
  O  O413  1  0.36793272  0.86982207  0.11969850  1
  O  O414  1  0.36835253  0.87172179  0.61793880  1
  O  O415  1  0.86486454  0.36729845  0.12632425  1
  O  O416  1  0.86905821  0.37138902  0.62109102  1
  O  O417  1  0.86605070  0.87454675  0.11590075  1
  O  O418  1  0.87425224  0.87552576  0.61239683  1
  O  O419  1  0.12600160  0.12747867  0.38581560  1
  O  O420  1  0.13659084  0.12050240  0.87579276  1
  O  O421  1  0.11533321  0.64298511  0.38576606  1
  O  O422  1  0.13674276  0.62111983  0.89070983  1
  O  O423  1  0.63326299  0.12415376  0.38542208  1
  O  O424  1  0.63331081  0.12529917  0.87990343  1
  O  O425  1  0.63186226  0.62809108  0.38168725  1
  O  O426  1  0.62617202  0.63862828  0.88318289  1
