# generated using pymatgen
data_V85Zn86O256
_symmetry_space_group_name_H-M   'P 1'
_cell_length_a   16.95362397
_cell_length_b   16.95650197
_cell_length_c   16.94121967
_cell_angle_alpha   90.03489464
_cell_angle_beta   89.93439805
_cell_angle_gamma   89.95397892
_symmetry_Int_Tables_number   1
_chemical_formula_structural   V85Zn86O256
_chemical_formula_sum   'V85 Zn86 O256'
_cell_volume   4870.15719367
_cell_formula_units_Z   1
loop_
 _symmetry_equiv_pos_site_id
 _symmetry_equiv_pos_as_xyz
  1  'x, y, z'
loop_
 _atom_site_type_symbol
 _atom_site_label
 _atom_site_symmetry_multiplicity
 _atom_site_fract_x
 _atom_site_fract_y
 _atom_site_fract_z
 _atom_site_occupancy
  V  V0  1  0.24913072  0.87470527  0.12206917  1
  V  V1  1  0.25013125  0.37366419  0.12308642  1
  V  V2  1  0.74703658  -0.00015680  0.25243237  1
  V  V3  1  0.36961021  0.86830379  0.51543410  1
  V  V4  1  -0.00119913  0.88936462  0.88143138  1
  V  V5  1  0.12053333  -0.00092081  0.12088283  1
  V  V6  1  -0.00182657  0.12377084  0.11955307  1
  V  V7  1  0.49909982  0.00558465  0.00048135  1
  V  V8  1  0.38268295  0.74069863  0.12345206  1
  V  V9  1  0.37769513  -0.00927219  0.37495278  1
  V  V10  1  0.75876243  0.25179900  0.50328994  1
  V  V11  1  0.62416610  0.49480447  0.63276399  1
  V  V12  1  0.61700328  0.25760649  0.37757199  1
  V  V13  1  0.75535479  0.37315067  0.63148235  1
  V  V14  1  0.25489157  0.49995760  0.76645553  1
  V  V15  1  0.50230365  0.49511494  0.49611840  1
  V  V16  1  0.00316257  0.62655525  0.12172544  1
  V  V17  1  0.25206852  0.37953352  0.62458795  1
  V  V18  1  0.87540419  0.75193881  0.12325472  1
  V  V19  1  0.49795726  0.73518710  0.25320103  1
  V  V20  1  0.62270091  0.62759771  0.00603231  1
  V  V21  1  0.74964515  0.75167639  0.00193725  1
  V  V22  1  0.61018104  0.87764409  0.25546039  1
  V  V23  1  0.37558559  0.37941489  -0.00686988  1
  V  V24  1  -0.01023761  0.74687197  0.75445059  1
  V  V25  1  0.74813992  0.25379572  0.00070161  1
  V  V26  1  -0.00043402  0.37834779  0.37467201  1
  V  V27  1  0.37912174  0.50549914  0.37135962  1
  V  V28  1  0.12684092  0.25109288  0.37468875  1
  V  V29  1  0.49366666  0.12452765  0.63036641  1
  V  V30  1  0.74897199  0.37907598  0.12731615  1
  V  V31  1  0.25637029  0.50596443  0.25002906  1
  V  V32  1  0.75275659  0.49762639  0.75474731  1
  V  V33  1  0.12738328  0.37709086  0.24894503  1
  V  V34  1  0.50190916  -0.00703145  0.49728170  1
  V  V35  1  0.62838931  0.25229871  0.86184626  1
  V  V36  1  0.48961343  0.62328623  0.62748561  1
  V  V37  1  0.25100704  0.24917125  0.50169392  1
  V  V38  1  0.11240111  0.12543073  0.50485964  1
  V  V39  1  0.75840003  0.62446753  0.87406346  1
  V  V40  1  0.37397743  0.87778190  -0.00446812  1
  V  V41  1  0.85564488  0.86391499  0.50030954  1
  V  V42  1  0.76063503  0.12096460  0.87533110  1
  V  V43  1  0.12378493  -0.00437554  0.62445354  1
  V  V44  1  0.12667046  0.51178014  0.12251284  1
  V  V45  1  0.88304314  0.38040139  -0.00576609  1
  V  V46  1  0.24658174  0.74032219  -0.00753299  1
  V  V47  1  0.38055922  0.37213070  0.49487600  1
  V  V48  1  0.37537059  0.00605628  0.86825069  1
  V  V49  1  0.24920141  0.00278640  0.24807890  1
  V  V50  1  0.62300155  -0.00638387  0.64017860  1
  V  V51  1  -0.00678024  0.62339108  0.62621430  1
  V  V52  1  0.62422356  0.75413159  0.87289046  1
  V  V53  1  0.74806683  0.50275497  0.25260393  1
  V  V54  1  -0.00752774  0.25006977  0.73165014  1
  V  V55  1  0.10850527  0.25195690  0.87354059  1
  V  V56  1  0.75099459  0.12531766  0.37681392  1
  V  V57  1  0.74700279  0.87644883  0.12653744  1
  V  V58  1  0.25125745  -0.00356523  0.74417493  1
  V  V59  1  0.61682421  0.50350265  0.12750053  1
  V  V60  1  0.87566148  0.12557622  0.25029253  1
  V  V61  1  0.49466031  0.24911384  0.75073376  1
  V  V62  1  0.50541619  0.38146314  0.86835907  1
  V  V63  1  0.11978327  0.37645300  0.75270678  1
  V  V64  1  0.61925215  0.13179552  0.00326018  1
  V  V65  1  -0.00137107  -0.01843014  0.49931408  1
  V  V66  1  0.76160877  -0.00931069  0.75738753  1
  V  V67  1  0.00102636  0.75946730  0.25683967  1
  V  V68  1  0.49614150  0.50650959  -0.00227061  1
  V  V69  1  0.61665651  0.00685163  0.12660474  1
  V  V70  1  0.74794138  0.63555186  0.38009785  1
  V  V71  1  0.50245207  0.87695265  0.87239714  1
  V  V72  1  0.12768853  0.73707877  0.87515788  1
  V  V73  1  0.62641738  0.63265953  0.50474222  1
  V  V74  1  0.49616276  0.75060523  0.74907479  1
  V  V75  1  0.37575642  0.61627327  0.76916040  1
  V  V76  1  0.38433829  0.24664795  0.12146056  1
  V  V77  1  0.38220673  0.12614705  0.24688561  1
  V  V78  1  0.12357914  0.12031579  -0.00332790  1
  V  V79  1  0.24950252  0.25010364  -0.00355303  1
  V  V80  1  0.25085045  0.12498611  0.37626590  1
  V  V81  1  0.62533590  0.12237191  0.50234367  1
  V  V82  1  0.87474122  0.25503112  0.12507876  1
  V  V83  1  0.87478748  0.50270020  0.37865876  1
  V  V84  1  0.25249427  0.12901413  0.86548252  1
  Zn  Zn85  1  0.11460222  0.88247037  0.25857469  1
  Zn  Zn86  1  0.13412797  0.75688201  0.38544259  1
  Zn  Zn87  1  0.87972750  0.37404427  0.50516193  1
  Zn  Zn88  1  0.87626212  0.62781795  0.25184052  1
  Zn  Zn89  1  0.13032068  0.62796664  0.50049975  1
  Zn  Zn90  1  0.00518155  0.50520710  0.49876088  1
  Zn  Zn91  1  0.37300866  0.24700415  0.62892637  1
  Zn  Zn92  1  0.12503512  0.50203098  0.62375032  1
  Zn  Zn93  1  0.12461366  0.87192319  0.74828527  1
  Zn  Zn94  1  0.88194436  -0.00604031  0.37296359  1
  Zn  Zn95  1  0.73509653  0.86162194  0.63249759  1
  Zn  Zn96  1  0.88430222  0.12180082  0.73666583  1
  Zn  Zn97  1  0.00130520  0.24940698  0.24968006  1
  Zn  Zn98  1  0.49996356  0.25359111  0.25017425  1
  Zn  Zn99  1  0.25311160  0.63220916  0.38324380  1
  Zn  Zn100  1  0.87625853  0.89178589  -0.00046849  1
  Zn  Zn101  1  0.24871324  0.75082268  0.54407553  1
  Zn  Zn102  1  0.88671650  0.50276831  0.86918820  1
  Zn  Zn103  1  0.61963537  0.75805050  0.38205384  1
  Zn  Zn104  1  0.01033396  0.50483753  -0.00935496  1
  Zn  Zn105  1  0.86235446  0.74503765  0.62844083  1
  Zn  Zn106  1  0.61653174  0.38059960  0.25747214  1
  Zn  Zn107  1  0.19097110  0.18871097  0.18622233  1
  Zn  Zn108  1  0.18363699  0.18768006  0.68508931  1
  Zn  Zn109  1  0.20454267  0.70596751  0.21676827  1
  Zn  Zn110  1  0.17919245  0.67832540  0.69329620  1
  Zn  Zn111  1  0.68611915  0.18950993  0.19039091  1
  Zn  Zn112  1  0.72198332  0.16639480  0.66968963  1
  Zn  Zn113  1  0.68501275  0.68816410  0.19072802  1
  Zn  Zn114  1  0.68394967  0.68222486  0.69160612  1
  Zn  Zn115  1  0.31543324  0.31531092  0.31255277  1
  Zn  Zn116  1  0.31323739  0.31486498  0.81310794  1
  Zn  Zn117  1  0.31517252  0.81605009  0.30935564  1
  Zn  Zn118  1  0.29217082  0.79112123  0.75706002  1
  Zn  Zn119  1  0.80995027  0.31482919  0.31341965  1
  Zn  Zn120  1  0.81338628  0.31302318  0.81198995  1
  Zn  Zn121  1  0.81298922  0.81590924  0.31205807  1
  Zn  Zn122  1  0.81485007  0.81554954  0.81827920  1
  Zn  Zn123  1  0.18944026  0.44350671  0.43817046  1
  Zn  Zn124  1  0.18194220  0.43544276  0.93745370  1
  Zn  Zn125  1  0.18938446  0.93342175  0.43861099  1
  Zn  Zn126  1  0.18676536  0.93431899  0.93101765  1
  Zn  Zn127  1  0.68930175  0.43997244  0.44340051  1
  Zn  Zn128  1  0.68722138  0.43799256  0.93903906  1
  Zn  Zn129  1  0.68624036  0.93787177  0.43733808  1
  Zn  Zn130  1  0.68814699  0.93808805  0.93959059  1
  Zn  Zn131  1  0.30993661  0.06510333  0.05960859  1
  Zn  Zn132  1  0.31178473  0.06066610  0.56128513  1
  Zn  Zn133  1  0.31048569  0.56205969  0.06114249  1
  Zn  Zn134  1  0.31207910  0.56286399  0.56253745  1
  Zn  Zn135  1  0.80359159  0.06655880  0.06716121  1
  Zn  Zn136  1  0.81696704  0.05350672  0.56613989  1
  Zn  Zn137  1  0.81257660  0.56507663  0.06422829  1
  Zn  Zn138  1  0.81184640  0.56362102  0.56412511  1
  Zn  Zn139  1  0.43925160  0.43227657  0.18671414  1
  Zn  Zn140  1  0.43584572  0.43581909  0.68634799  1
  Zn  Zn141  1  0.43532999  0.93756217  0.18444125  1
  Zn  Zn142  1  0.43985693  0.93793103  0.69135268  1
  Zn  Zn143  1  0.93904565  0.44207997  0.18996927  1
  Zn  Zn144  1  0.93589738  0.43801157  0.69072947  1
  Zn  Zn145  1  0.93405124  0.93968079  0.18265424  1
  Zn  Zn146  1  0.94076215  0.93058826  0.68149451  1
  Zn  Zn147  1  0.06172957  0.06129783  0.31439799  1
  Zn  Zn148  1  0.06482698  0.06959189  0.80351962  1
  Zn  Zn149  1  0.06559882  0.57215347  0.31251763  1
  Zn  Zn150  1  0.06085249  0.56219450  0.80958223  1
  Zn  Zn151  1  0.56072624  0.06718586  0.31533943  1
  Zn  Zn152  1  0.56594137  0.06937537  0.81478229  1
  Zn  Zn153  1  0.56211337  0.56476629  0.31709301  1
  Zn  Zn154  1  0.56893099  0.56499522  0.81462999  1
  Zn  Zn155  1  0.43725610  0.18107451  0.44072721  1
  Zn  Zn156  1  0.43821160  0.19012655  0.93477429  1
  Zn  Zn157  1  0.43643127  0.68671128  0.43934176  1
  Zn  Zn158  1  0.43676729  0.68889280  0.93890974  1
  Zn  Zn159  1  0.93802127  0.18890595  0.43524311  1
  Zn  Zn160  1  0.93614144  0.06370461  0.93731265  1
  Zn  Zn161  1  0.93844963  0.68881559  0.43944771  1
  Zn  Zn162  1  0.94043424  0.69035251  0.94096946  1
  Zn  Zn163  1  0.06198102  0.31084109  0.06274265  1
  Zn  Zn164  1  0.06623502  0.31800932  0.56108996  1
  Zn  Zn165  1  0.06330409  0.81166214  0.05913080  1
  Zn  Zn166  1  0.06543816  0.80718639  0.56742081  1
  Zn  Zn167  1  0.56198647  0.31882082  0.06209361  1
  Zn  Zn168  1  0.56778466  0.31165424  0.56497177  1
  Zn  Zn169  1  0.56123867  0.81709994  0.06342985  1
  Zn  Zn170  1  0.55327722  0.81215928  0.56565000  1
  O  O171  1  0.11896908  0.12209861  0.11726871  1
  O  O172  1  0.13056994  0.11454705  0.61286842  1
  O  O173  1  0.12032442  0.61497376  0.13372618  1
  O  O174  1  0.10836387  0.62060644  0.62678593  1
  O  O175  1  0.62906808  0.11940629  0.11683456  1
  O  O176  1  0.62241709  0.11041555  0.62007290  1
  O  O177  1  0.62927000  0.61913862  0.11405096  1
  O  O178  1  0.61534969  0.61289614  0.62058642  1
  O  O179  1  0.37079805  0.38246985  0.38932724  1
  O  O180  1  0.38559201  0.36918799  0.88754145  1
  O  O181  1  0.37278969  0.88821813  0.37737433  1
  O  O182  1  0.38093828  0.88804322  0.88780545  1
  O  O183  1  0.88392385  0.38269461  0.37366072  1
  O  O184  1  0.86893855  0.37626854  0.89289885  1
  O  O185  1  0.86384302  0.87914512  0.39297859  1
  O  O186  1  0.89356673  0.87196598  0.88072289  1
  O  O187  1  0.25861902  0.00734649  0.36990539  1
  O  O188  1  0.25730159  0.01005040  0.87094243  1
  O  O189  1  0.26020229  0.50146431  0.36553615  1
  O  O190  1  0.25092557  0.49239553  0.86498873  1
  O  O191  1  0.74872404  0.01342199  0.37126758  1
  O  O192  1  0.74521087  0.00481006  0.86589668  1
  O  O193  1  0.75460131  0.50613283  0.36954512  1
  O  O194  1  0.74844179  0.50767331  0.87107472  1
  O  O195  1  0.24508485  0.49151933  0.12831487  1
  O  O196  1  0.25216204  0.48732800  0.63093174  1
  O  O197  1  0.23952953  0.99690771  0.12555096  1
  O  O198  1  0.24366449  1.00646119  0.63529378  1
  O  O199  1  0.74114882  0.49978555  0.13410261  1
  O  O200  1  0.74310695  0.49581756  0.63374337  1
  O  O201  1  0.73512561  0.99795504  0.13358672  1
  O  O202  1  0.73626467  0.99109785  0.64082310  1
  O  O203  1  0.00907406  0.37535698  0.25900094  1
  O  O204  1  0.01093717  0.36639378  0.74448234  1
  O  O205  1  -0.00562050  0.86439655  0.24562236  1
  O  O206  1  0.00059502  0.86494476  0.75909690  1
  O  O207  1  0.50520154  0.36660021  0.24680077  1
  O  O208  1  0.49787451  0.37027121  0.76175848  1
  O  O209  1  0.50774907  0.87119251  0.24480574  1
  O  O210  1  0.49403680  0.86381029  0.76026739  1
  O  O211  1  0.48583131  0.13132811  0.25293136  1
  O  O212  1  0.50484788  0.13498641  0.74215935  1
  O  O213  1  0.50496619  0.63683618  0.24447959  1
  O  O214  1  0.49396774  0.62460149  0.74698525  1
  O  O215  1  0.99584611  0.12645652  0.23862886  1
  O  O216  1  0.99899774  0.14320261  0.74703887  1
  O  O217  1  0.99681734  0.63748897  0.23908363  1
  O  O218  1  1.00035186  0.63772382  0.74258153  1
  O  O219  1  0.37034536  0.25565859  0.00438044  1
  O  O220  1  0.37012655  0.25537455  0.50091882  1
  O  O221  1  0.37143243  0.76028699  0.00573144  1
  O  O222  1  0.37759671  0.76644813  0.49796529  1
  O  O223  1  0.86675995  0.26471319  0.01618817  1
  O  O224  1  0.86193558  0.25229501  0.49437074  1
  O  O225  1  0.86804550  0.75241507  0.01204064  1
  O  O226  1  0.87278201  0.76250896  0.50005929  1
  O  O227  1  0.13094189  0.24361758  0.49529243  1
  O  O228  1  0.12804207  0.24221107  0.99293897  1
  O  O229  1  0.13705625  0.74966241  0.50407383  1
  O  O230  1  0.13363126  0.75466929  0.98702427  1
  O  O231  1  0.63233101  0.24361125  0.49112539  1
  O  O232  1  0.62879073  0.24601447  0.99651450  1
  O  O233  1  0.61179198  0.73674195  0.49948954  1
  O  O234  1  0.62832085  0.74425652  0.99848129  1
  O  O235  1  0.48704856  0.25109836  0.12033272  1
  O  O236  1  0.50381260  0.24231648  0.63366459  1
  O  O237  1  0.48827391  0.75475138  0.12760397  1
  O  O238  1  0.50393195  0.73714734  0.63794001  1
  O  O239  1  0.99169455  0.24272355  0.12753989  1
  O  O240  1  1.00134215  0.25437290  0.63249535  1
  O  O241  1  0.99124008  0.74692183  0.12647686  1
  O  O242  1  0.99626372  0.74381166  0.63975816  1
  O  O243  1  0.00754773  0.25946623  0.37114735  1
  O  O244  1  0.01109025  0.24931037  0.86861856  1
  O  O245  1  -0.00160765  0.74612824  0.35796000  1
  O  O246  1  0.00726863  0.75294991  0.86975137  1
  O  O247  1  0.51522919  0.24325812  0.38018618  1
  O  O248  1  0.50734844  0.25651695  0.86851912  1
  O  O249  1  0.49830151  0.74472482  0.35761207  1
  O  O250  1  0.50717706  0.75669271  0.87450419  1
  O  O251  1  0.24491413  0.13065450  0.49320937  1
  O  O252  1  0.24201648  0.13197455  0.99018810  1
  O  O253  1  0.25483316  0.63752167  0.50296964  1
  O  O254  1  0.25577671  0.64151384  0.99998107  1
  O  O255  1  0.74488788  0.12971106  0.49232700  1
  O  O256  1  0.73992368  0.13433822  0.99397749  1
  O  O257  1  0.73800002  0.61865496  0.49289052  1
  O  O258  1  0.74153663  0.63165490  0.99644543  1
  O  O259  1  0.25777136  0.36978255  0.00154711  1
  O  O260  1  0.25604844  0.36937921  0.50735242  1
  O  O261  1  0.25657654  0.87100643  0.00528780  1
  O  O262  1  0.26681005  0.87634604  0.50387109  1
  O  O263  1  0.75614475  0.37188502  0.00889860  1
  O  O264  1  0.75343527  0.36766321  0.50667738  1
  O  O265  1  0.74885685  0.86794563  0.00859993  1
  O  O266  1  0.75327182  0.87710432  0.50853452  1
  O  O267  1  0.13277310  0.49077218  0.24435845  1
  O  O268  1  0.13758234  0.49204249  0.74905032  1
  O  O269  1  0.13121987  1.00154009  0.23991828  1
  O  O270  1  0.13263314  1.00297811  0.74029736  1
  O  O271  1  0.62946646  0.50264728  0.24397912  1
  O  O272  1  0.63418109  0.50208323  0.74219033  1
  O  O273  1  0.62362080  0.99673162  0.24510761  1
  O  O274  1  0.62469556  0.99933481  0.74239597  1
  O  O275  1  0.37152308  0.00761044  0.25473215  1
  O  O276  1  0.36935623  -0.00018325  0.76103737  1
  O  O277  1  0.36911354  0.48933902  0.25945131  1
  O  O278  1  0.36345552  0.49935778  0.75143891  1
  O  O279  1  0.86756176  0.00727890  0.25148954  1
  O  O280  1  0.86369870  -0.00037307  0.74440706  1
  O  O281  1  0.86557411  0.50295331  0.26055526  1
  O  O282  1  0.85877941  0.49573036  0.75435127  1
  O  O283  1  0.12078248  0.37308502  0.36740864  1
  O  O284  1  0.13147339  0.36389347  0.86243469  1
  O  O285  1  0.13261003  0.87048217  0.36864775  1
  O  O286  1  0.11046814  0.87105695  0.87223119  1
  O  O287  1  0.63132254  0.36032967  0.37900720  1
  O  O288  1  0.61596175  0.36409689  0.88425049  1
  O  O289  1  0.62939659  0.87341428  0.36208267  1
  O  O290  1  0.61913867  0.86168135  0.88427829  1
  O  O291  1  0.36662244  0.13421503  0.13359682  1
  O  O292  1  0.39019107  0.12634605  0.61995596  1
  O  O293  1  0.37505975  0.64275209  0.11752324  1
  O  O294  1  0.38809515  0.61269401  0.63765910  1
  O  O295  1  0.88094613  0.13487691  0.12908897  1
  O  O296  1  0.83124901  0.13515396  0.63751805  1
  O  O297  1  0.88015825  0.63444105  0.12935235  1
  O  O298  1  0.88686855  0.62771738  0.62301075  1
  O  O299  1  0.25664685  0.25567448  0.11586940  1
  O  O300  1  0.25201341  0.25986451  0.62191440  1
  O  O301  1  0.26038081  0.75986158  0.12059198  1
  O  O302  1  0.25192690  0.75403254  0.65756078  1
  O  O303  1  0.75498170  0.25761567  0.12339290  1
  O  O304  1  0.73158070  0.26500039  0.61274374  1
  O  O305  1  0.75539776  0.75525948  0.12417019  1
  O  O306  1  0.74854662  0.75033245  0.63526106  1
  O  O307  1  0.24509186  0.24563275  0.37987136  1
  O  O308  1  0.24527025  0.24356091  0.87759377  1
  O  O309  1  0.24207642  0.73577250  0.32840118  1
  O  O310  1  0.23413498  0.75710551  0.87661592  1
  O  O311  1  0.74303176  0.24173045  0.38086507  1
  O  O312  1  0.74468344  0.24329530  0.87911845  1
  O  O313  1  0.74430093  0.73733324  0.36621415  1
  O  O314  1  0.74303229  0.74420085  0.88027092  1
  O  O315  1  0.00796491  0.12479366  0.01119611  1
  O  O316  1  0.01064181  0.12573524  0.49776725  1
  O  O317  1  -0.00281279  0.62450964  0.01669383  1
  O  O318  1  0.00092511  0.62747643  0.51407053  1
  O  O319  1  0.51182252  0.12225183  -0.00527429  1
  O  O320  1  0.50649913  0.11513300  0.50975442  1
  O  O321  1  0.50681732  0.61469669  -0.00409627  1
  O  O322  1  0.50248728  0.61578420  0.50970914  1
  O  O323  1  0.49312858  0.38286888  0.50701376  1
  O  O324  1  0.49406226  0.38496197  0.99214196  1
  O  O325  1  0.49048835  0.88741605  0.50124154  1
  O  O326  1  0.49312866  0.88480498  0.99440787  1
  O  O327  1  1.00018924  0.37832758  0.48653913  1
  O  O328  1  0.98492470  0.37682419  1.00856414  1
  O  O329  1  0.99703471  0.88100381  0.50066339  1
  O  O330  1  1.00038103  0.87654187  0.98554263  1
  O  O331  1  0.49597508  0.50128876  0.38728728  1
  O  O332  1  0.51056128  0.49153195  0.88465272  1
  O  O333  1  0.49060751  1.00866135  0.38629015  1
  O  O334  1  0.49409411  0.99902115  0.87820436  1
  O  O335  1  0.99167144  0.49636069  0.37174487  1
  O  O336  1  0.99897006  0.50197825  0.87839768  1
  O  O337  1  0.99856792  1.00612683  0.39409771  1
  O  O338  1  1.00311381  0.99453861  0.86977198  1
  O  O339  1  0.01282135  0.00732034  0.12783534  1
  O  O340  1  0.00593654  0.00056213  0.60990737  1
  O  O341  1  0.00902843  0.50970249  0.12780201  1
  O  O342  1  -0.00216608  0.51192594  0.62665423  1
  O  O343  1  0.50981978  -0.00020103  0.11936936  1
  O  O344  1  0.50753744  0.00679312  0.62327720  1
  O  O345  1  0.51142408  0.49648129  0.11591313  1
  O  O346  1  0.50674966  0.50273488  0.61970317  1
  O  O347  1  0.24407883  0.38072641  0.24396531  1
  O  O348  1  0.24683420  0.38165300  0.74399126  1
  O  O349  1  0.25562240  0.88631562  0.23150098  1
  O  O350  1  0.24441616  0.89438122  0.76339073  1
  O  O351  1  0.74394208  0.38831233  0.24745134  1
  O  O352  1  0.74762874  0.38036244  0.74367517  1
  O  O353  1  0.74122511  0.88233021  0.24422057  1
  O  O354  1  0.74817967  0.88696692  0.75681652  1
  O  O355  1  0.25757410  0.12077845  0.25571026  1
  O  O356  1  0.24546086  0.11996511  0.76109731  1
  O  O357  1  0.25454332  0.60523285  0.23803927  1
  O  O358  1  0.25920278  0.60617260  0.75082596  1
  O  O359  1  0.75404151  0.12049344  0.25756167  1
  O  O360  1  0.74010258  0.10646763  0.76544499  1
  O  O361  1  0.74892713  0.61558165  0.25829945  1
  O  O362  1  0.74224287  0.61411423  0.76591601  1
  O  O363  1  0.36830950  0.11888438  0.36800677  1
  O  O364  1  0.36546527  0.11739218  0.88120931  1
  O  O365  1  0.37510168  0.60936736  0.37853503  1
  O  O366  1  0.38185522  0.61701264  0.86872268  1
  O  O367  1  0.86715123  0.12453292  0.36812091  1
  O  O368  1  0.86255183  0.12619703  0.86879873  1
  O  O369  1  0.86652829  0.61967503  0.37496958  1
  O  O370  1  0.86131521  0.62405642  0.88681678  1
  O  O371  1  0.12931775  0.37768882  0.13385666  1
  O  O372  1  0.13470070  0.37700694  0.63507608  1
  O  O373  1  0.13214638  0.88502278  0.12180830  1
  O  O374  1  0.12073364  0.89060632  0.62863042  1
  O  O375  1  0.63301682  0.38680368  0.12439622  1
  O  O376  1  0.63372134  0.39012007  0.61809176  1
  O  O377  1  0.62875238  0.88546637  0.13192869  1
  O  O378  1  0.61708640  0.89049591  0.62241594  1
  O  O379  1  0.12708922  0.26160008  0.25415325  1
  O  O380  1  0.11733463  0.25657797  0.75399464  1
  O  O381  1  0.10419428  0.76010109  0.23541089  1
  O  O382  1  0.11366964  0.75196662  0.76324876  1
  O  O383  1  0.62480698  0.24891655  0.26700896  1
  O  O384  1  0.61732763  0.24653919  0.76160784  1
  O  O385  1  0.60958259  0.75862906  0.24593154  1
  O  O386  1  0.60978980  0.73942835  0.76482623  1
  O  O387  1  0.37258612  0.24334013  0.24036934  1
  O  O388  1  0.38979452  0.25376264  0.74944697  1
  O  O389  1  0.38950921  0.75785467  0.23385306  1
  O  O390  1  0.38995178  0.73369170  0.76236776  1
  O  O391  1  0.87381060  0.24646202  0.24047803  1
  O  O392  1  0.89161430  0.25532685  0.75176859  1
  O  O393  1  0.88211967  0.75219127  0.23971087  1
  O  O394  1  0.88712517  0.75135612  0.75454118  1
  O  O395  1  0.38362933  0.49173349  0.49488537  1
  O  O396  1  0.38476008  0.49203690  1.00646152  1
  O  O397  1  0.38167952  0.99424621  0.49305516  1
  O  O398  1  0.37920752  0.99757999  0.99359428  1
  O  O399  1  0.87606406  0.49815437  0.48724160  1
  O  O400  1  0.87379393  0.48637043  1.00474756  1
  O  O401  1  0.88437058  0.98851378  0.50098245  1
  O  O402  1  0.87125106  1.00496164  1.00554194  1
  O  O403  1  0.13268139  0.01322049  0.00472355  1
  O  O404  1  0.11660799  0.00496555  0.50439218  1
  O  O405  1  0.12504548  0.49207061  0.01654375  1
  O  O406  1  0.12318107  0.50480220  0.50518717  1
  O  O407  1  0.62068697  0.00985747  0.00777455  1
  O  O408  1  0.61751811  0.00362979  0.50634071  1
  O  O409  1  0.61919198  0.50880810  0.00766331  1
  O  O410  1  0.61704899  0.50808736  0.50614337  1
  O  O411  1  0.36963760  0.36690974  0.11260205  1
  O  O412  1  0.36922025  0.37123236  0.61413865  1
  O  O413  1  0.36871737  0.87444161  0.11136549  1
  O  O414  1  0.37934458  0.87899332  0.61426135  1
  O  O415  1  0.86865569  0.37173460  0.12594660  1
  O  O416  1  0.86026247  0.38041419  0.62238130  1
  O  O417  1  0.86518896  0.86944978  0.12154806  1
  O  O418  1  0.87179962  0.87069524  0.61091680  1
  O  O419  1  0.13180065  0.13108138  0.38073593  1
  O  O420  1  0.13116395  0.13154282  0.88099937  1
  O  O421  1  0.13101614  0.63363860  0.37926701  1
  O  O422  1  0.12407721  0.63836510  0.87371590  1
  O  O423  1  0.63277141  0.13258267  0.38148222  1
  O  O424  1  0.63225174  0.13466776  0.88573481  1
  O  O425  1  0.63122183  0.62686045  0.38640202  1
  O  O426  1  0.63131134  0.63484272  0.88916019  1
