# generated using pymatgen
data_V85Zn86O256
_symmetry_space_group_name_H-M   'P 1'
_cell_length_a   16.91086836
_cell_length_b   16.91078073
_cell_length_c   16.91297154
_cell_angle_alpha   90.00093440
_cell_angle_beta   89.96324922
_cell_angle_gamma   90.01408368
_symmetry_Int_Tables_number   1
_chemical_formula_structural   V85Zn86O256
_chemical_formula_sum   'V85 Zn86 O256'
_cell_volume   4836.70258268
_cell_formula_units_Z   1
loop_
 _symmetry_equiv_pos_site_id
 _symmetry_equiv_pos_as_xyz
  1  'x, y, z'
loop_
 _atom_site_type_symbol
 _atom_site_label
 _atom_site_symmetry_multiplicity
 _atom_site_fract_x
 _atom_site_fract_y
 _atom_site_fract_z
 _atom_site_occupancy
  V  V0  1  0.12285693  0.49632039  0.62969157  1
  V  V1  1  0.50508441  0.87344676  0.36732852  1
  V  V2  1  0.85637337  0.50512794  0.37305678  1
  V  V3  1  0.37166953  0.76105849  0.12589049  1
  V  V4  1  0.12343062  0.12716541  0.00185249  1
  V  V5  1  0.38346401  0.49582122  0.87509234  1
  V  V6  1  0.63142245  0.74711030  0.36893911  1
  V  V7  1  0.12310789  0.62728024  0.50257171  1
  V  V8  1  0.63197858  0.38280114  0.24894262  1
  V  V9  1  -0.00184843  0.50476236  0.49069573  1
  V  V10  1  0.75462993  0.86868127  0.12733133  1
  V  V11  1  0.00090641  0.76625481  0.75487216  1
  V  V12  1  0.37399940  0.25841837  0.12351552  1
  V  V13  1  0.75097695  0.12813130  0.87882545  1
  V  V14  1  -0.00291793  0.75309054  0.24682366  1
  V  V15  1  0.13565754  0.37384404  0.24588382  1
  V  V16  1  0.24177281  0.87514357  0.62860693  1
  V  V17  1  0.25564262  0.76145379  -0.00003507  1
  V  V18  1  0.24874678  0.26160756  0.00183889  1
  V  V19  1  0.75256482  0.36889960  0.12481270  1
  V  V20  1  0.63583812  0.51076411  0.12125358  1
  V  V21  1  0.50554805  0.26075692  0.75357416  1
  V  V22  1  0.87511144  -0.00332221  0.37507421  1
  V  V23  1  0.75005874  0.24970673  0.50203905  1
  V  V24  1  0.49761182  0.37521256  0.37307150  1
  V  V25  1  0.37326068  0.75061959  0.62725137  1
  V  V26  1  0.50114652  0.12491845  0.12556774  1
  V  V27  1  0.49479557  0.49835795  0.49953179  1
  V  V28  1  0.37580473  0.87638416  0.50128482  1
  V  V29  1  0.37787466  0.12549870  0.75198552  1
  V  V30  1  0.87691341  -0.00551980  0.87711459  1
  V  V31  1  0.62310372  0.49471559  0.63423429  1
  V  V32  1  0.87442593  0.37649253  0.49841965  1
  V  V33  1  0.62613861  0.73807433  0.87932672  1
  V  V34  1  0.63226810  0.62331715  0.49693425  1
  V  V35  1  0.87571425  0.12554449  0.24744806  1
  V  V36  1  0.11668246  0.00375025  0.63023884  1
  V  V37  1  0.50324186  0.12153761  0.62808730  1
  V  V38  1  0.24712643  0.49644348  0.75106355  1
  V  V39  1  0.88311651  0.24618810  0.62386437  1
  V  V40  1  0.12975164  0.49341725  0.11994459  1
  V  V41  1  0.49018274  0.61906592  0.11644903  1
  V  V42  1  -0.00652867  0.62546854  0.63697997  1
  V  V43  1  0.00154290  0.38359941  0.86870531  1
  V  V44  1  0.76320629  0.50339744  0.75124268  1
  V  V45  1  0.12237719  0.25331180  0.86783217  1
  V  V46  1  0.36541728  0.12156719  0.24639073  1
  V  V47  1  0.36671512  -0.00220578  0.36905722  1
  V  V48  1  0.76752694  0.61972229  0.87434307  1
  V  V49  1  0.49972584  0.62478425  0.62503684  1
  V  V50  1  0.88208429  0.12451773  0.74804062  1
  V  V51  1  0.00114962  -0.00270818  0.00096509  1
  V  V52  1  0.75163202  -0.00495175  0.74549195  1
  V  V53  1  -0.00126575  0.00535478  0.50288641  1
  V  V54  1  0.87876277  0.86928008  0.00156166  1
  V  V55  1  0.75012312  0.74286148  0.00312792  1
  V  V56  1  0.24592740  -0.00398613  0.75200850  1
  V  V57  1  0.49925904  0.74971127  0.75262945  1
  V  V58  1  0.14260655  0.87883601  0.24761948  1
  V  V59  1  0.74806436  0.12468769  0.37453586  1
  V  V60  1  0.62471568  0.12313882  0.50092787  1
  V  V61  1  0.13906075  -0.00253378  0.12797658  1
  V  V62  1  0.74451764  -0.00627702  0.25053443  1
  V  V63  1  0.74598569  0.37244975  0.63339747  1
  V  V64  1  0.00000642  0.25378903  0.25008605  1
  V  V65  1  0.24657123  0.36792310  0.61862380  1
  V  V66  1  0.12345971  0.75491179  0.37662983  1
  V  V67  1  0.87078383  0.37504750  -0.00882652  1
  V  V68  1  0.37803311  -0.00792749  0.88100961  1
  V  V69  1  0.50019198  -0.00186909  0.49973059  1
  V  V70  1  0.86364491  0.62480647  0.25172652  1
  V  V71  1  0.62507102  0.25059891  0.37302253  1
  V  V72  1  0.25008080  0.12834879  0.87503629  1
  V  V73  1  0.24881469  0.74977462  0.50212531  1
  V  V74  1  0.62566605  0.26102037  0.87630013  1
  V  V75  1  0.86917894  0.75256816  0.63166600  1
  V  V76  1  0.12607810  0.62752620  -0.00203847  1
  V  V77  1  0.63036903  0.87124891  0.74871601  1
  V  V78  1  0.62537284  -0.00873731  0.12408395  1
  V  V79  1  -0.00349510  0.62942281  0.12467765  1
  V  V80  1  0.12284419  0.76530107  0.87355395  1
  V  V81  1  0.62904774  0.12799334  0.00068362  1
  V  V82  1  0.49836647  0.74074435  0.24995914  1
  V  V83  1  0.74921843  0.75752184  0.50397482  1
  V  V84  1  0.13083772  0.13152413  0.50139367  1
  Zn  Zn85  1  0.87333313  0.24940306  0.12036941  1
  Zn  Zn86  1  0.51162140  0.49313334  -0.00796300  1
  Zn  Zn87  1  0.00135159  0.12414197  0.12651097  1
  Zn  Zn88  1  0.37155918  0.24864250  0.62118064  1
  Zn  Zn89  1  0.36287125  0.36599826  0.48937984  1
  Zn  Zn90  1  0.00037928  0.37947366  0.36987997  1
  Zn  Zn91  1  0.25819763  0.62507571  0.36713115  1
  Zn  Zn92  1  0.00002668  0.87745846  0.37506731  1
  Zn  Zn93  1  0.63054291  -0.00795097  0.62407662  1
  Zn  Zn94  1  0.37069983  0.62512599  0.75081362  1
  Zn  Zn95  1  0.37906519  0.51388519  0.35930168  1
  Zn  Zn96  1  0.49632261  -0.00778863  0.00465933  1
  Zn  Zn97  1  0.49918181  0.86672763  0.88449140  1
  Zn  Zn98  1  -0.00526901  0.50399269  -0.00395582  1
  Zn  Zn99  1  0.87262028  0.87647853  0.50492402  1
  Zn  Zn100  1  0.24915361  0.62481849  0.87451961  1
  Zn  Zn101  1  0.25916213  0.50594544  0.24472330  1
  Zn  Zn102  1  0.25258660  0.13116441  0.37780170  1
  Zn  Zn103  1  0.38337636  0.37389429  -0.00584335  1
  Zn  Zn104  1  0.00347974  0.25034096  0.74702571  1
  Zn  Zn105  1  0.50143616  0.25028888  0.24766065  1
  Zn  Zn106  1  0.13337063  0.25674530  0.37875029  1
  Zn  Zn107  1  0.18789715  0.18926585  0.18600969  1
  Zn  Zn108  1  0.18549129  0.18290205  0.68649867  1
  Zn  Zn109  1  0.18744553  0.68998868  0.18292483  1
  Zn  Zn110  1  0.18232929  0.68561117  0.69110359  1
  Zn  Zn111  1  0.68735745  0.18797061  0.18781615  1
  Zn  Zn112  1  0.68904039  0.18472469  0.69184244  1
  Zn  Zn113  1  0.68524538  0.68901354  0.18716217  1
  Zn  Zn114  1  0.68835611  0.68291967  0.68936387  1
  Zn  Zn115  1  0.31219186  0.30965985  0.31092575  1
  Zn  Zn116  1  0.31087016  0.31556227  0.80657916  1
  Zn  Zn117  1  0.31669107  0.80481379  0.31336290  1
  Zn  Zn118  1  0.30899814  0.81254361  0.81334137  1
  Zn  Zn119  1  0.81343129  0.31543258  0.31206004  1
  Zn  Zn120  1  0.81206500  0.31129307  0.81242208  1
  Zn  Zn121  1  0.81239029  0.80955343  0.31285783  1
  Zn  Zn122  1  0.81410202  0.81001768  0.81451300  1
  Zn  Zn123  1  0.18767298  0.44165827  0.43133602  1
  Zn  Zn124  1  0.18529736  0.43883652  0.93477407  1
  Zn  Zn125  1  0.18557586  0.93934141  0.44037965  1
  Zn  Zn126  1  0.18938229  0.93944926  0.94028573  1
  Zn  Zn127  1  0.68308980  0.43573815  0.44395344  1
  Zn  Zn128  1  0.69287961  0.44088465  0.94067681  1
  Zn  Zn129  1  0.68534928  0.93400257  0.43690361  1
  Zn  Zn130  1  0.68589438  0.93339518  0.93667258  1
  Zn  Zn131  1  0.31112169  0.06911222  0.06008010  1
  Zn  Zn132  1  0.31257095  0.06179557  0.56471939  1
  Zn  Zn133  1  0.31136153  0.56392322  0.05841388  1
  Zn  Zn134  1  0.31144390  0.56097298  0.56004335  1
  Zn  Zn135  1  0.81118926  0.06113672  0.06266468  1
  Zn  Zn136  1  0.81266696  0.06313245  0.56449807  1
  Zn  Zn137  1  0.81560450  0.55953858  0.06326061  1
  Zn  Zn138  1  0.81210541  0.56553427  0.56486305  1
  Zn  Zn139  1  0.44128029  0.43841621  0.18759471  1
  Zn  Zn140  1  0.43041838  0.43681519  0.68673903  1
  Zn  Zn141  1  0.43965213  0.93478790  0.18963807  1
  Zn  Zn142  1  0.43721493  0.93542864  0.69272227  1
  Zn  Zn143  1  0.93917740  0.44304698  0.18541150  1
  Zn  Zn144  1  0.93817817  0.43450059  0.68488978  1
  Zn  Zn145  1  0.93944253  0.93697363  0.18516303  1
  Zn  Zn146  1  0.93477949  0.93533048  0.68625192  1
  Zn  Zn147  1  0.06434222  0.06291136  0.31371105  1
  Zn  Zn148  1  0.06112270  0.06048897  0.81746645  1
  Zn  Zn149  1  0.09227518  0.57842464  0.29635335  1
  Zn  Zn150  1  0.06331810  0.56676449  0.81302911  1
  Zn  Zn151  1  0.55971408  0.06108307  0.30985996  1
  Zn  Zn152  1  0.56479206  0.06170051  0.81477112  1
  Zn  Zn153  1  0.56364649  0.56300900  0.30942282  1
  Zn  Zn154  1  0.56616539  0.56398274  0.81057473  1
  Zn  Zn155  1  0.43420071  0.18835739  0.43669371  1
  Zn  Zn156  1  0.44112470  0.18716098  0.93881180  1
  Zn  Zn157  1  0.44031140  0.68733959  0.44049023  1
  Zn  Zn158  1  0.43410382  0.68073632  0.93840628  1
  Zn  Zn159  1  0.94226648  0.18594509  0.43473438  1
  Zn  Zn160  1  0.93745118  0.19013898  0.93833075  1
  Zn  Zn161  1  0.93561912  0.68705910  0.43678794  1
  Zn  Zn162  1  0.93877757  0.69099053  0.93641683  1
  Zn  Zn163  1  0.05551287  0.31297372  0.06024580  1
  Zn  Zn164  1  0.06165983  0.31716986  0.56127648  1
  Zn  Zn165  1  0.06497695  0.81386982  0.06492099  1
  Zn  Zn166  1  0.05677631  0.81727401  0.56523009  1
  Zn  Zn167  1  0.56218230  0.31564495  0.05962267  1
  Zn  Zn168  1  0.55779849  0.31025166  0.56283619  1
  Zn  Zn169  1  0.56293794  0.81011238  0.06158811  1
  Zn  Zn170  1  0.56396169  0.81202373  0.56317291  1
  O  O171  1  0.12390140  0.11711213  0.11884079  1
  O  O172  1  0.12539240  0.11583718  0.61476038  1
  O  O173  1  0.11639468  0.62333766  0.11143266  1
  O  O174  1  0.11493046  0.62118494  0.61736315  1
  O  O175  1  0.62167554  0.11732691  0.11992538  1
  O  O176  1  0.61916140  0.11964745  0.62125327  1
  O  O177  1  0.61990164  0.61406211  0.12780091  1
  O  O178  1  0.61866671  0.61701694  0.61905986  1
  O  O179  1  0.38992333  0.37581498  0.37146907  1
  O  O180  1  0.37048743  0.39137711  0.87058652  1
  O  O181  1  0.38403715  0.87882708  0.37904886  1
  O  O182  1  0.37495883  0.88937746  0.87080557  1
  O  O183  1  0.87695716  0.38638179  0.38030311  1
  O  O184  1  0.88294047  0.37122458  0.88293946  1
  O  O185  1  0.87304406  0.88775837  0.37748999  1
  O  O186  1  0.86863482  0.88756347  0.88472892  1
  O  O187  1  0.26454848  0.00159837  0.38068639  1
  O  O188  1  0.25748823  0.00535712  0.86951873  1
  O  O189  1  0.25718462  0.50488004  0.37084997  1
  O  O190  1  0.25320054  0.50157593  0.86548661  1
  O  O191  1  0.75336627  0.00245301  0.36846392  1
  O  O192  1  0.75691371  0.00756358  0.86883959  1
  O  O193  1  0.75714233  0.49938225  0.38198725  1
  O  O194  1  0.74733934  0.51218125  0.86771744  1
  O  O195  1  0.23350577  0.50798025  0.12271455  1
  O  O196  1  0.24054893  0.49450288  0.62883498  1
  O  O197  1  0.23848175  1.00122037  0.11708788  1
  O  O198  1  0.24243482  0.99439744  0.63355224  1
  O  O199  1  0.74017269  0.49319772  0.12524893  1
  O  O200  1  0.74317530  0.49371847  0.62970736  1
  O  O201  1  0.74481318  0.99309639  0.13259331  1
  O  O202  1  0.75080533  1.00146583  0.64041089  1
  O  O203  1  0.00235519  0.36701331  0.24933121  1
  O  O204  1  -0.00807628  0.37073665  0.76438822  1
  O  O205  1  -0.00087409  0.86289981  0.25105326  1
  O  O206  1  0.00262236  0.86502470  0.74874888  1
  O  O207  1  0.51397951  0.37296450  0.25622356  1
  O  O208  1  0.49811761  0.35886803  0.74198401  1
  O  O209  1  0.49774618  0.86019449  0.25816888  1
  O  O210  1  0.50540873  0.86252038  0.75694291  1
  O  O211  1  0.49607627  0.12591585  0.23724659  1
  O  O212  1  0.49479795  0.12618334  0.74439190  1
  O  O213  1  0.50513693  0.63505080  0.23716391  1
  O  O214  1  0.50039442  0.63625977  0.74324985  1
  O  O215  1  0.99092912  0.12986819  0.25038299  1
  O  O216  1  0.98549313  0.12570470  0.75677151  1
  O  O217  1  1.00249295  0.63725184  0.24304635  1
  O  O218  1  1.00200543  0.63164935  0.73957624  1
  O  O219  1  0.36688303  0.24785066  0.00453860  1
  O  O220  1  0.38699459  0.25607491  0.50943730  1
  O  O221  1  0.36390942  0.74539821  0.00809083  1
  O  O222  1  0.37014574  0.75837399  0.50871552  1
  O  O223  1  0.88094545  0.26693986  0.00391667  1
  O  O224  1  0.87059757  0.25175167  0.50505304  1
  O  O225  1  0.86467640  0.75950444  -0.00586100  1
  O  O226  1  0.86504536  0.75084055  0.50539478  1
  O  O227  1  0.11461746  0.23426284  0.50072678  1
  O  O228  1  0.13017066  0.24676649  0.99282192  1
  O  O229  1  0.12606366  0.74863851  0.49651201  1
  O  O230  1  0.13299532  0.74728789  0.99554496  1
  O  O231  1  0.62998038  0.24315369  0.49414309  1
  O  O232  1  0.61997149  0.23504334  0.99295894  1
  O  O233  1  0.62964614  0.74264717  0.49515098  1
  O  O234  1  0.64055800  0.75194878  0.99274031  1
  O  O235  1  0.49468982  0.23996057  0.12443044  1
  O  O236  1  0.50453518  0.23638025  0.63750028  1
  O  O237  1  0.49434446  0.73990824  0.12870981  1
  O  O238  1  0.49438711  0.74665667  0.63278407  1
  O  O239  1  0.99595698  0.24504547  0.13645845  1
  O  O240  1  0.98713565  0.25649019  0.62720363  1
  O  O241  1  1.00341315  0.74006311  0.13236942  1
  O  O242  1  0.99588396  0.74548221  0.63644602  1
  O  O243  1  0.00400384  0.25126207  0.36193784  1
  O  O244  1  0.00738407  0.25855649  0.87343396  1
  O  O245  1  0.00981978  0.75359098  0.37089583  1
  O  O246  1  0.00554017  0.75006045  0.86250884  1
  O  O247  1  0.50920634  0.25753644  0.37277831  1
  O  O248  1  0.50842807  0.24301838  0.86153044  1
  O  O249  1  0.50588983  0.75472730  0.36758927  1
  O  O250  1  0.50670713  0.74454003  0.86980746  1
  O  O251  1  0.23509088  0.11961274  0.50244544  1
  O  O252  1  0.24271949  0.13450620  0.99095064  1
  O  O253  1  0.23813061  0.63429787  0.50574605  1
  O  O254  1  0.24038484  0.63602709  0.99784307  1
  O  O255  1  0.74425544  0.12861392  0.49426299  1
  O  O256  1  0.74373996  0.12148350  0.99133121  1
  O  O257  1  0.73698891  0.63293277  0.50470859  1
  O  O258  1  0.75825349  0.63028223  0.98920692  1
  O  O259  1  0.25324942  0.36401162  -0.00495400  1
  O  O260  1  0.24650514  0.38143886  0.51396066  1
  O  O261  1  0.24904694  0.86099952  -0.00008141  1
  O  O262  1  0.25500812  0.87074773  0.50854153  1
  O  O263  1  0.76284806  0.37613355  0.00675154  1
  O  O264  1  0.75491448  0.36895708  0.50999935  1
  O  O265  1  0.75824159  0.86838078  0.00668756  1
  O  O266  1  0.74794117  0.86215365  0.50237790  1
  O  O267  1  0.11737584  0.48445287  0.23606273  1
  O  O268  1  0.12858250  0.50607696  0.73675288  1
  O  O269  1  0.11891703  0.99004479  0.24135822  1
  O  O270  1  0.13333953  1.00850554  0.74342017  1
  O  O271  1  0.62274708  0.49332244  0.23698819  1
  O  O272  1  0.63316100  0.50300610  0.73775313  1
  O  O273  1  0.63738019  1.00373762  0.24257653  1
  O  O274  1  0.63433029  0.99016394  0.75341439  1
  O  O275  1  0.38164747  0.00695851  0.25779796  1
  O  O276  1  0.36764760  0.00632997  0.75833563  1
  O  O277  1  0.37324556  0.50320905  0.24446102  1
  O  O278  1  0.36694108  0.50261016  0.75752349  1
  O  O279  1  0.86750839  0.00553703  0.25588094  1
  O  O280  1  0.87132545  0.00298459  0.75789283  1
  O  O281  1  0.88088371  0.51426706  0.26067456  1
  O  O282  1  0.86239865  0.50074683  0.74009104  1
  O  O283  1  0.11981182  0.37576258  0.36279128  1
  O  O284  1  0.11070283  0.36802734  0.87845790  1
  O  O285  1  0.12305593  0.87157350  0.36840724  1
  O  O286  1  0.12657923  0.86508279  0.87856959  1
  O  O287  1  0.61968588  0.37208583  0.36878007  1
  O  O288  1  0.63684234  0.36001501  0.88049960  1
  O  O289  1  0.61211115  0.86452449  0.38012739  1
  O  O290  1  0.62675655  0.86019373  0.86542319  1
  O  O291  1  0.38388004  0.12810555  0.12901331  1
  O  O292  1  0.38183885  0.12345845  0.63710159  1
  O  O293  1  0.38725957  0.63113359  0.11986601  1
  O  O294  1  0.38152029  0.63198658  0.62505262  1
  O  O295  1  0.87286772  0.12485616  0.13764133  1
  O  O296  1  0.86989022  0.13415393  0.63467268  1
  O  O297  1  0.88392409  0.61857364  0.13954531  1
  O  O298  1  0.88333723  0.63795781  0.62089429  1
  O  O299  1  0.26076722  0.24270395  0.11318095  1
  O  O300  1  0.24654517  0.26487611  0.63233686  1
  O  O301  1  0.26347822  0.74660995  0.11716513  1
  O  O302  1  0.25071008  0.75829293  0.62448359  1
  O  O303  1  0.75089970  0.26379434  0.12841547  1
  O  O304  1  0.75510638  0.25553441  0.62236255  1
  O  O305  1  0.74619913  0.75737609  0.11723611  1
  O  O306  1  0.75782808  0.74342116  0.61946642  1
  O  O307  1  0.24694357  0.24511710  0.37392879  1
  O  O308  1  0.24344754  0.24791551  0.87797454  1
  O  O309  1  0.23725019  0.74995637  0.38241222  1
  O  O310  1  0.24374779  0.74869960  0.88345407  1
  O  O311  1  0.74520034  0.24539979  0.38138067  1
  O  O312  1  0.74215322  0.23543674  0.86657518  1
  O  O313  1  0.73822600  0.75410017  0.38388538  1
  O  O314  1  0.74713477  0.73739814  0.88006495  1
  O  O315  1  0.00586524  0.11761702  0.00168057  1
  O  O316  1  0.00787490  0.11240164  0.49752953  1
  O  O317  1  0.00347311  0.62685625  0.00676700  1
  O  O318  1  0.00332402  0.62202980  0.51148058  1
  O  O319  1  0.50702445  0.11749836  0.01097567  1
  O  O320  1  0.50522326  0.11760416  0.50831342  1
  O  O321  1  0.50193686  0.62067691  0.01326149  1
  O  O322  1  0.51022943  0.61842785  0.50739177  1
  O  O323  1  0.50594730  0.38417601  0.48965952  1
  O  O324  1  0.49727917  0.38007562  0.99790723  1
  O  O325  1  0.49482193  0.87895596  0.49417045  1
  O  O326  1  0.50741154  0.88018803  0.99601112  1
  O  O327  1  0.99210833  0.38717837  0.49855598  1
  O  O328  1  0.99096912  0.37825759  0.98731241  1
  O  O329  1  0.99694617  0.88942947  0.49709192  1
  O  O330  1  0.98744731  0.88003383  1.00663160  1
  O  O331  1  0.50237737  0.49336895  0.38264888  1
  O  O332  1  0.48791617  0.50614121  0.87181487  1
  O  O333  1  0.49567559  0.99011284  0.37815607  1
  O  O334  1  0.48515508  1.00011515  0.87285255  1
  O  O335  1  0.99771998  0.50618585  0.38773525  1
  O  O336  1  1.00397988  0.48741587  0.87325835  1
  O  O337  1  0.98997170  0.99989446  0.38141958  1
  O  O338  1  0.99132669  1.00173291  0.88919714  1
  O  O339  1  0.00460613  0.00227643  0.11353918  1
  O  O340  1  0.00885240  -0.00351337  0.62088538  1
  O  O341  1  0.00956052  0.51369429  0.12178106  1
  O  O342  1  0.00402992  0.50694212  0.61932490  1
  O  O343  1  0.51050447  0.00439796  0.12751446  1
  O  O344  1  0.50080230  0.00838374  0.62346309  1
  O  O345  1  0.51004125  0.51108170  0.12308012  1
  O  O346  1  0.50548950  0.50173142  0.62096621  1
  O  O347  1  0.23782625  0.37544115  0.24614307  1
  O  O348  1  0.24881283  0.38816831  0.73786758  1
  O  O349  1  0.24150000  0.87169535  0.25418170  1
  O  O350  1  0.25221982  0.88732150  0.74380893  1
  O  O351  1  0.74002047  0.37433536  0.24417312  1
  O  O352  1  0.75336586  0.38138893  0.73917697  1
  O  O353  1  0.75573962  0.88235506  0.24177989  1
  O  O354  1  0.74376737  0.88202795  0.75670892  1
  O  O355  1  0.26270227  0.12329854  0.24846167  1
  O  O356  1  0.25852106  0.11710859  0.75390925  1
  O  O357  1  0.20627452  0.61452096  0.26222700  1
  O  O358  1  0.24904576  0.61259665  0.74918585  1
  O  O359  1  0.75603567  0.11754345  0.25567256  1
  O  O360  1  0.75948538  0.11563127  0.75814109  1
  O  O361  1  0.76499244  0.63034817  0.24736904  1
  O  O362  1  0.74923970  0.61831607  0.76381008  1
  O  O363  1  0.37914301  0.11484523  0.36438109  1
  O  O364  1  0.37196029  0.11908965  0.86548456  1
  O  O365  1  0.37103771  0.62816204  0.37999327  1
  O  O366  1  0.36941946  0.61283190  0.87111495  1
  O  O367  1  0.86903166  0.11512924  0.36702034  1
  O  O368  1  0.86862643  0.11656043  0.87225121  1
  O  O369  1  0.87762771  0.61817062  0.36337639  1
  O  O370  1  0.86638867  0.62473348  0.87353941  1
  O  O371  1  0.11838905  0.38317970  0.12817476  1
  O  O372  1  0.13208512  0.38462463  0.62258777  1
  O  O373  1  0.12297754  0.88313864  0.13646886  1
  O  O374  1  0.13563893  0.88478065  0.62123072  1
  O  O375  1  0.63264851  0.38239667  0.13148981  1
  O  O376  1  0.63387039  0.38255757  0.61798769  1
  O  O377  1  0.63695178  0.88526171  0.12150863  1
  O  O378  1  0.61956534  0.87412928  0.64245407  1
  O  O379  1  0.11731958  0.25779267  0.24713214  1
  O  O380  1  0.12320758  0.24207854  0.76358728  1
  O  O381  1  0.11858011  0.76114654  0.25787909  1
  O  O382  1  0.11221872  0.74811441  0.75879374  1
  O  O383  1  0.62515844  0.25703563  0.25799954  1
  O  O384  1  0.61351333  0.24386055  0.75880594  1
  O  O385  1  0.61738011  0.74670627  0.26057210  1
  O  O386  1  0.61912809  0.75241020  0.75617859  1
  O  O387  1  0.37907392  0.24058177  0.23993437  1
  O  O388  1  0.38575283  0.24188396  0.74810623  1
  O  O389  1  0.38078249  0.74819794  0.23523342  1
  O  O390  1  0.38182614  0.74934084  0.74637773  1
  O  O391  1  0.88025787  0.24105200  0.25095282  1
  O  O392  1  0.87379192  0.24072467  0.74153908  1
  O  O393  1  0.88450369  0.73689678  0.25866581  1
  O  O394  1  0.88810968  0.75322968  0.74594005  1
  O  O395  1  0.38910291  0.49501459  0.50194798  1
  O  O396  1  0.37254523  0.49877421  0.98424371  1
  O  O397  1  0.38162905  0.99557753  0.49393314  1
  O  O398  1  0.37369254  1.00771192  0.98357271  1
  O  O399  1  0.87939921  0.49930941  0.49384112  1
  O  O400  1  0.87856303  0.48236215  1.00398260  1
  O  O401  1  0.87953297  1.00106449  0.49367727  1
  O  O402  1  0.88080711  0.99420175  0.99523464  1
  O  O403  1  0.11797416  0.00416447  0.00493964  1
  O  O404  1  0.11784617  0.00661836  0.50932757  1
  O  O405  1  0.12062278  0.50906314  0.00228235  1
  O  O406  1  0.11706453  0.50945466  0.50815850  1
  O  O407  1  0.62788155  0.00917166  0.00822561  1
  O  O408  1  0.61945891  0.00380992  0.50292269  1
  O  O409  1  0.62800055  0.49858348  0.01649117  1
  O  O410  1  0.61712362  0.50693643  0.50942769  1
  O  O411  1  0.38119231  0.36060216  0.12313548  1
  O  O412  1  0.35719672  0.37471307  0.62297080  1
  O  O413  1  0.38114397  0.85964618  0.12354619  1
  O  O414  1  0.36427883  0.87231371  0.62287934  1
  O  O415  1  0.86771271  0.37562302  0.12020096  1
  O  O416  1  0.86649433  0.36702234  0.61787845  1
  O  O417  1  0.86298405  0.88029523  0.11639154  1
  O  O418  1  0.87753090  0.85933408  0.62248518  1
  O  O419  1  0.12864438  0.12059679  0.39033141  1
  O  O420  1  0.12946032  0.13194854  0.88257790  1
  O  O421  1  0.11721810  0.63667317  0.39402847  1
  O  O422  1  0.12303394  0.63489475  0.88622506  1
  O  O423  1  0.62856258  0.12908208  0.37923013  1
  O  O424  1  0.63258415  0.12707884  0.88320796  1
  O  O425  1  0.61868477  0.63430236  0.38456974  1
  O  O426  1  0.63357510  0.63466299  0.87330326  1
