# generated using pymatgen
data_V85Zn86O256
_symmetry_space_group_name_H-M   'P 1'
_cell_length_a   16.93734883
_cell_length_b   16.92646422
_cell_length_c   16.93882645
_cell_angle_alpha   89.94821325
_cell_angle_beta   89.96056213
_cell_angle_gamma   89.94531404
_symmetry_Int_Tables_number   1
_chemical_formula_structural   V85Zn86O256
_chemical_formula_sum   'V85 Zn86 O256'
_cell_volume   4856.17713890
_cell_formula_units_Z   1
loop_
 _symmetry_equiv_pos_site_id
 _symmetry_equiv_pos_as_xyz
  1  'x, y, z'
loop_
 _atom_site_type_symbol
 _atom_site_label
 _atom_site_symmetry_multiplicity
 _atom_site_fract_x
 _atom_site_fract_y
 _atom_site_fract_z
 _atom_site_occupancy
  V  V0  1  0.62804316  0.37901560  0.73776607  1
  V  V1  1  0.01153660  0.12592212  0.62264069  1
  V  V2  1  0.50263863  0.50286446  0.51081883  1
  V  V3  1  0.62348776  0.25072885  0.87488660  1
  V  V4  1  0.87452101  0.62402226  0.24879755  1
  V  V5  1  0.00123820  0.50183102  0.00489102  1
  V  V6  1  0.37779196  0.75288678  0.12345017  1
  V  V7  1  0.50297306  0.49885775  0.01145309  1
  V  V8  1  0.24881506  0.87888671  0.62747131  1
  V  V9  1  0.88177086  0.49374561  0.37231920  1
  V  V10  1  0.75292679  0.75156979  -0.00226804  1
  V  V11  1  0.00285408  0.12555305  0.12596355  1
  V  V12  1  0.74834329  0.62173055  0.87217798  1
  V  V13  1  0.37472788  0.87454321  0.50191277  1
  V  V14  1  0.00550481  0.50039101  0.50366618  1
  V  V15  1  0.74680101  0.87956434  0.12824424  1
  V  V16  1  0.62180478  0.37948251  0.24750136  1
  V  V17  1  0.12601008  0.25641719  0.87428039  1
  V  V18  1  0.24690042  0.49646778  0.23549652  1
  V  V19  1  0.36863164  0.25769247  0.12521773  1
  V  V20  1  0.12482117  0.87295955  0.24931722  1
  V  V21  1  0.25430537  0.87502873  0.12017588  1
  V  V22  1  0.00391592  0.26031754  0.74766683  1
  V  V23  1  0.86890973  0.25491996  0.62522279  1
  V  V24  1  0.49764146  0.38629208  0.87403537  1
  V  V25  1  0.88867400  0.88275705  -0.00626390  1
  V  V26  1  0.74654827  0.49863697  0.73344998  1
  V  V27  1  0.87528031  0.12334618  0.74711088  1
  V  V28  1  0.62968169  0.76485764  0.87058424  1
  V  V29  1  0.48104858  0.87784539  0.87164512  1
  V  V30  1  0.87710892  0.74798699  0.61715951  1
  V  V31  1  0.74390499  0.50157924  0.24624920  1
  V  V32  1  0.24809301  0.62305796  0.37809107  1
  V  V33  1  0.26038834  0.25008397  0.49504950  1
  V  V34  1  0.88051718  0.62425354  0.74585482  1
  V  V35  1  0.12435752  0.74852758  0.37696175  1
  V  V36  1  0.75050149  0.12625749  0.37782066  1
  V  V37  1  0.50472332  0.74552059  0.74557772  1
  V  V38  1  0.87344036  0.37737503  -0.00299674  1
  V  V39  1  0.75027481  0.87085557  0.61735851  1
  V  V40  1  0.12556743  0.37773963  0.23875434  1
  V  V41  1  0.62570943  -0.00540853  0.63128464  1
  V  V42  1  0.11945917  -0.00092241  0.12411015  1
  V  V43  1  0.13075565  0.62140178  0.00535728  1
  V  V44  1  0.25960706  0.11660208  0.88058660  1
  V  V45  1  0.49640141  0.12262097  0.62807519  1
  V  V46  1  0.12172259  0.88047274  0.75018758  1
  V  V47  1  0.50043992  0.24972458  0.75276262  1
  V  V48  1  0.12719763  0.25020001  0.37798732  1
  V  V49  1  0.36733178  0.38374711  -0.00231310  1
  V  V50  1  0.62322027  0.25184690  0.37614101  1
  V  V51  1  0.37254218  0.49844147  0.38363679  1
  V  V52  1  0.49519069  0.12469286  0.12711662  1
  V  V53  1  0.49643249  0.25236573  0.25104559  1
  V  V54  1  0.87878810  0.75092601  0.12206395  1
  V  V55  1  0.62115208  0.11854200  -0.00004955  1
  V  V56  1  0.87060121  0.37654943  0.49998072  1
  V  V57  1  -0.00080058  0.25707192  0.25991282  1
  V  V58  1  0.24255458  0.24861302  0.00429089  1
  V  V59  1  0.48103213  -0.00518077  -0.00250152  1
  V  V60  1  0.12618992  0.50042084  0.64297560  1
  V  V61  1  0.62213375  0.62697964  0.50952907  1
  V  V62  1  0.74640697  0.24917394  0.00101888  1
  V  V63  1  0.62950822  0.75591712  0.37669266  1
  V  V64  1  0.74992877  0.12140502  0.87424180  1
  V  V65  1  0.25797728  0.74516453  -0.00795549  1
  V  V66  1  0.50173031  0.87963073  0.37347813  1
  V  V67  1  0.74252326  0.37753784  0.12412039  1
  V  V68  1  0.74855178  0.62789267  0.37899323  1
  V  V69  1  0.87338459  0.12193487  0.25132542  1
  V  V70  1  0.37739213  0.73850713  0.62417982  1
  V  V71  1  0.87294890  0.24933853  0.12578315  1
  V  V72  1  0.37680921  0.62560127  0.24809578  1
  V  V73  1  0.50567176  0.75658375  0.24975182  1
  V  V74  1  0.37574073  0.26132624  0.62707807  1
  V  V75  1  0.62569657  0.12538403  0.50305357  1
  V  V76  1  0.00582119  -0.00324771  0.50312958  1
  V  V77  1  0.62825409  0.62156959  0.00629079  1
  V  V78  1  0.24943295  0.00604329  0.25728631  1
  V  V79  1  0.00323837  0.74691496  0.74745278  1
  V  V80  1  0.75192715  -0.01013545  0.75292179  1
  V  V81  1  0.06711086  0.06947815  -0.04513441  1
  V  V82  1  0.49589112  0.37766885  0.38119052  1
  V  V83  1  0.00086157  0.74882792  0.24998735  1
  V  V84  1  0.12210745  0.74646894  0.87461157  1
  Zn  Zn85  1  0.36672078  0.13269413  0.26001472  1
  Zn  Zn86  1  0.24766108  0.74857662  0.50295765  1
  Zn  Zn87  1  0.00489407  0.61921596  0.12761946  1
  Zn  Zn88  1  0.74191252  -0.00443799  0.25555211  1
  Zn  Zn89  1  0.37727490  0.11879982  0.75498916  1
  Zn  Zn90  1  0.50909420  0.62285294  0.13121620  1
  Zn  Zn91  1  0.37315203  0.62068424  0.76744501  1
  Zn  Zn92  1  0.00176012  0.37988198  0.87149394  1
  Zn  Zn93  1  0.25855852  -0.00408050  0.75283399  1
  Zn  Zn94  1  0.89452398  -0.00154668  0.87365509  1
  Zn  Zn95  1  0.36838373  0.00482061  0.38136506  1
  Zn  Zn96  1  0.26601216  0.49316044  0.77106702  1
  Zn  Zn97  1  0.13195594  0.12283085  0.49434376  1
  Zn  Zn98  1  0.87551565  -0.00194878  0.37800813  1
  Zn  Zn99  1  0.74611652  0.25860858  0.50703356  1
  Zn  Zn100  1  0.61567207  -0.00908101  0.13119174  1
  Zn  Zn101  1  0.87442021  0.87313672  0.49651250  1
  Zn  Zn102  1  0.23834536  0.37291023  0.62995173  1
  Zn  Zn103  1  -0.00339301  0.87578295  0.37506378  1
  Zn  Zn104  1  0.11826828  0.62611665  0.50730092  1
  Zn  Zn105  1  0.49857325  -0.00033884  0.50183177  1
  Zn  Zn106  1  0.87545961  0.50000854  0.87148577  1
  Zn  Zn107  1  0.18222417  0.18806516  0.18689521  1
  Zn  Zn108  1  0.19320698  0.19087988  0.69142619  1
  Zn  Zn109  1  0.19133239  0.68463435  0.18602601  1
  Zn  Zn110  1  0.19373557  0.67766036  0.68893240  1
  Zn  Zn111  1  0.68265009  0.18466251  0.18881315  1
  Zn  Zn112  1  0.68703456  0.18577624  0.68953257  1
  Zn  Zn113  1  0.68975219  0.69334876  0.18937104  1
  Zn  Zn114  1  0.69044900  0.69101415  0.68952657  1
  Zn  Zn115  1  0.30959583  0.31699050  0.31486460  1
  Zn  Zn116  1  0.31131565  0.31539650  0.81186712  1
  Zn  Zn117  1  0.31312555  0.81492500  0.31250066  1
  Zn  Zn118  1  0.31238236  0.80034579  0.80826202  1
  Zn  Zn119  1  0.81018160  0.31233287  0.31429339  1
  Zn  Zn120  1  0.81036085  0.31297070  0.81036743  1
  Zn  Zn121  1  0.81457325  0.81273254  0.31273734  1
  Zn  Zn122  1  0.81918622  0.81187559  0.81217754  1
  Zn  Zn123  1  0.18751823  0.42688861  0.43480980  1
  Zn  Zn124  1  0.18215504  0.43268910  0.94773187  1
  Zn  Zn125  1  0.18377947  0.93329830  0.44090588  1
  Zn  Zn126  1  0.19156489  0.92653569  0.93429677  1
  Zn  Zn127  1  0.68775302  0.44207825  0.43715285  1
  Zn  Zn128  1  0.68441742  0.43976675  0.93304524  1
  Zn  Zn129  1  0.68678512  0.94081899  0.43981084  1
  Zn  Zn130  1  0.69198155  0.93965959  0.94453662  1
  Zn  Zn131  1  0.30786531  0.06695798  0.06696301  1
  Zn  Zn132  1  0.31108507  0.06324543  0.56352762  1
  Zn  Zn133  1  0.31472506  0.56829397  -0.06982233  1
  Zn  Zn134  1  0.30710545  0.55964973  0.56508022  1
  Zn  Zn135  1  0.81561454  0.05997101  0.06029906  1
  Zn  Zn136  1  0.81616228  0.06122364  0.56296638  1
  Zn  Zn137  1  0.81310559  0.56229939  0.06308905  1
  Zn  Zn138  1  0.81306928  0.56560083  0.55962129  1
  Zn  Zn139  1  0.43116038  0.43867337  0.18857627  1
  Zn  Zn140  1  0.43499391  0.44274988  0.69193408  1
  Zn  Zn141  1  0.43522156  0.93824603  0.18899363  1
  Zn  Zn142  1  0.43497765  0.93463251  0.69101632  1
  Zn  Zn143  1  0.93522849  0.43477902  0.18570310  1
  Zn  Zn144  1  0.93659700  0.44048979  0.68118455  1
  Zn  Zn145  1  0.93616252  0.93711310  0.18779390  1
  Zn  Zn146  1  0.94032355  0.93602431  0.68342648  1
  Zn  Zn147  1  0.06271651  0.06402228  0.31573082  1
  Zn  Zn148  1  0.07402798  0.07246792  0.79137624  1
  Zn  Zn149  1  0.06340714  0.56035161  0.31199113  1
  Zn  Zn150  1  0.06327542  0.56488273  0.82085207  1
  Zn  Zn151  1  0.56174772  0.06227387  0.31033318  1
  Zn  Zn152  1  0.56107207  0.05603211  0.81256395  1
  Zn  Zn153  1  0.56238515  0.56458201  0.31759802  1
  Zn  Zn154  1  0.56363154  0.56342515  0.81383587  1
  Zn  Zn155  1  0.43562425  0.18387848  0.43866381  1
  Zn  Zn156  1  0.43599467  0.19291902  0.94124727  1
  Zn  Zn157  1  0.43941939  0.68862258  0.43764655  1
  Zn  Zn158  1  0.44963286  0.69313165  0.94282937  1
  Zn  Zn159  1  0.93834629  0.18757809  0.44020202  1
  Zn  Zn160  1  0.93173345  0.19436629  0.93144478  1
  Zn  Zn161  1  0.93837379  0.68359039  0.43524330  1
  Zn  Zn162  1  0.94039391  0.68705375  0.93357431  1
  Zn  Zn163  1  0.06022876  0.31146891  0.06312391  1
  Zn  Zn164  1  0.05948931  0.31858797  0.55767706  1
  Zn  Zn165  1  0.06571620  0.80964103  0.06180242  1
  Zn  Zn166  1  0.06283243  0.81077849  0.56639507  1
  Zn  Zn167  1  0.55951599  0.31166014  0.06267779  1
  Zn  Zn168  1  0.55863189  0.31266337  0.56252009  1
  Zn  Zn169  1  0.56263456  0.81217956  0.05619076  1
  Zn  Zn170  1  0.56328139  0.81181460  0.56176919  1
  O  O171  1  0.11077257  0.11834011  0.12514529  1
  O  O172  1  0.11354761  0.13059397  0.62787276  1
  O  O173  1  0.12173653  0.63419675  0.11057165  1
  O  O174  1  0.12486533  0.60733895  0.62135116  1
  O  O175  1  0.60948394  0.12996688  0.11545325  1
  O  O176  1  0.61748282  0.12035764  0.62058959  1
  O  O177  1  0.62893593  0.63394785  0.11107734  1
  O  O178  1  0.63301182  0.63223556  0.60784544  1
  O  O179  1  0.38382128  0.38629782  0.37223733  1
  O  O180  1  0.38891316  0.36065258  0.88804466  1
  O  O181  1  0.38250770  0.87826019  0.38293347  1
  O  O182  1  0.38327284  0.86846974  0.87576112  1
  O  O183  1  0.86996276  0.38519702  0.37967322  1
  O  O184  1  0.87353927  0.37298067  0.88804066  1
  O  O185  1  0.87755490  0.87809833  0.37872784  1
  O  O186  1  0.87528481  0.87799043  0.88846736  1
  O  O187  1  0.24553183  -0.00796626  0.35975322  1
  O  O188  1  0.24529952  0.01406847  0.88145503  1
  O  O189  1  0.25678807  0.50544865  0.37484202  1
  O  O190  1  0.24896336  0.49365057  0.88531439  1
  O  O191  1  0.75112511  0.01399029  0.37559632  1
  O  O192  1  0.74992749  0.00602693  0.86764920  1
  O  O193  1  0.75724197  0.50791521  0.36376635  1
  O  O194  1  0.75149826  0.51290958  0.87117073  1
  O  O195  1  0.25514733  0.50497038  0.14135405  1
  O  O196  1  0.23103014  0.49294334  0.61591051  1
  O  O197  1  0.23867034  0.99423497  0.12995624  1
  O  O198  1  0.25306955  0.98303408  0.62516066  1
  O  O199  1  0.75440209  0.49477248  0.13844691  1
  O  O200  1  0.75113140  0.50293829  0.63443167  1
  O  O201  1  0.75150106  0.98608018  0.12209785  1
  O  O202  1  0.74572581  0.99515516  0.63294292  1
  O  O203  1  0.00602139  0.36649204  0.24525486  1
  O  O204  1  -0.01012188  0.36335704  0.75135145  1
  O  O205  1  0.00708234  0.86820865  0.25016499  1
  O  O206  1  0.01454954  0.86826424  0.74516575  1
  O  O207  1  0.50291567  0.37289395  0.25840316  1
  O  O208  1  0.50813988  0.36944666  0.75903659  1
  O  O209  1  0.49581377  0.86795412  0.25895864  1
  O  O210  1  0.49845131  0.86647884  0.76568497  1
  O  O211  1  0.49758079  0.13444076  0.24083209  1
  O  O212  1  0.50393333  0.13131234  0.74394903  1
  O  O213  1  0.49380622  0.63290661  0.25174758  1
  O  O214  1  0.50081246  0.64251794  0.76065504  1
  O  O215  1  0.99179299  0.13200020  0.24375945  1
  O  O216  1  0.99227682  0.13460938  0.74094821  1
  O  O217  1  0.99361286  0.62951245  0.24753202  1
  O  O218  1  0.98860899  0.63035459  0.75519420  1
  O  O219  1  0.36643537  0.25718196  0.00884166  1
  O  O220  1  0.36668492  0.24791278  0.50793057  1
  O  O221  1  0.37171596  0.74689244  0.01680223  1
  O  O222  1  0.37551402  0.75968965  0.50417114  1
  O  O223  1  0.86621125  0.25655794  0.00528767  1
  O  O224  1  0.87431864  0.25845616  0.50737156  1
  O  O225  1  0.87239314  0.75616856  0.00508490  1
  O  O226  1  0.88310334  0.74847970  0.51329259  1
  O  O227  1  0.12874687  0.24966580  0.49193256  1
  O  O228  1  0.13475906  0.25175669  0.99609971  1
  O  O229  1  0.12394326  0.74580354  0.49098500  1
  O  O230  1  0.13204370  0.74598811  0.99246221  1
  O  O231  1  0.62618418  0.24081567  0.49756457  1
  O  O232  1  0.62700442  0.23926773  0.99536027  1
  O  O233  1  0.61991024  0.73752579  0.48983581  1
  O  O234  1  0.63412340  0.74425527  0.99072268  1
  O  O235  1  0.48985197  0.24419023  0.12906318  1
  O  O236  1  0.49556752  0.24154746  0.63081683  1
  O  O237  1  0.49573786  0.75226605  0.13227040  1
  O  O238  1  0.49328654  0.75815693  0.63583156  1
  O  O239  1  0.99225656  0.24243745  0.13287406  1
  O  O240  1  0.99177400  0.24502784  0.62944826  1
  O  O241  1  0.98940984  0.74939041  0.12910358  1
  O  O242  1  0.99249256  0.75122371  0.63775169  1
  O  O243  1  0.00343411  0.24819679  0.36416226  1
  O  O244  1  0.00661398  0.25034246  0.86502730  1
  O  O245  1  0.00767130  0.74960164  0.36828686  1
  O  O246  1  0.00790142  0.74926499  0.86143451  1
  O  O247  1  0.50339844  0.25942511  0.37273009  1
  O  O248  1  0.50778832  0.25491861  0.87239817  1
  O  O249  1  0.50615780  0.76022091  0.36858255  1
  O  O250  1  0.51176473  0.76535079  0.87332828  1
  O  O251  1  0.24622873  0.14221902  0.50939173  1
  O  O252  1  0.25130127  0.13386715  0.99089706  1
  O  O253  1  0.24614448  0.62656244  0.48687411  1
  O  O254  1  0.24375696  0.63713716  1.00520432  1
  O  O255  1  0.74372654  0.12809451  0.49504952  1
  O  O256  1  0.74212960  0.12755258  0.99648654  1
  O  O257  1  0.73982977  0.61903367  0.48567659  1
  O  O258  1  0.74805924  0.63095518  0.99243558  1
  O  O259  1  0.25891908  0.36235424  0.00076144  1
  O  O260  1  0.24545305  0.35540298  0.50704384  1
  O  O261  1  0.24673968  0.86442767  0.01365355  1
  O  O262  1  0.25619300  0.87041651  0.50639501  1
  O  O263  1  0.75226059  0.37122604  0.00423935  1
  O  O264  1  0.76229705  0.37637160  0.49497831  1
  O  O265  1  0.76161525  0.86921558  0.00856577  1
  O  O266  1  0.75419734  0.88156694  0.51335542  1
  O  O267  1  0.13725531  0.49394355  0.25352142  1
  O  O268  1  0.11894658  0.50104213  0.74317680  1
  O  O269  1  0.13148697  0.99500210  0.24386189  1
  O  O270  1  0.13258373  0.98347683  0.75173525  1
  O  O271  1  0.63325577  0.49439090  0.25583005  1
  O  O272  1  0.63302143  0.49180593  0.75406329  1
  O  O273  1  0.63068158  1.00929771  0.24095303  1
  O  O274  1  0.63666400  1.00547469  0.73913191  1
  O  O275  1  0.35619762  -0.00010695  0.24792096  1
  O  O276  1  0.37203388  0.00555043  0.74870879  1
  O  O277  1  0.36621473  0.50727521  0.25905791  1
  O  O278  1  0.38506943  0.50580470  0.76427115  1
  O  O279  1  0.87175337  0.01303659  0.25123074  1
  O  O280  1  0.87300732  0.00633710  0.75308698  1
  O  O281  1  0.86862138  0.50354527  0.25565846  1
  O  O282  1  0.86856046  0.50732484  0.74974573  1
  O  O283  1  0.12905773  0.35926163  0.36013314  1
  O  O284  1  0.11936589  0.35958373  0.88118867  1
  O  O285  1  0.12384962  0.86179151  0.36878510  1
  O  O286  1  0.12806469  0.86290977  0.86004856  1
  O  O287  1  0.61926883  0.37084038  0.36781539  1
  O  O288  1  0.61658695  0.36706207  0.87144954  1
  O  O289  1  0.61982428  0.86458730  0.38355934  1
  O  O290  1  0.63205001  0.86612392  0.87870253  1
  O  O291  1  0.38367752  0.13473621  0.12757511  1
  O  O292  1  0.38885413  0.12992904  0.62380246  1
  O  O293  1  0.38004110  0.63614364  0.14316207  1
  O  O294  1  0.37514786  0.63787852  0.61488653  1
  O  O295  1  0.88234591  0.12762174  0.13096472  1
  O  O296  1  0.88208464  0.13066070  0.63447473  1
  O  O297  1  0.87378742  0.63557469  0.13053712  1
  O  O298  1  0.86719251  0.63400999  0.63552332  1
  O  O299  1  0.25788012  0.24093497  0.11762860  1
  O  O300  1  0.26043403  0.25181095  0.62039277  1
  O  O301  1  0.25899314  0.75685105  0.12166183  1
  O  O302  1  0.26039447  0.75725788  0.62395017  1
  O  O303  1  0.75378368  0.25344672  0.11989109  1
  O  O304  1  0.76460751  0.24319844  0.62618224  1
  O  O305  1  0.76170240  0.75937806  0.12127491  1
  O  O306  1  0.76139539  0.76176549  0.63309708  1
  O  O307  1  0.24699362  0.25144731  0.38751646  1
  O  O308  1  0.24164616  0.24033563  0.88208315  1
  O  O309  1  0.24252699  0.74187202  0.37331758  1
  O  O310  1  0.24111809  0.75892092  0.88802588  1
  O  O311  1  0.74193626  0.24028076  0.37763982  1
  O  O312  1  0.74309366  0.24215121  0.88070283  1
  O  O313  1  0.74057921  0.74162429  0.36692454  1
  O  O314  1  0.74682540  0.74191335  0.87528294  1
  O  O315  1  -0.00317164  0.12982273  0.00745618  1
  O  O316  1  0.00355252  0.11803827  0.50728217  1
  O  O317  1  0.00600118  0.61815634  0.00172067  1
  O  O318  1  -0.00170850  0.60565319  0.49435607  1
  O  O319  1  0.50391310  0.11765042  0.00414334  1
  O  O320  1  0.50984080  0.12299121  0.50999648  1
  O  O321  1  0.51132493  0.61737031  0.00495333  1
  O  O322  1  0.51338753  0.61861445  0.49425071  1
  O  O323  1  0.50869672  0.38404987  0.48677103  1
  O  O324  1  0.49618854  0.38193756  0.99539467  1
  O  O325  1  0.49268172  0.87615297  0.49249064  1
  O  O326  1  0.50338637  0.88333706  0.98644906  1
  O  O327  1  0.98494139  0.38894810  0.49741254  1
  O  O328  1  0.98893346  0.38001835  1.00055877  1
  O  O329  1  1.00112519  0.88694203  0.50219540  1
  O  O330  1  0.98679488  0.87132742  1.00421156  1
  O  O331  1  0.49164446  0.49462587  0.37958936  1
  O  O332  1  0.50821681  0.48933959  0.88722520  1
  O  O333  1  0.50313636  0.98753886  0.37779942  1
  O  O334  1  0.50216917  0.98528838  0.88132732  1
  O  O335  1  0.98596094  0.50294442  0.37813127  1
  O  O336  1  0.99489124  0.49732438  0.88756952  1
  O  O337  1  0.99857596  0.99977659  0.38709887  1
  O  O338  1  1.01235695  1.01967568  0.88150542  1
  O  O339  1  0.01116804  0.00652686  0.12979964  1
  O  O340  1  -0.00170017  0.01030016  0.61408147  1
  O  O341  1  -0.01082434  0.50206642  0.11074920  1
  O  O342  1  0.00816719  0.50030184  0.61120435  1
  O  O343  1  0.49697843  0.00676294  0.11733417  1
  O  O344  1  0.50964324  0.00509487  0.62666640  1
  O  O345  1  0.49740430  0.50130873  0.11552333  1
  O  O346  1  0.49933966  0.49181255  0.60918470  1
  O  O347  1  0.24490781  0.38902304  0.25064910  1
  O  O348  1  0.25683289  0.38081399  0.74249408  1
  O  O349  1  0.24337056  0.88154525  0.23983805  1
  O  O350  1  0.24162400  0.87152305  0.74482283  1
  O  O351  1  0.74318148  0.38210356  0.24559365  1
  O  O352  1  0.74046330  0.38679977  0.75763189  1
  O  O353  1  0.75832711  0.87626865  0.23213507  1
  O  O354  1  0.75906839  0.88678145  0.74305913  1
  O  O355  1  0.24720016  0.10924287  0.24292195  1
  O  O356  1  0.24684995  0.12257161  0.76898962  1
  O  O357  1  0.25516447  0.61644207  0.25922731  1
  O  O358  1  0.25988782  0.60762053  0.74354810  1
  O  O359  1  0.75855544  0.12904412  0.25790194  1
  O  O360  1  0.75854208  0.11525886  0.75296795  1
  O  O361  1  0.75279675  0.61879286  0.25606990  1
  O  O362  1  0.75481385  0.61804084  0.75616045  1
  O  O363  1  0.38196777  0.11617144  0.37069329  1
  O  O364  1  0.36196752  0.13004205  0.87765582  1
  O  O365  1  0.36859109  0.62176568  0.36676061  1
  O  O366  1  0.36979041  0.65043441  0.88077643  1
  O  O367  1  0.86660392  0.12738532  0.36808676  1
  O  O368  1  0.86998680  0.12304247  0.86274264  1
  O  O369  1  0.86554850  0.61951858  0.36830919  1
  O  O370  1  0.86551051  0.62680122  0.86450119  1
  O  O371  1  0.12495995  0.36861145  0.13843710  1
  O  O372  1  0.11746523  0.39378237  0.62151187  1
  O  O373  1  0.13002700  0.88106392  0.12986385  1
  O  O374  1  0.13479177  0.86443798  0.64015528  1
  O  O375  1  0.63153585  0.36863275  0.13382953  1
  O  O376  1  0.62414831  0.36723235  0.63882053  1
  O  O377  1  0.64298164  0.87223772  0.11608098  1
  O  O378  1  0.63382604  0.88472849  0.62088678  1
  O  O379  1  0.11682207  0.25592151  0.25313662  1
  O  O380  1  0.11470762  0.24344980  0.76034695  1
  O  O381  1  0.12112327  0.75277335  0.25470042  1
  O  O382  1  0.12053154  0.74954772  0.75545406  1
  O  O383  1  0.61620641  0.25651986  0.25648036  1
  O  O384  1  0.62157970  0.25535201  0.75715881  1
  O  O385  1  0.61310150  0.74709873  0.25826638  1
  O  O386  1  0.61984193  0.74881489  0.75966213  1
  O  O387  1  0.37715872  0.25327509  0.24265705  1
  O  O388  1  0.38363225  0.24234515  0.74340011  1
  O  O389  1  0.38469311  0.74530095  0.24752124  1
  O  O390  1  0.38493441  0.74610149  0.73887069  1
  O  O391  1  0.88032108  0.24323791  0.24634217  1
  O  O392  1  0.87987905  0.24337788  0.74470187  1
  O  O393  1  0.88045295  0.74459269  0.24137105  1
  O  O394  1  0.88383037  0.74389223  0.74375767  1
  O  O395  1  0.38362961  0.50910543  0.48911363  1
  O  O396  1  0.38510687  0.48825466  0.99810896  1
  O  O397  1  0.37665633  0.98750239  0.50156925  1
  O  O398  1  0.38235172  1.00329504  1.00451414  1
  O  O399  1  0.88011403  0.49635331  0.49249622  1
  O  O400  1  0.87687140  0.49182180  0.99653500  1
  O  O401  1  0.88973333  1.00066787  0.49879363  1
  O  O402  1  0.87774653  0.98800725  0.99526734  1
  O  O403  1  0.12487586  -0.00321221  0.00678446  1
  O  O404  1  0.11237432  0.00451760  0.49646791  1
  O  O405  1  0.11431529  0.50938813  0.00133645  1
  O  O406  1  0.10879390  0.49774811  0.48633058  1
  O  O407  1  0.61974023  0.01053020  0.00574558  1
  O  O408  1  0.62520275  0.01181552  0.51166198  1
  O  O409  1  0.61855040  0.50946050  -0.00109203  1
  O  O410  1  0.61674017  0.51578790  0.49106483  1
  O  O411  1  0.37949790  0.36492181  0.11538989  1
  O  O412  1  0.38383036  0.36196214  0.62489323  1
  O  O413  1  0.36573149  0.86574901  0.13176397  1
  O  O414  1  0.37020151  0.86589475  0.61775885  1
  O  O415  1  0.86441797  0.36881823  0.11525840  1
  O  O416  1  0.87668495  0.36645146  0.61556618  1
  O  O417  1  0.86998265  0.87021600  0.11540413  1
  O  O418  1  0.86894846  0.86660545  0.62316967  1
  O  O419  1  0.12277165  0.14314888  0.37175492  1
  O  O420  1  0.12683864  0.13033512  0.88472433  1
  O  O421  1  0.13196695  0.63415989  0.37307254  1
  O  O422  1  0.12284134  0.63806560  0.88783085  1
  O  O423  1  0.62877239  0.13044353  0.38489280  1
  O  O424  1  0.62810909  0.12827791  0.88275594  1
  O  O425  1  0.63170379  0.63582101  0.37915753  1
  O  O426  1  0.63318620  0.63371042  0.88450703  1
