# generated using pymatgen
data_V85Zn86O256
_symmetry_space_group_name_H-M   'P 1'
_cell_length_a   16.93776267
_cell_length_b   16.93954601
_cell_length_c   16.92998124
_cell_angle_alpha   90.00017219
_cell_angle_beta   90.06690747
_cell_angle_gamma   90.04301117
_symmetry_Int_Tables_number   1
_chemical_formula_structural   V85Zn86O256
_chemical_formula_sum   'V85 Zn86 O256'
_cell_volume   4857.51184513
_cell_formula_units_Z   1
loop_
 _symmetry_equiv_pos_site_id
 _symmetry_equiv_pos_as_xyz
  1  'x, y, z'
loop_
 _atom_site_type_symbol
 _atom_site_label
 _atom_site_symmetry_multiplicity
 _atom_site_fract_x
 _atom_site_fract_y
 _atom_site_fract_z
 _atom_site_occupancy
  V  V0  1  0.37642720  0.24567563  0.13521725  1
  V  V1  1  0.62605279  0.38794897  0.24856166  1
  V  V2  1  0.62314478  0.50031909  0.62661034  1
  V  V3  1  0.37476428  0.37752463  0.00788364  1
  V  V4  1  0.74326002  0.12325390  0.87603553  1
  V  V5  1  0.25965757  0.12671167  0.87338677  1
  V  V6  1  0.62039375  0.24540973  0.87697387  1
  V  V7  1  0.13315310  0.74637504  0.87545421  1
  V  V8  1  0.87705463  0.87517216  0.00392661  1
  V  V9  1  0.36698776  0.50537865  0.87707171  1
  V  V10  1  0.12271629  0.00217581  0.62235625  1
  V  V11  1  0.12462164  0.37513253  0.75166902  1
  V  V12  1  0.49528603  0.87406848  0.36522882  1
  V  V13  1  0.62604291  0.73652023  0.87031825  1
  V  V14  1  0.12272157  0.74981489  0.36859739  1
  V  V15  1  0.49627104  0.63232090  0.63044547  1
  V  V16  1  0.26793307  0.00174932  0.25447630  1
  V  V17  1  0.37321542  0.36716109  0.50415524  1
  V  V18  1  0.62449759  0.00143693  0.11352560  1
  V  V19  1  0.50553492  0.87581216  0.88935560  1
  V  V20  1  0.49674630  0.49989022  0.50195584  1
  V  V21  1  0.74857800  0.37715434  0.62668570  1
  V  V22  1  0.00032877  0.50095279  0.00954565  1
  V  V23  1  0.61367834  0.86973603  0.74707135  1
  V  V24  1  0.12110231  0.11827593  -0.00195004  1
  V  V25  1  0.24891765  0.24956817  0.00466988  1
  V  V26  1  -0.00347639  0.12017521  0.12217997  1
  V  V27  1  0.62200014  0.62901721  0.49609499  1
  V  V28  1  0.74331759  0.38779295  0.12872595  1
  V  V29  1  0.87217195  0.37426233  0.00201589  1
  V  V30  1  0.74681217  0.12250268  0.37405666  1
  V  V31  1  0.24938938  0.87609627  0.62264714  1
  V  V32  1  0.13240186  0.62445514  0.00145788  1
  V  V33  1  0.50954889  0.51020679  0.00636951  1
  V  V34  1  0.87564117  0.37865397  0.49686895  1
  V  V35  1  0.25368610  0.37448615  0.62586569  1
  V  V36  1  0.48638171  0.24298329  0.74592632  1
  V  V37  1  0.25191739  0.87286796  0.12367615  1
  V  V38  1  0.12238602  0.25083893  0.87798540  1
  V  V39  1  0.25404851  0.75032759  0.49752819  1
  V  V40  1  0.74897315  0.87309861  0.62382835  1
  V  V41  1  0.74326719  0.24438283  0.00362337  1
  V  V42  1  0.74851042  0.61614967  0.37018291  1
  V  V43  1  0.87914086  0.00273222  0.87961005  1
  V  V44  1  -0.00058813  0.62415497  0.62517564  1
  V  V45  1  0.25231516  0.13180988  0.36987146  1
  V  V46  1  0.87480138  0.87491786  0.49827050  1
  V  V47  1  0.74932701  -0.00198471  0.74741102  1
  V  V48  1  0.37113464  0.49867894  0.36986887  1
  V  V49  1  0.12419802  0.00109011  0.13002440  1
  V  V50  1  0.75543119  0.73828246  -0.01074677  1
  V  V51  1  0.00614872  0.50015747  0.49739270  1
  V  V52  1  0.38183312  0.88971964  0.49682812  1
  V  V53  1  0.86992827  0.24920018  0.12993007  1
  V  V54  1  0.75001356  0.86852553  0.12129206  1
  V  V55  1  0.74814251  0.74863471  0.49184548  1
  V  V56  1  0.23750343  0.25414588  0.49953187  1
  V  V57  1  0.38270805  0.74775826  0.12606366  1
  V  V58  1  0.38371886  0.63004857  0.25130553  1
  V  V59  1  0.25998995  0.00692579  0.74986954  1
  V  V60  1  0.74653473  0.50563618  0.75686676  1
  V  V61  1  0.87477251  0.00009226  0.37312762  1
  V  V62  1  0.87568635  0.75021858  0.62449303  1
  V  V63  1  0.36906238  0.63340825  0.75461069  1
  V  V64  1  0.24270831  0.38033417  0.13948869  1
  V  V65  1  0.87455684  0.63223957  0.24649612  1
  V  V66  1  0.49919362  0.37280490  0.37456164  1
  V  V67  1  0.00358900  0.88101602  0.87980074  1
  V  V68  1  0.74819395  0.25093056  0.50054531  1
  V  V69  1  0.87097869  0.51010573  0.87904101  1
  V  V70  1  0.01232117  0.37224627  0.37094951  1
  V  V71  1  0.62604990  0.86159942  0.25350129  1
  V  V72  1  0.00278112  0.12592301  0.62422476  1
  V  V73  1  0.87515852  0.25043527  0.62781604  1
  V  V74  1  -0.00111203  0.87064851  0.36671388  1
  V  V75  1  0.12659653  0.87682998  0.75060455  1
  V  V76  1  0.62178573  0.24826888  0.37205938  1
  V  V77  1  0.61495619  0.11940162  0.50363082  1
  V  V78  1  0.00093953  0.75029713  0.75049415  1
  V  V79  1  0.24832056  0.62159360  0.36856782  1
  V  V80  1  -0.00072450  0.64880100  0.13042577  1
  V  V81  1  0.49846051  0.37510428  0.87662645  1
  V  V82  1  0.49431222  0.11484946  0.11895519  1
  V  V83  1  -0.00177850  0.37583349  0.87819682  1
  V  V84  1  0.01191789  0.25143126  0.25277148  1
  Zn  Zn85  1  0.12509192  0.50147143  0.62919222  1
  Zn  Zn86  1  0.38151602  0.87679515  0.00257508  1
  Zn  Zn87  1  0.25502924  0.74647567  -0.00205731  1
  Zn  Zn88  1  0.37744095  0.75410798  0.62601817  1
  Zn  Zn89  1  0.87325501  0.12418028  0.25098613  1
  Zn  Zn90  1  0.87110926  0.62848578  0.75477503  1
  Zn  Zn91  1  0.11844982  0.13034116  0.48870537  1
  Zn  Zn92  1  0.74563040  -0.00260846  0.24821526  1
  Zn  Zn93  1  0.49928751  0.24024346  0.25120273  1
  Zn  Zn94  1  0.00042225  0.00053904  0.49720097  1
  Zn  Zn95  1  0.39054516  0.00649715  0.88003962  1
  Zn  Zn96  1  0.12665705  0.62603242  0.50043754  1
  Zn  Zn97  1  0.61831449  -0.00566372  0.61868145  1
  Zn  Zn98  1  0.62054202  0.37367530  0.74899662  1
  Zn  Zn99  1  0.12421668  0.50163256  0.13961292  1
  Zn  Zn100  1  0.24721070  0.50351094  0.75290131  1
  Zn  Zn101  1  -0.00171893  0.25039353  0.75242033  1
  Zn  Zn102  1  0.87224767  0.49470871  0.36237221  1
  Zn  Zn103  1  0.12258319  0.87262545  0.24792117  1
  Zn  Zn104  1  0.52421425  0.61906383  0.13726789  1
  Zn  Zn105  1  0.87442085  0.12573072  0.75018938  1
  Zn  Zn106  1  0.47799696  0.11810252  0.62285764  1
  Zn  Zn107  1  0.19015072  0.18403948  0.18857009  1
  Zn  Zn108  1  0.30640777  0.19184880  0.68711833  1
  Zn  Zn109  1  0.19084147  0.68551850  0.18888182  1
  Zn  Zn110  1  0.18871478  0.68847688  0.68595124  1
  Zn  Zn111  1  0.68102685  0.18382311  0.18851883  1
  Zn  Zn112  1  0.68442139  0.18872049  0.69080477  1
  Zn  Zn113  1  0.69650359  0.68529698  0.18412207  1
  Zn  Zn114  1  0.68740066  0.68668495  0.68551936  1
  Zn  Zn115  1  0.31520355  0.30659824  0.31705594  1
  Zn  Zn116  1  0.30931120  0.31882604  0.81938373  1
  Zn  Zn117  1  0.31311333  0.81345072  0.31098773  1
  Zn  Zn118  1  0.31576581  0.81688507  0.81229842  1
  Zn  Zn119  1  0.81027892  0.31292693  0.31119719  1
  Zn  Zn120  1  0.80947160  0.31678365  0.81338536  1
  Zn  Zn121  1  0.81085443  0.80906309  0.30988644  1
  Zn  Zn122  1  0.81305508  0.81428111  0.81333688  1
  Zn  Zn123  1  0.18734213  0.44016849  0.31643702  1
  Zn  Zn124  1  0.18692804  0.43820739  0.94514430  1
  Zn  Zn125  1  0.18867606  0.93881912  0.43434781  1
  Zn  Zn126  1  0.19382204  0.94090911  0.93989685  1
  Zn  Zn127  1  0.68500021  0.43887645  0.43818478  1
  Zn  Zn128  1  0.68623840  0.43451848  0.93898012  1
  Zn  Zn129  1  0.68251328  0.93738394  0.43369939  1
  Zn  Zn130  1  0.68782184  0.93234238  0.93423976  1
  Zn  Zn131  1  0.31429344  0.05790408  0.05915950  1
  Zn  Zn132  1  0.30496506  0.06493968  0.55411800  1
  Zn  Zn133  1  0.31527536  0.56048692  0.06765034  1
  Zn  Zn134  1  0.31057741  0.55925911  0.56110190  1
  Zn  Zn135  1  0.80886916  0.05957173  0.06073781  1
  Zn  Zn136  1  0.80999751  0.06316648  0.56028774  1
  Zn  Zn137  1  0.81647938  0.56514498  0.06843198  1
  Zn  Zn138  1  0.81283437  0.56218309  0.56297972  1
  Zn  Zn139  1  0.44113390  0.43794374  0.18976507  1
  Zn  Zn140  1  0.43515137  0.44024347  0.69106562  1
  Zn  Zn141  1  0.44345314  0.93258149  0.18381602  1
  Zn  Zn142  1  0.43747430  0.93982043  0.68488914  1
  Zn  Zn143  1  0.93414411  0.43817287  0.19099165  1
  Zn  Zn144  1  0.93571600  0.43938183  0.69052875  1
  Zn  Zn145  1  0.93580900  0.93863002  0.18879825  1
  Zn  Zn146  1  0.93667772  0.93790813  0.69013997  1
  Zn  Zn147  1  0.06341244  0.06428447  0.31088684  1
  Zn  Zn148  1  0.06454174  0.06538912  0.80741425  1
  Zn  Zn149  1  0.05507920  0.56663559  0.31288962  1
  Zn  Zn150  1  0.05994114  0.56247835  0.81614600  1
  Zn  Zn151  1  0.55693451  0.05137512  0.30391971  1
  Zn  Zn152  1  0.56184388  0.05765086  0.80336029  1
  Zn  Zn153  1  0.56117258  0.56347718  0.31838764  1
  Zn  Zn154  1  0.55444947  0.56020779  0.81208866  1
  Zn  Zn155  1  0.43190952  0.18318774  0.43771453  1
  Zn  Zn156  1  0.43919288  0.18831104  0.94714901  1
  Zn  Zn157  1  0.43931475  0.69442594  0.43465197  1
  Zn  Zn158  1  0.44076395  0.69330069  0.93625710  1
  Zn  Zn159  1  0.93641930  0.18882068  0.43767660  1
  Zn  Zn160  1  0.93420208  0.18685303  0.94046643  1
  Zn  Zn161  1  0.93472047  0.68651285  0.43369553  1
  Zn  Zn162  1  0.94409491  0.69090979  0.94060589  1
  Zn  Zn163  1  0.06091932  0.30956959  0.06568100  1
  Zn  Zn164  1  0.06218401  0.31623128  0.56572357  1
  Zn  Zn165  1  0.06840152  0.81820423  0.05699820  1
  Zn  Zn166  1  0.06319436  0.81321347  0.55596849  1
  Zn  Zn167  1  0.56050127  0.31015796  0.06448884  1
  Zn  Zn168  1  0.56020736  0.30902768  0.56358727  1
  Zn  Zn169  1  0.58620006  0.77410581  0.07720373  1
  Zn  Zn170  1  0.56043568  0.81182356  0.55649194  1
  O  O171  1  0.11805745  0.12026397  0.11890369  1
  O  O172  1  0.10903482  0.11700560  0.62094239  1
  O  O173  1  0.11293956  0.62632713  0.12123613  1
  O  O174  1  0.11252067  0.62509857  0.62257139  1
  O  O175  1  0.62193347  0.10745425  0.12395583  1
  O  O176  1  0.63083198  0.12991347  0.60684960  1
  O  O177  1  0.62042967  0.66505384  0.10762101  1
  O  O178  1  0.61629418  0.61867990  0.62040916  1
  O  O179  1  0.37914292  0.38166730  0.38047272  1
  O  O180  1  0.38182326  0.38105855  0.88695893  1
  O  O181  1  0.38513459  0.87281144  0.38261698  1
  O  O182  1  0.39780352  0.86680625  0.87451384  1
  O  O183  1  0.87869591  0.37497631  0.38308489  1
  O  O184  1  0.87941118  0.38100922  0.88378967  1
  O  O185  1  0.87861956  0.88027583  0.37732272  1
  O  O186  1  0.88360972  0.88365993  0.88061621  1
  O  O187  1  0.24915694  0.00296654  0.35855564  1
  O  O188  1  0.24179510  0.01278857  0.86391462  1
  O  O189  1  0.25910523  0.50839563  0.37874780  1
  O  O190  1  0.26388195  0.49467533  0.87916563  1
  O  O191  1  0.75535183  0.00698863  0.37370077  1
  O  O192  1  0.75495461  0.00682395  0.86946075  1
  O  O193  1  0.75358737  0.51243120  0.38217680  1
  O  O194  1  0.75807843  0.49321768  0.86966898  1
  O  O195  1  0.24887809  0.48282699  0.12466976  1
  O  O196  1  0.24462318  0.48889074  0.62598664  1
  O  O197  1  0.24388868  0.99703141  0.13584146  1
  O  O198  1  0.24091920  0.99681762  0.63138411  1
  O  O199  1  0.74981185  0.48665911  0.11666047  1
  O  O200  1  0.74376633  0.49506367  0.63111416  1
  O  O201  1  0.74140312  0.98983235  0.12460466  1
  O  O202  1  0.74859836  0.99391653  0.63212074  1
  O  O203  1  -0.00744195  0.36018391  0.25576870  1
  O  O204  1  0.00524963  0.37600598  0.75961857  1
  O  O205  1  -0.00002958  0.87691422  0.26230636  1
  O  O206  1  0.00615302  0.87065826  0.75907250  1
  O  O207  1  0.50766347  0.36947166  0.25758258  1
  O  O208  1  0.49720502  0.36651519  0.76107308  1
  O  O209  1  0.50959565  0.87045317  0.25672176  1
  O  O210  1  0.51226343  0.86992240  0.74905245  1
  O  O211  1  0.50895136  0.12518621  0.22999319  1
  O  O212  1  0.49782433  0.14189605  0.75740338  1
  O  O213  1  0.48973379  0.62134046  0.25055491  1
  O  O214  1  0.48428834  0.61919758  0.74072209  1
  O  O215  1  0.99586796  0.13588487  0.24305582  1
  O  O216  1  0.99466968  0.12974745  0.74066934  1
  O  O217  1  0.99448700  0.63110253  0.23620550  1
  O  O218  1  0.99773341  0.63125229  0.74245968  1
  O  O219  1  0.36975315  0.25943820  0.01184232  1
  O  O220  1  0.36617389  0.26362671  0.49216619  1
  O  O221  1  0.37125825  0.75230439  0.00748343  1
  O  O222  1  0.36374479  0.75735733  0.50069850  1
  O  O223  1  0.86663197  0.25420767  0.01146376  1
  O  O224  1  0.87081983  0.26001439  0.50926675  1
  O  O225  1  0.86625474  0.76255599  -0.01273581  1
  O  O226  1  0.86754840  0.75509320  0.50421962  1
  O  O227  1  0.13431932  0.25356124  0.50213104  1
  O  O228  1  0.12841559  0.24094201  0.99758413  1
  O  O229  1  0.13785822  0.75066844  0.49046106  1
  O  O230  1  0.12736103  0.74221340  0.99249633  1
  O  O231  1  0.62818090  0.24389976  0.48989600  1
  O  O232  1  0.63049216  0.25394718  0.98738658  1
  O  O233  1  0.63415756  0.73645132  0.50762787  1
  O  O234  1  0.64596481  0.75796632  0.97881469  1
  O  O235  1  0.49178076  0.24105546  0.12749114  1
  O  O236  1  0.50368225  0.24728141  0.64392609  1
  O  O237  1  0.48384696  0.74960521  0.12361511  1
  O  O238  1  0.49718799  0.73591018  0.61891417  1
  O  O239  1  0.99041180  0.24402931  0.13375840  1
  O  O240  1  0.99150988  0.24417499  0.62587759  1
  O  O241  1  1.00215970  0.74650323  0.12150209  1
  O  O242  1  0.99589924  0.74460009  0.62762440  1
  O  O243  1  -0.00612500  0.25431219  0.36028257  1
  O  O244  1  0.00252136  0.25786878  0.87762621  1
  O  O245  1  0.01019592  0.75806853  0.38302104  1
  O  O246  1  0.01039014  0.75975521  0.87014996  1
  O  O247  1  0.50568363  0.25267714  0.37418596  1
  O  O248  1  0.50275696  0.25529903  0.87209819  1
  O  O249  1  0.50846231  0.77441520  0.39224297  1
  O  O250  1  0.51909054  0.75756749  0.87652586  1
  O  O251  1  0.24109889  0.13643858  0.48940149  1
  O  O252  1  0.24042070  0.13172211  0.99550246  1
  O  O253  1  0.25085941  0.63285732  0.49011292  1
  O  O254  1  0.23575095  0.62348199  1.00876948  1
  O  O255  1  0.74345859  0.13211417  0.48977714  1
  O  O256  1  0.75304255  0.13680486  0.99188227  1
  O  O257  1  0.74337766  0.62967809  0.49545262  1
  O  O258  1  0.76204531  0.64033860  1.00058313  1
  O  O259  1  0.26017238  0.36969653  0.00916883  1
  O  O260  1  0.25811749  0.36834775  0.50819042  1
  O  O261  1  0.24596506  0.87186482  0.01542224  1
  O  O262  1  0.25833455  0.86953955  0.50100860  1
  O  O263  1  0.75214282  0.36232561  0.00647873  1
  O  O264  1  0.75613728  0.37078638  0.50509575  1
  O  O265  1  0.76020994  0.86979976  0.00171089  1
  O  O266  1  0.75177979  0.86653369  0.50230486  1
  O  O267  1  0.12144785  0.50193938  0.25174191  1
  O  O268  1  0.12621323  0.48999450  0.75504196  1
  O  O269  1  0.12928048  0.99954503  0.23777128  1
  O  O270  1  0.13070918  0.99624851  0.73841891  1
  O  O271  1  0.62081648  0.48761957  0.25555653  1
  O  O272  1  0.62914032  0.49678076  0.74686052  1
  O  O273  1  0.62777815  0.98516866  0.23551336  1
  O  O274  1  0.63952189  0.98827935  0.75123892  1
  O  O275  1  0.36596758  -0.00240914  0.24506829  1
  O  O276  1  0.36169840  -0.00639451  0.75952717  1
  O  O277  1  0.38023078  0.50536441  0.26417382  1
  O  O278  1  0.37149058  0.50819374  0.76137534  1
  O  O279  1  0.86878017  0.00229671  0.26123932  1
  O  O280  1  0.86421541  -0.00075234  0.76013131  1
  O  O281  1  0.88119555  0.51916400  0.24914798  1
  O  O282  1  0.86649151  0.50047866  0.76211893  1
  O  O283  1  0.11126071  0.37475661  0.37671829  1
  O  O284  1  0.11825175  0.37192059  0.87624086  1
  O  O285  1  0.11602936  0.86934415  0.37387713  1
  O  O286  1  0.11938399  0.87313627  0.87232682  1
  O  O287  1  0.62050393  0.36691154  0.37185467  1
  O  O288  1  0.61082472  0.36724662  0.87560219  1
  O  O289  1  0.62501430  0.87354467  0.35860017  1
  O  O290  1  0.61974948  0.86799936  0.86518283  1
  O  O291  1  0.38527390  0.12978169  0.12005503  1
  O  O292  1  0.36714909  0.13014046  0.61798840  1
  O  O293  1  0.37061369  0.63128447  0.13756668  1
  O  O294  1  0.38017642  0.62419093  0.63362127  1
  O  O295  1  0.88023472  0.12929967  0.12467612  1
  O  O296  1  0.88152398  0.13329517  0.62356111  1
  O  O297  1  0.88974068  0.62835923  0.13143020  1
  O  O298  1  0.88493083  0.63089828  0.62657852  1
  O  O299  1  0.25611640  0.25656872  0.12355529  1
  O  O300  1  0.24850742  0.26589408  0.61753056  1
  O  O301  1  0.25642463  0.75895007  0.12603568  1
  O  O302  1  0.25015661  0.75858901  0.61553423  1
  O  O303  1  0.75276237  0.24893936  0.11874573  1
  O  O304  1  0.75537442  0.25577789  0.62102423  1
  O  O305  1  0.75517905  0.76342270  0.10766768  1
  O  O306  1  0.75731288  0.75202613  0.61529263  1
  O  O307  1  0.24734030  0.24058365  0.38016876  1
  O  O308  1  0.24290992  0.24502911  0.88320325  1
  O  O309  1  0.24536975  0.74483598  0.38068550  1
  O  O310  1  0.23666352  0.75824949  0.87567641  1
  O  O311  1  0.74285581  0.24375076  0.38136049  1
  O  O312  1  0.74193736  0.24423081  0.88014874  1
  O  O313  1  0.75436364  0.73954733  0.38762968  1
  O  O314  1  0.74576178  0.74868963  0.88019497  1
  O  O315  1  0.00757339  0.13065464  0.01092711  1
  O  O316  1  0.00061676  0.12250382  0.50630393  1
  O  O317  1  0.00503359  0.62065644  0.01389424  1
  O  O318  1  -0.00293661  0.61726431  0.50665819  1
  O  O319  1  0.50648625  0.13024840  0.01883722  1
  O  O320  1  0.51205366  0.13115203  0.50336927  1
  O  O321  1  0.49596558  0.61051867  -0.00313154  1
  O  O322  1  0.50559762  0.62049160  0.50389036  1
  O  O323  1  0.49277987  0.37761726  0.49608779  1
  O  O324  1  0.48912970  0.37953481  0.99754585  1
  O  O325  1  0.48522402  0.87906804  0.50220154  1
  O  O326  1  0.50756923  0.86902602  0.98831105  1
  O  O327  1  0.99293978  0.37935240  0.49335872  1
  O  O328  1  0.99377453  0.38160489  0.99942022  1
  O  O329  1  0.99115407  0.87809601  0.48944484  1
  O  O330  1  0.99454838  0.87394648  0.98749934  1
  O  O331  1  0.49321323  0.49288333  0.38445088  1
  O  O332  1  0.48939225  0.49129030  0.88317098  1
  O  O333  1  0.51195224  0.97576051  0.37772632  1
  O  O334  1  0.50588344  0.98194846  0.86974397  1
  O  O335  1  0.99395352  0.49178636  0.38304615  1
  O  O336  1  0.99237035  0.49492239  0.88878275  1
  O  O337  1  0.99083814  0.99459221  0.37498031  1
  O  O338  1  0.99178967  0.99378491  0.86709050  1
  O  O339  1  0.00632051  0.01231320  0.13081570  1
  O  O340  1  0.00403866  0.00655988  0.62455445  1
  O  O341  1  0.00062254  0.49863697  0.11527913  1
  O  O342  1  -0.00207533  0.50910347  0.62059569  1
  O  O343  1  0.50908166  0.00543295  0.12251153  1
  O  O344  1  0.51158816  0.01319929  0.64875109  1
  O  O345  1  0.49681734  0.50419543  0.11232576  1
  O  O346  1  0.50361660  0.50776577  0.62042453  1
  O  O347  1  0.25115323  0.37162935  0.24339159  1
  O  O348  1  0.24282768  0.37772062  0.74514095  1
  O  O349  1  0.24879411  0.88659576  0.24191303  1
  O  O350  1  0.24452591  0.88282395  0.74415514  1
  O  O351  1  0.74051117  0.37163641  0.24054315  1
  O  O352  1  0.74611367  0.38580527  0.74399481  1
  O  O353  1  0.74408506  0.87301223  0.24020082  1
  O  O354  1  0.74618469  0.88091949  0.74291825  1
  O  O355  1  0.25011809  0.11424626  0.25730384  1
  O  O356  1  0.24813194  0.12012392  0.76059692  1
  O  O357  1  0.25966150  0.62663988  0.26374622  1
  O  O358  1  0.26369029  0.62159778  0.74442906  1
  O  O359  1  0.74831492  0.12443551  0.26391262  1
  O  O360  1  0.75148503  0.11695281  0.75629970  1
  O  O361  1  0.76005548  0.62764140  0.25707664  1
  O  O362  1  0.75258336  0.60960176  0.74376263  1
  O  O363  1  0.35367312  0.12210743  0.38148200  1
  O  O364  1  0.36295250  0.12711959  0.88335229  1
  O  O365  1  0.37098099  0.61986099  0.37098255  1
  O  O366  1  0.37987271  0.62105687  0.86299044  1
  O  O367  1  0.86542832  0.11755531  0.37627374  1
  O  O368  1  0.86479738  0.11958242  0.87381412  1
  O  O369  1  0.86778867  0.62117866  0.36622436  1
  O  O370  1  0.88379426  0.61277162  0.87612512  1
  O  O371  1  0.14113951  0.37344029  0.12045034  1
  O  O372  1  0.12919398  0.37792178  0.63749179  1
  O  O373  1  0.13046309  0.88434172  0.12725500  1
  O  O374  1  0.12841406  0.88113740  0.62960483  1
  O  O375  1  0.63174530  0.36631951  0.13659660  1
  O  O376  1  0.62914871  0.38177815  0.62487480  1
  O  O377  1  0.63200324  0.87535270  0.13060063  1
  O  O378  1  0.63161555  0.87240803  0.62921344  1
  O  O379  1  0.11015458  0.24869103  0.24312527  1
  O  O380  1  0.12001392  0.26711502  0.76422770  1
  O  O381  1  0.13211008  0.75276917  0.26424599  1
  O  O382  1  0.12072100  0.75543451  0.75617199  1
  O  O383  1  0.62528381  0.25352149  0.26405308  1
  O  O384  1  0.61698438  0.25309056  0.76286075  1
  O  O385  1  0.63170409  0.76295572  0.24732146  1
  O  O386  1  0.63749804  0.75798675  0.76091454  1
  O  O387  1  0.37665544  0.24962701  0.23878276  1
  O  O388  1  0.38227918  0.25450857  0.75512805  1
  O  O389  1  0.37131277  0.73979732  0.24434509  1
  O  O390  1  0.37053507  0.73714445  0.74702450  1
  O  O391  1  0.87516006  0.24663882  0.23824431  1
  O  O392  1  0.87333696  0.25193091  0.73809846  1
  O  O393  1  0.87706848  0.73389868  0.25557887  1
  O  O394  1  0.88214771  0.74959513  0.74452772  1
  O  O395  1  0.37910204  0.49219713  0.49042724  1
  O  O396  1  0.38057781  0.49372646  0.99679665  1
  O  O397  1  0.36669803  0.98700459  0.49583492  1
  O  O398  1  0.36342325  0.98865411  0.98861433  1
  O  O399  1  0.88109109  0.48749444  0.50271736  1
  O  O400  1  0.87971395  0.49500803  0.99658401  1
  O  O401  1  0.87266313  0.99342150  0.48835807  1
  O  O402  1  0.87075196  0.99367392  0.98587757  1
  O  O403  1  0.13041307  0.01219668  0.01128797  1
  O  O404  1  0.12442230  -0.00220484  0.51315168  1
  O  O405  1  0.11589699  0.50796519  0.00475024  1
  O  O406  1  0.10794150  0.50224255  0.50533728  1
  O  O407  1  0.63053787  -0.00902180  0.01470570  1
  O  O408  1  0.63077486  0.01573247  0.50111420  1
  O  O409  1  0.60748439  0.49483010  -0.00512155  1
  O  O410  1  0.61869573  0.50959892  0.50627432  1
  O  O411  1  0.36766336  0.36897761  0.12385559  1
  O  O412  1  0.36808037  0.38248756  0.61591075  1
  O  O413  1  0.36857617  0.86668053  0.12518725  1
  O  O414  1  0.36883196  0.87569202  0.61412259  1
  O  O415  1  0.86510658  0.36654808  0.12184036  1
  O  O416  1  0.87128782  0.36866121  0.61890464  1
  O  O417  1  0.87017142  0.88531536  0.11055743  1
  O  O418  1  0.86970154  0.87047606  0.61907207  1
  O  O419  1  0.14140071  0.11562825  0.37557921  1
  O  O420  1  0.12755434  0.13122419  0.88256160  1
  O  O421  1  0.13127147  0.63231049  0.37845948  1
  O  O422  1  0.11665260  0.63501302  0.88705983  1
  O  O423  1  0.62781213  0.12909751  0.38299287  1
  O  O424  1  0.63530695  0.12975300  0.86971644  1
  O  O425  1  0.63308300  0.62257785  0.38520826  1
  O  O426  1  0.62162536  0.63760797  0.86561248  1
