# generated using pymatgen
data_V85Zn86O256
_symmetry_space_group_name_H-M   'P 1'
_cell_length_a   16.91316170
_cell_length_b   16.90791490
_cell_length_c   16.91139119
_cell_angle_alpha   89.95619873
_cell_angle_beta   89.99969513
_cell_angle_gamma   89.99539594
_symmetry_Int_Tables_number   1
_chemical_formula_structural   V85Zn86O256
_chemical_formula_sum   'V85 Zn86 O256'
_cell_volume   4836.08651598
_cell_formula_units_Z   1
loop_
 _symmetry_equiv_pos_site_id
 _symmetry_equiv_pos_as_xyz
  1  'x, y, z'
loop_
 _atom_site_type_symbol
 _atom_site_label
 _atom_site_symmetry_multiplicity
 _atom_site_fract_x
 _atom_site_fract_y
 _atom_site_fract_z
 _atom_site_occupancy
  V  V0  1  0.12301582  0.12506062  0.50250420  1
  V  V1  1  0.74944707  -0.00164357  0.25179318  1
  V  V2  1  0.00401360  0.87832932  0.87175043  1
  V  V3  1  0.62839945  0.62767651  0.49612620  1
  V  V4  1  0.37502288  0.12715514  0.24746991  1
  V  V5  1  0.24941475  -0.00705098  0.75043188  1
  V  V6  1  0.24853609  0.12612968  0.37593319  1
  V  V7  1  0.87012241  0.12937205  0.24526896  1
  V  V8  1  0.00567959  0.62226341  0.12560297  1
  V  V9  1  0.74703524  0.25774841  0.50418127  1
  V  V10  1  0.87372198  0.37475153  0.01666841  1
  V  V11  1  0.87613869  0.49983625  0.37633564  1
  V  V12  1  0.50235465  0.62711861  0.12448343  1
  V  V13  1  0.00347918  0.49802297  0.50390044  1
  V  V14  1  0.25009805  0.25169286  0.50078421  1
  V  V15  1  0.75085387  -0.00620615  0.75912207  1
  V  V16  1  -0.00485587  0.25170312  0.24728752  1
  V  V17  1  0.38423026  0.63077087  0.74834543  1
  V  V18  1  -0.01103245  -0.00218418  0.50393787  1
  V  V19  1  0.50455467  0.49867833  -0.00263444  1
  V  V20  1  0.50817336  0.49779159  0.49731723  1
  V  V21  1  0.62587862  0.12697620  -0.00005720  1
  V  V22  1  0.86931132  0.87424269  -0.00770031  1
  V  V23  1  0.87619352  0.62578330  0.75029439  1
  V  V24  1  0.37435881  0.62668791  0.24951670  1
  V  V25  1  0.63014349  0.25971103  0.87545009  1
  V  V26  1  0.25771193  0.24595701  0.00697393  1
  V  V27  1  0.62607391  0.87071227  0.25822597  1
  V  V28  1  0.38640067  0.75554989  0.61916580  1
  V  V29  1  -0.00022858  0.36737658  0.87349779  1
  V  V30  1  0.62520806  0.75406775  0.85250893  1
  V  V31  1  0.87410012  0.74726247  0.12002907  1
  V  V32  1  0.12619532  0.74924351  0.37693182  1
  V  V33  1  0.63077990  0.48611083  0.62492890  1
  V  V34  1  0.12414621  0.87473678  0.24821618  1
  V  V35  1  0.12035745  0.12677987  -0.00089636  1
  V  V36  1  0.49281773  -0.00419682  0.50077209  1
  V  V37  1  0.13158207  0.63519507  0.00190120  1
  V  V38  1  -0.00123339  0.13269092  0.63083847  1
  V  V39  1  0.87521570  0.49891644  0.87702789  1
  V  V40  1  0.74716156  0.86730056  0.12023978  1
  V  V41  1  0.37607479  0.12101749  0.75421299  1
  V  V42  1  0.11876072  -0.00344779  0.12488218  1
  V  V43  1  0.24967003  0.87333229  0.61516295  1
  V  V44  1  0.62847852  0.63776692  0.00041875  1
  V  V45  1  0.12577952  0.37600981  0.24560589  1
  V  V46  1  0.50347526  0.74991553  0.25322059  1
  V  V47  1  0.62991515  0.49026287  0.13061552  1
  V  V48  1  0.61844381  0.26254225  0.37382431  1
  V  V49  1  0.49998127  0.26086251  0.24900818  1
  V  V50  1  0.01024085  0.75329150  0.75066797  1
  V  V51  1  0.24712345  0.50018178  0.24154568  1
  V  V52  1  0.36378863  0.75951698  0.11988683  1
  V  V53  1  0.62550458  -0.01121540  0.62924026  1
  V  V54  1  0.12106401  0.37667948  0.74597623  1
  V  V55  1  0.49796659  0.87335530  0.85981830  1
  V  V56  1  0.62240624  -0.00202737  0.12441971  1
  V  V57  1  0.75149152  0.62910975  0.37147311  1
  V  V58  1  0.87758197  0.75766016  0.62085306  1
  V  V59  1  0.50580064  0.25757301  0.75123481  1
  V  V60  1  -0.00674163  0.87480727  0.38008253  1
  V  V61  1  0.87509907  0.12574653  0.75869775  1
  V  V62  1  0.25026988  0.12267665  0.87288547  1
  V  V63  1  0.24739826  -0.00050932  0.24792212  1
  V  V64  1  0.75244293  0.75837504  0.49604432  1
  V  V65  1  0.87043939  0.25563186  0.63034042  1
  V  V66  1  -0.00998674  0.00142689  -0.00378825  1
  V  V67  1  0.49530774  -0.00473827  -0.00679124  1
  V  V68  1  0.12988844  0.62103676  0.50431386  1
  V  V69  1  0.50335560  0.12405607  0.62578055  1
  V  V70  1  0.75238602  0.25519729  0.01682778  1
  V  V71  1  0.38099874  0.49572072  0.37060617  1
  V  V72  1  0.00562694  0.62030759  0.62876610  1
  V  V73  1  0.37547648  0.25173783  0.62640652  1
  V  V74  1  0.74817497  0.48716688  0.74738552  1
  V  V75  1  0.74507243  0.12533322  0.37790236  1
  V  V76  1  0.24790632  0.38690943  0.62503886  1
  V  V77  1  0.01159859  0.49862517  0.00066569  1
  V  V78  1  0.25315012  0.63520581  0.87663859  1
  V  V79  1  0.37436925  0.49915241  0.87369128  1
  V  V80  1  0.49145262  0.87210762  0.37789671  1
  V  V81  1  0.48817837  0.12560048  0.12305478  1
  V  V82  1  0.37968102  0.37515537  0.49547744  1
  V  V83  1  0.75085109  0.62969642  0.87663044  1
  V  V84  1  0.12217548  -0.00550223  0.62988926  1
  Zn  Zn85  1  0.13247207  0.75685703  0.87390832  1
  Zn  Zn86  1  0.25261234  0.37432206  0.12290386  1
  Zn  Zn87  1  0.62401412  0.12298809  0.50010718  1
  Zn  Zn88  1  0.86933267  -0.00394289  0.37991597  1
  Zn  Zn89  1  0.75735922  0.47695215  0.23686709  1
  Zn  Zn90  1  0.36386340  0.86799545  -0.01152985  1
  Zn  Zn91  1  0.50758671  0.62686122  0.62819955  1
  Zn  Zn92  1  0.12278872  0.24896426  0.86930270  1
  Zn  Zn93  1  0.25581675  0.75175595  0.49760844  1
  Zn  Zn94  1  -0.00091024  0.74806740  0.25010331  1
  Zn  Zn95  1  0.50197464  0.37730005  0.87119621  1
  Zn  Zn96  1  0.37789529  0.36949616  0.00050035  1
  Zn  Zn97  1  0.00213456  0.37334567  0.37775538  1
  Zn  Zn98  1  0.25096029  0.62443457  0.37614238  1
  Zn  Zn99  1  0.75243439  0.87548348  0.62501190  1
  Zn  Zn100  1  0.87509692  0.62291036  0.24728159  1
  Zn  Zn101  1  -0.00887268  0.12919085  0.12384646  1
  Zn  Zn102  1  0.75437066  0.12324970  0.88028396  1
  Zn  Zn103  1  0.87045979  0.37827686  0.50553364  1
  Zn  Zn104  1  0.36937886  -0.00514137  0.38027145  1
  Zn  Zn105  1  0.12252982  0.25173493  0.37529184  1
  Zn  Zn106  1  0.24745242  0.50344762  0.74899676  1
  Zn  Zn107  1  0.18055654  0.18531104  0.18664305  1
  Zn  Zn108  1  0.18619979  0.19221552  0.68830631  1
  Zn  Zn109  1  0.18688429  0.68681690  0.18809148  1
  Zn  Zn110  1  0.19348674  0.68700727  0.68723148  1
  Zn  Zn111  1  0.67951848  0.18783356  0.18992974  1
  Zn  Zn112  1  0.68901437  0.18474062  0.69045215  1
  Zn  Zn113  1  0.68746713  0.68575992  0.18861292  1
  Zn  Zn114  1  0.69288481  0.67941538  0.68072823  1
  Zn  Zn115  1  0.31401878  0.31178938  0.31029684  1
  Zn  Zn116  1  0.31099211  0.31127646  0.81387965  1
  Zn  Zn117  1  0.30963225  0.81277160  0.30833243  1
  Zn  Zn118  1  0.31711408  0.81232292  0.80397060  1
  Zn  Zn119  1  0.81394308  0.31329193  0.31559834  1
  Zn  Zn120  1  0.81457877  0.30926501  0.82016168  1
  Zn  Zn121  1  0.81457513  0.80881564  0.30921425  1
  Zn  Zn122  1  0.81487033  0.81050601  0.81100307  1
  Zn  Zn123  1  0.19045793  0.43897171  0.43073605  1
  Zn  Zn124  1  0.18919549  0.43718413  0.93403600  1
  Zn  Zn125  1  0.18061635  0.93951998  0.43816481  1
  Zn  Zn126  1  0.18479298  0.93706015  0.93686080  1
  Zn  Zn127  1  0.69748874  0.42413500  0.40288707  1
  Zn  Zn128  1  0.69031360  0.43951697  0.94158790  1
  Zn  Zn129  1  0.68055007  0.93792209  0.43974061  1
  Zn  Zn130  1  0.68196873  0.93421812  0.93567950  1
  Zn  Zn131  1  0.29491364  0.02735243  0.04482910  1
  Zn  Zn132  1  0.31353206  0.06285628  0.56533573  1
  Zn  Zn133  1  0.31544519  0.56458693  0.06088107  1
  Zn  Zn134  1  0.31856461  0.56618023  0.56022481  1
  Zn  Zn135  1  0.80856455  0.05939425  0.06466541  1
  Zn  Zn136  1  0.81002650  0.06752395  0.56766426  1
  Zn  Zn137  1  0.81284810  0.56101670  0.05968483  1
  Zn  Zn138  1  0.81343420  0.56543343  0.56289446  1
  Zn  Zn139  1  0.43337956  0.43735081  0.17733802  1
  Zn  Zn140  1  0.43846609  0.44106100  0.68414926  1
  Zn  Zn141  1  0.43615696  0.93935512  0.18780017  1
  Zn  Zn142  1  0.43398402  0.93700503  0.68622378  1
  Zn  Zn143  1  0.94350283  0.44205153  0.19041487  1
  Zn  Zn144  1  0.93715747  0.43790476  0.68997747  1
  Zn  Zn145  1  0.93450096  0.93765524  0.18812335  1
  Zn  Zn146  1  0.93459890  0.93925105  0.69157113  1
  Zn  Zn147  1  0.05747120  0.06436908  0.31495827  1
  Zn  Zn148  1  0.06131694  0.06139584  0.81270901  1
  Zn  Zn149  1  0.06348749  0.56223291  0.31322614  1
  Zn  Zn150  1  0.06751188  0.55931941  0.81523292  1
  Zn  Zn151  1  0.56119757  0.06121472  0.31350166  1
  Zn  Zn152  1  0.56686393  0.06259024  0.81312138  1
  Zn  Zn153  1  0.56438958  0.56149648  0.31342115  1
  Zn  Zn154  1  0.56660122  0.56197944  0.81049538  1
  Zn  Zn155  1  0.43641707  0.18492843  0.43553340  1
  Zn  Zn156  1  0.43877001  0.18338452  0.93332057  1
  Zn  Zn157  1  0.44034715  0.68531194  0.43735236  1
  Zn  Zn158  1  0.44194183  0.69071683  0.93626558  1
  Zn  Zn159  1  0.93292470  0.18789980  0.43610614  1
  Zn  Zn160  1  0.93275215  0.19176118  0.94138404  1
  Zn  Zn161  1  0.93867348  0.68599670  0.43948941  1
  Zn  Zn162  1  0.94034101  0.68952426  0.93862060  1
  Zn  Zn163  1  0.06434632  0.31169085  0.06653334  1
  Zn  Zn164  1  0.06436501  0.31192315  0.56621629  1
  Zn  Zn165  1  0.06009957  0.81276768  0.06092842  1
  Zn  Zn166  1  0.06446352  0.81173029  0.56264696  1
  Zn  Zn167  1  0.55967951  0.31150485  0.06485729  1
  Zn  Zn168  1  0.56392457  0.31140113  0.55920955  1
  Zn  Zn169  1  0.55616876  0.81392597  0.06252788  1
  Zn  Zn170  1  0.56613765  0.81127639  0.55836033  1
  O  O171  1  0.11676930  0.11434055  0.11790771  1
  O  O172  1  0.11664442  0.12105373  0.62239101  1
  O  O173  1  0.11808156  0.62936309  0.11614267  1
  O  O174  1  0.11833804  0.62910311  0.61759006  1
  O  O175  1  0.61596936  0.11873924  0.11613146  1
  O  O176  1  0.61249289  0.11755617  0.62730709  1
  O  O177  1  0.62064435  0.62257315  0.11625330  1
  O  O178  1  0.62684837  0.61472481  0.61098395  1
  O  O179  1  0.37207539  0.38220810  0.38392480  1
  O  O180  1  0.37638811  0.38430207  0.87984039  1
  O  O181  1  0.38633955  0.87712906  0.36722915  1
  O  O182  1  0.39248140  0.86576730  0.87324801  1
  O  O183  1  0.88272600  0.38539018  0.38496175  1
  O  O184  1  0.88403289  0.38095718  0.88303949  1
  O  O185  1  0.88920380  0.87508702  0.36965925  1
  O  O186  1  0.88200327  0.86828205  0.88738181  1
  O  O187  1  0.24689750  0.00629250  0.36629511  1
  O  O188  1  0.24014446  0.01294993  0.86174686  1
  O  O189  1  0.26550140  0.50252849  0.36530663  1
  O  O190  1  0.26050512  0.51067069  0.87539566  1
  O  O191  1  0.74773567  0.00501167  0.37121819  1
  O  O192  1  0.74435707  0.00197641  0.86325636  1
  O  O193  1  0.76759303  0.51487778  0.38945386  1
  O  O194  1  0.75442251  0.50863536  0.86899707  1
  O  O195  1  0.25472866  0.50339916  0.13824415  1
  O  O196  1  0.25821206  0.48968526  0.62465912  1
  O  O197  1  0.23469955  1.01172487  0.14260496  1
  O  O198  1  0.24224396  0.99530052  0.62911277  1
  O  O199  1  0.73648999  0.50448554  0.12526653  1
  O  O200  1  0.74481326  0.50377646  0.63403475  1
  O  O201  1  0.74302694  0.98743169  0.13180426  1
  O  O202  1  0.74133935  0.99841993  0.63115072  1
  O  O203  1  0.00757397  0.36978888  0.25246928  1
  O  O204  1  0.00711783  0.38034908  0.76097863  1
  O  O205  1  0.00964985  0.87548841  0.25733757  1
  O  O206  1  -0.00628254  0.86755157  0.76001051  1
  O  O207  1  0.49009889  0.35899238  0.24599838  1
  O  O208  1  0.49482688  0.36078847  0.74846027  1
  O  O209  1  0.50636936  0.86956732  0.25443519  1
  O  O210  1  0.50077062  0.87972575  0.76074637  1
  O  O211  1  0.49084483  0.12299978  0.24226534  1
  O  O212  1  0.49305255  0.12896874  0.74583740  1
  O  O213  1  0.49480375  0.63253843  0.24733249  1
  O  O214  1  0.48880494  0.62150594  0.74861508  1
  O  O215  1  0.98762796  0.13135433  0.25175580  1
  O  O216  1  0.99024056  0.11791502  0.74100161  1
  O  O217  1  0.99995827  0.62587907  0.23938509  1
  O  O218  1  0.99805201  0.62936566  0.74567218  1
  O  O219  1  0.36044552  0.24443164  -0.00558077  1
  O  O220  1  0.37224610  0.25766580  0.50366264  1
  O  O221  1  0.37956654  0.75029536  0.01495085  1
  O  O222  1  0.37375083  0.74293672  0.51375284  1
  O  O223  1  0.86549759  0.26073946  0.00296895  1
  O  O224  1  0.86485171  0.24977316  0.50889755  1
  O  O225  1  0.87825798  0.75881720  0.01057938  1
  O  O226  1  0.86726201  0.74399152  0.50945585  1
  O  O227  1  0.13172322  0.24288227  0.49922867  1
  O  O228  1  0.12946901  0.23631867  1.00010246  1
  O  O229  1  0.12679342  0.73966091  0.49333247  1
  O  O230  1  0.12206051  0.73959724  0.99590621  1
  O  O231  1  0.62909611  0.24245921  0.49475898  1
  O  O232  1  0.62944214  0.24474026  0.99600397  1
  O  O233  1  0.63672315  0.73890480  0.50349572  1
  O  O234  1  0.62117896  0.73966213  0.99819456  1
  O  O235  1  0.50465538  0.23930205  0.13805162  1
  O  O236  1  0.49799103  0.24183005  0.63146531  1
  O  O237  1  0.49324907  0.74543116  0.13617642  1
  O  O238  1  0.49030343  0.74919542  0.62096385  1
  O  O239  1  1.00229544  0.24724793  0.14086752  1
  O  O240  1  0.99200239  0.23793280  0.62021925  1
  O  O241  1  0.99297753  0.73944798  0.12348780  1
  O  O242  1  0.99654918  0.74226530  0.63025569  1
  O  O243  1  0.00117839  0.25021919  0.36549738  1
  O  O244  1  0.00094691  0.26382909  0.88116998  1
  O  O245  1  0.00960655  0.75622080  0.37563166  1
  O  O246  1  0.00195207  0.75738883  0.86625795  1
  O  O247  1  0.50549609  0.23719109  0.35951037  1
  O  O248  1  0.50785576  0.25177001  0.86767799  1
  O  O249  1  0.49531978  0.75609705  0.36261037  1
  O  O250  1  0.51452108  0.75971937  0.87456598  1
  O  O251  1  0.24604742  0.12858990  0.49454282  1
  O  O252  1  0.24160196  0.12564207  0.99180038  1
  O  O253  1  0.24337605  0.62662538  0.49717645  1
  O  O254  1  0.24236180  0.62134023  0.99165613  1
  O  O255  1  0.74745322  0.13129419  0.49261145  1
  O  O256  1  0.74293144  0.13114801  1.00174582  1
  O  O257  1  0.74624438  0.63442589  0.49341681  1
  O  O258  1  0.74351695  0.62102776  0.98515862  1
  O  O259  1  0.24425492  0.35431933  -0.00285843  1
  O  O260  1  0.25837461  0.37312611  0.50551612  1
  O  O261  1  0.26593734  0.91943720  0.00874149  1
  O  O262  1  0.24696910  0.87710940  0.51071196  1
  O  O263  1  0.76152340  0.36822771  -0.00212451  1
  O  O264  1  0.74849691  0.36086654  0.49384731  1
  O  O265  1  0.75668694  0.88127341  0.00804567  1
  O  O266  1  0.74490931  0.86273556  0.50000021  1
  O  O267  1  0.13619671  0.49218797  0.25687363  1
  O  O268  1  0.13091313  0.48512676  0.75498126  1
  O  O269  1  0.12522522  0.99602755  0.24481830  1
  O  O270  1  0.13313474  1.00698225  0.73700283  1
  O  O271  1  0.62381862  0.50552859  0.23292548  1
  O  O272  1  0.63586583  0.50454573  0.73877486  1
  O  O273  1  0.62871889  0.99147383  0.24378585  1
  O  O274  1  0.64021876  1.00644735  0.74252782  1
  O  O275  1  0.36431599  0.00886933  0.25098496  1
  O  O276  1  0.36457861  0.01229291  0.74131721  1
  O  O277  1  0.37432401  0.50786927  0.25403529  1
  O  O278  1  0.37613188  0.50624428  0.76072013  1
  O  O279  1  0.86535073  0.00575034  0.25437685  1
  O  O280  1  0.85998541  0.01001289  0.74387732  1
  O  O281  1  0.87220615  0.50178114  0.26001352  1
  O  O282  1  0.87023057  0.50745176  0.75690017  1
  O  O283  1  0.12346589  0.37268561  0.36408631  1
  O  O284  1  0.11645591  0.37338789  0.86992852  1
  O  O285  1  0.11542238  0.86951540  0.36938912  1
  O  O286  1  0.11108454  0.87328966  0.87934180  1
  O  O287  1  0.60299787  0.35929731  0.39154650  1
  O  O288  1  0.62435647  0.36351561  0.88004191  1
  O  O289  1  0.61430986  0.87856595  0.36255006  1
  O  O290  1  0.61988163  0.85937656  0.87361553  1
  O  O291  1  0.38483460  0.11719242  0.13104802  1
  O  O292  1  0.38511520  0.13121691  0.63124850  1
  O  O293  1  0.38206230  0.63149260  0.13434076  1
  O  O294  1  0.37926274  0.63460615  0.63125880  1
  O  O295  1  0.87095126  0.12066738  0.14064524  1
  O  O296  1  0.88149259  0.13338253  0.63397631  1
  O  O297  1  0.88064599  0.63203118  0.12259326  1
  O  O298  1  0.88509496  0.63361945  0.63125349  1
  O  O299  1  0.24702435  0.24127650  0.10884263  1
  O  O300  1  0.25758134  0.25657744  0.61786888  1
  O  O301  1  0.26521287  0.74839499  0.12967565  1
  O  O302  1  0.25770778  0.75915652  0.62218182  1
  O  O303  1  0.74074791  0.25021456  0.11610761  1
  O  O304  1  0.75685665  0.24270072  0.61661294  1
  O  O305  1  0.75559696  0.76023821  0.12745794  1
  O  O306  1  0.76045240  0.75120988  0.61811305  1
  O  O307  1  0.24989668  0.24169563  0.38200618  1
  O  O308  1  0.24640095  0.23695369  0.88195037  1
  O  O309  1  0.23847848  0.75125395  0.37682851  1
  O  O310  1  0.25199793  0.74077161  0.86942498  1
  O  O311  1  0.73858273  0.24142200  0.38300051  1
  O  O312  1  0.74276031  0.24510794  0.88581597  1
  O  O313  1  0.75701069  0.74210580  0.38276380  1
  O  O314  1  0.73725098  0.74409173  0.86900546  1
  O  O315  1  0.00223575  0.11940264  0.00050312  1
  O  O316  1  0.00310604  0.11781986  0.50742123  1
  O  O317  1  0.00929213  0.61846002  0.00358306  1
  O  O318  1  0.00778103  0.61748796  0.50921699  1
  O  O319  1  0.50786334  0.12330270  0.00616314  1
  O  O320  1  0.49926742  0.11773819  0.50958045  1
  O  O321  1  0.50919092  0.61758958  0.00209538  1
  O  O322  1  0.51061032  0.61634462  0.49921289  1
  O  O323  1  0.48655565  0.38208513  0.50743868  1
  O  O324  1  0.50107918  0.38810217  0.99761580  1
  O  O325  1  0.50542261  0.88081954  0.48872957  1
  O  O326  1  0.49581838  0.88218758  0.99145169  1
  O  O327  1  1.00584947  0.39011444  0.50324083  1
  O  O328  1  0.99738743  0.38187060  0.99761072  1
  O  O329  1  1.00660262  0.88491474  0.49274403  1
  O  O330  1  0.99116365  0.88264503  0.99427913  1
  O  O331  1  0.48992237  0.50253671  0.38080880  1
  O  O332  1  0.49725958  0.49898963  0.88044627  1
  O  O333  1  0.49725956  0.99258447  0.38370347  1
  O  O334  1  0.51428045  0.98295367  0.87975247  1
  O  O335  1  0.99110172  0.50395469  0.38539778  1
  O  O336  1  0.99495224  0.49378396  0.88378359  1
  O  O337  1  0.99825035  0.99360289  0.38684806  1
  O  O338  1  1.00071641  0.99252892  0.88404891  1
  O  O339  1  0.00253696  0.00256497  0.11706507  1
  O  O340  1  0.00512569  0.00514620  0.62185575  1
  O  O341  1  -0.00279955  0.51356334  0.11543657  1
  O  O342  1  -0.00326401  0.51265503  0.62088898  1
  O  O343  1  0.50506447  0.00468831  0.11721093  1
  O  O344  1  0.50488845  0.00447778  0.62181432  1
  O  O345  1  0.50863421  0.50817367  0.11689517  1
  O  O346  1  0.50864039  0.50319563  0.61536472  1
  O  O347  1  0.24517151  0.38173691  0.24924988  1
  O  O348  1  0.24711633  0.37748626  0.74067311  1
  O  O349  1  0.23431941  0.88493445  0.25502572  1
  O  O350  1  0.25515270  0.88824795  0.73989924  1
  O  O351  1  0.73181492  0.38526987  0.29568392  1
  O  O352  1  0.75700771  0.38836811  0.75774864  1
  O  O353  1  0.74223297  0.87697920  0.24497566  1
  O  O354  1  0.75767726  0.88964958  0.74775309  1
  O  O355  1  0.25399819  0.12277069  0.25777037  1
  O  O356  1  0.25643838  0.12079878  0.75342835  1
  O  O357  1  0.25801400  0.61943157  0.25294423  1
  O  O358  1  0.26170394  0.62227911  0.75695788  1
  O  O359  1  0.75114618  0.12051487  0.25628800  1
  O  O360  1  0.75793683  0.11497662  0.75411562  1
  O  O361  1  0.75060355  0.62487445  0.26356941  1
  O  O362  1  0.75750796  0.61929243  0.75985180  1
  O  O363  1  0.36279478  0.11913626  0.36927790  1
  O  O364  1  0.36640413  0.12596761  0.86346389  1
  O  O365  1  0.37568645  0.62004459  0.36278661  1
  O  O366  1  0.37202171  0.62365248  0.86850268  1
  O  O367  1  0.85985307  0.12241486  0.36723211  1
  O  O368  1  0.87619318  0.12886512  0.86324837  1
  O  O369  1  0.87086348  0.62087857  0.37181044  1
  O  O370  1  0.86875047  0.62219766  0.87235430  1
  O  O371  1  0.13205471  0.37190792  0.13908704  1
  O  O372  1  0.13574194  0.37340355  0.63163149  1
  O  O373  1  0.11710162  0.88690167  0.13183831  1
  O  O374  1  0.13270080  0.88392690  0.62416759  1
  O  O375  1  0.62221649  0.39174154  0.12043920  1
  O  O376  1  0.62427272  0.38641233  0.62125516  1
  O  O377  1  0.63030924  0.87677146  0.13135009  1
  O  O378  1  0.62582993  0.88561466  0.62519213  1
  O  O379  1  0.11761166  0.25579992  0.25355598  1
  O  O380  1  0.12941526  0.26711672  0.75254647  1
  O  O381  1  0.12293069  0.75822965  0.25656967  1
  O  O382  1  0.11339897  0.74622863  0.74993296  1
  O  O383  1  0.60910919  0.24808164  0.25795294  1
  O  O384  1  0.61724103  0.24133728  0.76166832  1
  O  O385  1  0.61546487  0.75811608  0.24538439  1
  O  O386  1  0.62632492  0.74439674  0.75426903  1
  O  O387  1  0.38397892  0.23535820  0.25471370  1
  O  O388  1  0.38173667  0.24103993  0.74574431  1
  O  O389  1  0.37994044  0.74353016  0.24294788  1
  O  O390  1  0.37365826  0.74208136  0.73265435  1
  O  O391  1  0.88025618  0.24239775  0.25625777  1
  O  O392  1  0.86652497  0.23995059  0.74260433  1
  O  O393  1  0.87924682  0.74886129  0.23414832  1
  O  O394  1  0.88533905  0.74312327  0.74359951  1
  O  O395  1  0.38490355  0.49551103  0.49176510  1
  O  O396  1  0.38663179  0.50656015  0.98728070  1
  O  O397  1  0.38773893  1.00128694  0.50177665  1
  O  O398  1  0.39611394  1.01273848  0.99270083  1
  O  O399  1  0.88626746  0.50077232  0.49806494  1
  O  O400  1  0.88419865  0.49453993  0.99403738  1
  O  O401  1  0.88527681  1.00416182  0.50266463  1
  O  O402  1  0.88262788  0.99245492  1.00454971  1
  O  O403  1  0.11236827  0.00921350  0.00688670  1
  O  O404  1  0.11649020  0.00729060  0.51182207  1
  O  O405  1  0.11555112  0.50737759  -0.00543704  1
  O  O406  1  0.12057736  0.51298350  0.49239489  1
  O  O407  1  0.61900323  0.00737905  0.00476083  1
  O  O408  1  0.61327803  0.00307301  0.51021323  1
  O  O409  1  0.62051584  0.51061010  0.00551485  1
  O  O410  1  0.61715209  0.50159691  0.50160113  1
  O  O411  1  0.36619012  0.37807552  0.11270306  1
  O  O412  1  0.36844419  0.37027514  0.61826769  1
  O  O413  1  0.37820838  0.86136049  0.12678776  1
  O  O414  1  0.36912378  0.86261103  0.62578613  1
  O  O415  1  0.87717169  0.38396438  0.11609830  1
  O  O416  1  0.88190093  0.36025079  0.62453114  1
  O  O417  1  0.86728944  0.86900014  0.11667920  1
  O  O418  1  0.87747499  0.86154132  0.62634366  1
  O  O419  1  0.13510885  0.12440363  0.38137487  1
  O  O420  1  0.12873920  0.12723957  0.88180114  1
  O  O421  1  0.12588260  0.63446125  0.38163251  1
  O  O422  1  0.13607706  0.62824410  0.88157554  1
  O  O423  1  0.63418852  0.12798913  0.37470169  1
  O  O424  1  0.62427388  0.13248267  0.88946102  1
  O  O425  1  0.63590611  0.61724235  0.38640862  1
  O  O426  1  0.63046162  0.63667678  0.87819082  1
