# generated using pymatgen
data_V85Zn86O256
_symmetry_space_group_name_H-M   'P 1'
_cell_length_a   16.93677438
_cell_length_b   16.95038468
_cell_length_c   16.93732226
_cell_angle_alpha   90.07354083
_cell_angle_beta   89.98396621
_cell_angle_gamma   90.02499970
_symmetry_Int_Tables_number   1
_chemical_formula_structural   V85Zn86O256
_chemical_formula_sum   'V85 Zn86 O256'
_cell_volume   4862.44380910
_cell_formula_units_Z   1
loop_
 _symmetry_equiv_pos_site_id
 _symmetry_equiv_pos_as_xyz
  1  'x, y, z'
loop_
 _atom_site_type_symbol
 _atom_site_label
 _atom_site_symmetry_multiplicity
 _atom_site_fract_x
 _atom_site_fract_y
 _atom_site_fract_z
 _atom_site_occupancy
  V  V0  1  0.87720730  0.51276570  0.36842072  1
  V  V1  1  0.12508242  0.24889651  0.37596073  1
  V  V2  1  0.63665642  0.13075007  0.49275735  1
  V  V3  1  0.74872808  0.00593877  0.24842279  1
  V  V4  1  0.37365138  0.74911075  0.12345178  1
  V  V5  1  0.93843279  0.42764103  -0.04568417  1
  V  V6  1  0.25326746  0.12142040  0.37051123  1
  V  V7  1  0.87152274  0.00282244  0.37146525  1
  V  V8  1  0.37311386  0.62306331  0.25086074  1
  V  V9  1  0.62429269  0.00171701  0.62480071  1
  V  V10  1  0.12708830  0.37816085  0.75686530  1
  V  V11  1  0.36842524  0.00385986  0.87696375  1
  V  V12  1  0.49885221  0.00281634  0.49995608  1
  V  V13  1  0.62762613  0.74511076  0.87098440  1
  V  V14  1  0.62713613  0.62163678  -0.00233992  1
  V  V15  1  0.00089740  -0.00087417  0.00111314  1
  V  V16  1  0.12578349  0.74652658  0.87734562  1
  V  V17  1  0.87295339  0.37215693  0.49528035  1
  V  V18  1  0.11303272  0.61744336  0.00053734  1
  V  V19  1  0.50873846  0.13447669  0.12326757  1
  V  V20  1  0.87415347  0.25178209  0.12168530  1
  V  V21  1  0.00116355  0.51307025  0.50158522  1
  V  V22  1  0.50053144  0.62170211  0.12368746  1
  V  V23  1  0.37674810  0.13896081  0.24019426  1
  V  V24  1  0.75245177  0.37929602  0.12086662  1
  V  V25  1  0.75803495  0.38092806  0.62910145  1
  V  V26  1  0.24821149  0.87316721  0.62135139  1
  V  V27  1  0.76176190  0.60899646  0.86038805  1
  V  V28  1  0.87557028  0.00127481  0.87700703  1
  V  V29  1  0.37661040  0.36912185  0.00398329  1
  V  V30  1  0.37857362  0.25243485  0.63058215  1
  V  V31  1  0.37148451  0.87501233  0.49852292  1
  V  V32  1  0.12708989  0.12424744  0.50101631  1
  V  V33  1  -0.00923209  0.62590744  0.14092945  1
  V  V34  1  -0.00032860  0.25606664  0.75789942  1
  V  V35  1  0.37044172  0.62003439  0.74989382  1
  V  V36  1  0.13187481  0.12171880  -0.00160008  1
  V  V37  1  0.37349287  0.00131895  0.36472884  1
  V  V38  1  0.86886545  0.25122807  0.62332143  1
  V  V39  1  0.25039564  0.25080488  0.50284266  1
  V  V40  1  -0.00613219  0.24387535  0.25310378  1
  V  V41  1  0.50176430  0.13052251  0.62966070  1
  V  V42  1  0.12688901  -0.00061286  0.13628957  1
  V  V43  1  0.74666552  0.74650489  0.49372936  1
  V  V44  1  0.50088310  0.75031069  0.24987850  1
  V  V45  1  0.24929201  0.50005295  0.25218317  1
  V  V46  1  0.74851945  0.51163479  0.25487614  1
  V  V47  1  0.62149298  0.88301680  0.24229243  1
  V  V48  1  0.75659053  0.74681609  -0.00122190  1
  V  V49  1  0.12327634  0.37299371  0.25014046  1
  V  V50  1  0.73919907  0.12522780  0.88194323  1
  V  V51  1  0.24972599  0.87637764  0.13766449  1
  V  V52  1  -0.00735197  0.12172843  0.12813684  1
  V  V53  1  0.74190311  0.24747352  -0.00113680  1
  V  V54  1  0.00063606  -0.00315238  0.49462899  1
  V  V55  1  0.24774491  0.61862372  0.87728035  1
  V  V56  1  0.12137534  0.74816153  0.38639681  1
  V  V57  1  0.00209112  0.12572005  0.62716250  1
  V  V58  1  0.63097297  0.50029594  0.62691545  1
  V  V59  1  0.37088042  0.74773255  0.61668263  1
  V  V60  1  -0.00012866  0.87416648  0.87465872  1
  V  V61  1  0.37067470  0.12660227  0.75327000  1
  V  V62  1  0.62241914  0.36711316  0.24880270  1
  V  V63  1  0.87664338  0.87228007  0.49731549  1
  V  V64  1  0.87538670  0.12759862  0.75322253  1
  V  V65  1  0.62770235  0.37013344  0.74901331  1
  V  V66  1  0.37225789  0.87555291  -0.00073954  1
  V  V67  1  0.50099018  0.87654218  0.37410067  1
  V  V68  1  0.49991789  0.36649273  0.86848858  1
  V  V69  1  -0.00369617  0.73054395  0.74510483  1
  V  V70  1  0.13316224  0.24497045  0.87605335  1
  V  V71  1  0.12452962  0.87505546  0.75036656  1
  V  V72  1  0.49946347  0.74914984  0.74926561  1
  V  V73  1  0.25443261  0.36585580  0.12594231  1
  V  V74  1  0.75028047  0.00068706  0.75233514  1
  V  V75  1  0.37270371  0.49665725  0.87367353  1
  V  V76  1  0.24905606  0.38149706  0.62874321  1
  V  V77  1  0.75429641  0.87406057  0.62492233  1
  V  V78  1  0.11834907  0.50349717  0.62914417  1
  V  V79  1  0.74765849  0.87919010  0.12086418  1
  V  V80  1  0.10826951  0.86483567  0.25532302  1
  V  V81  1  0.50210883  0.62216131  0.62256485  1
  V  V82  1  0.50872519  0.00252496  0.00635192  1
  V  V83  1  0.49869639  0.36573491  0.37341747  1
  V  V84  1  0.62501777  0.87393041  0.74964815  1
  Zn  Zn85  1  0.50146071  0.49537762  0.49786052  1
  Zn  Zn86  1  0.80773671  0.16866437  0.31506127  1
  Zn  Zn87  1  0.12707158  -0.00010512  0.62604654  1
  Zn  Zn88  1  0.25302175  0.63489275  0.38534234  1
  Zn  Zn89  1  0.49929924  0.87546108  0.87597143  1
  Zn  Zn90  1  0.37738515  0.37583993  0.50163486  1
  Zn  Zn91  1  0.37653746  0.49852604  0.37911925  1
  Zn  Zn92  1  0.62585637  0.61874037  0.48818147  1
  Zn  Zn93  1  0.50061832  0.49788544  -0.00209711  1
  Zn  Zn94  1  0.62613258  0.50049104  0.12638790  1
  Zn  Zn95  1  0.62208240  0.24639748  0.87341830  1
  Zn  Zn96  1  0.63977350  0.24881930  0.37453674  1
  Zn  Zn97  1  0.00007616  0.37626764  0.37631624  1
  Zn  Zn98  1  0.13209899  0.63156700  0.51121856  1
  Zn  Zn99  1  0.62924594  0.74681965  0.36940085  1
  Zn  Zn100  1  0.25540905  0.24321473  0.00133375  1
  Zn  Zn101  1  0.24725587  0.00213123  0.75465267  1
  Zn  Zn102  1  0.87799264  0.73601993  0.62529064  1
  Zn  Zn103  1  0.87769478  0.75106215  0.14242302  1
  Zn  Zn104  1  0.11957807  0.49748014  0.12343100  1
  Zn  Zn105  1  0.24868632  0.74802562  0.00273950  1
  Zn  Zn106  1  0.87775822  0.87240430  0.00153798  1
  Zn  Zn107  1  0.18759012  0.18443002  0.18904007  1
  Zn  Zn108  1  0.18989866  0.18887760  0.68872426  1
  Zn  Zn109  1  0.18585948  0.68717788  0.18656531  1
  Zn  Zn110  1  0.18920707  0.68730703  0.69146953  1
  Zn  Zn111  1  0.68157420  0.18967263  0.18056953  1
  Zn  Zn112  1  0.68979062  0.18883609  0.68893325  1
  Zn  Zn113  1  0.68786274  0.69288977  0.18592925  1
  Zn  Zn114  1  0.69250157  0.68529942  0.68274569  1
  Zn  Zn115  1  0.31263980  0.31067588  0.31320655  1
  Zn  Zn116  1  0.31006764  0.30988587  0.81281241  1
  Zn  Zn117  1  0.30968617  0.81087082  0.31358852  1
  Zn  Zn118  1  0.31110898  0.81043069  0.81172773  1
  Zn  Zn119  1  0.81174290  0.32880598  0.30861848  1
  Zn  Zn120  1  0.82660021  0.42841745  0.80992664  1
  Zn  Zn121  1  0.81059168  0.82495632  0.31393963  1
  Zn  Zn122  1  0.81517411  0.80948688  0.81302165  1
  Zn  Zn123  1  0.18919260  0.43995539  0.43904310  1
  Zn  Zn124  1  0.18482015  0.43627742  0.93678559  1
  Zn  Zn125  1  0.18728945  0.93545644  0.43557775  1
  Zn  Zn126  1  0.18853496  0.93604679  0.94194602  1
  Zn  Zn127  1  0.68843262  0.43526219  0.43765626  1
  Zn  Zn128  1  0.68924608  0.43585031  0.93873196  1
  Zn  Zn129  1  0.68668103  0.93998652  0.43446395  1
  Zn  Zn130  1  0.68680227  0.93403988  0.93590381  1
  Zn  Zn131  1  0.31245092  0.05833165  0.06671502  1
  Zn  Zn132  1  0.31320081  0.06038534  0.56366167  1
  Zn  Zn133  1  0.30907990  0.55524273  0.06236888  1
  Zn  Zn134  1  0.31111755  0.55886600  0.55851719  1
  Zn  Zn135  1  0.81122441  0.06210564  0.06244819  1
  Zn  Zn136  1  0.81495863  0.06030754  0.56401579  1
  Zn  Zn137  1  0.81530809  0.56237341  0.06186074  1
  Zn  Zn138  1  0.80721530  0.56145569  0.54728645  1
  Zn  Zn139  1  0.43853759  0.43619318  0.18941433  1
  Zn  Zn140  1  0.44049908  0.43828969  0.68851096  1
  Zn  Zn141  1  0.43617359  0.94157786  0.18515957  1
  Zn  Zn142  1  0.43663519  0.93817785  0.68904034  1
  Zn  Zn143  1  0.93894711  0.43806994  0.17994009  1
  Zn  Zn144  1  0.91665430  0.55022579  0.67671066  1
  Zn  Zn145  1  0.93118932  0.93513365  0.18663373  1
  Zn  Zn146  1  0.93978310  0.93809263  0.68733077  1
  Zn  Zn147  1  0.06177508  0.06045475  0.31402310  1
  Zn  Zn148  1  0.06437684  0.06281937  0.81404971  1
  Zn  Zn149  1  0.06713618  0.56220437  0.31672211  1
  Zn  Zn150  1  0.01143260  0.51689482  0.80386822  1
  Zn  Zn151  1  0.56042719  0.06560843  0.30852164  1
  Zn  Zn152  1  0.55553788  0.05955962  0.81362636  1
  Zn  Zn153  1  0.56257294  0.55705329  0.31474316  1
  Zn  Zn154  1  0.56260839  0.55653607  0.80916667  1
  Zn  Zn155  1  0.44058106  0.19038216  0.44039453  1
  Zn  Zn156  1  0.43899050  0.18639722  0.93959684  1
  Zn  Zn157  1  0.44201182  0.68588421  0.43510193  1
  Zn  Zn158  1  0.43843202  0.68702699  0.93724816  1
  Zn  Zn159  1  0.93871820  0.18740394  0.44210413  1
  Zn  Zn160  1  0.93626024  0.19366386  0.93870156  1
  Zn  Zn161  1  0.93889399  0.69825541  0.31722117  1
  Zn  Zn162  1  0.93832927  0.68326026  0.93331841  1
  Zn  Zn163  1  0.06651297  0.30738941  0.06519232  1
  Zn  Zn164  1  0.05736348  0.31783705  0.56519472  1
  Zn  Zn165  1  0.06130196  0.80822365  0.06528369  1
  Zn  Zn166  1  0.05834684  0.81137491  0.56480415  1
  Zn  Zn167  1  0.56270625  0.31413030  0.06123772  1
  Zn  Zn168  1  0.56551833  0.31142282  0.56104834  1
  Zn  Zn169  1  0.56298575  0.81120501  0.06021706  1
  Zn  Zn170  1  0.56166932  0.81358542  0.56295572  1
  O  O171  1  0.11662838  0.11565528  0.12346224  1
  O  O172  1  0.11884845  0.12325081  0.62106511  1
  O  O173  1  0.11727740  0.62582956  0.11393709  1
  O  O174  1  0.13366208  0.60646943  0.63256738  1
  O  O175  1  0.60762707  0.12110584  0.12733206  1
  O  O176  1  0.61890004  0.12133110  0.62101900  1
  O  O177  1  0.61717827  0.62645985  0.11554731  1
  O  O178  1  0.61806252  0.61758433  0.62374712  1
  O  O179  1  0.38733663  0.37136472  0.37477849  1
  O  O180  1  0.38003247  0.38062188  0.87578801  1
  O  O181  1  0.37795886  0.88356856  0.37765299  1
  O  O182  1  0.37668622  0.87830693  0.88335919  1
  O  O183  1  0.87956837  0.38480335  0.38172298  1
  O  O184  1  0.88669162  0.36888644  0.88762157  1
  O  O185  1  0.87325443  0.88970474  0.38766971  1
  O  O186  1  0.88202276  0.88218630  0.87660923  1
  O  O187  1  0.25804877  0.01406327  0.38194656  1
  O  O188  1  0.26355184  -0.00497702  0.87646068  1
  O  O189  1  0.25325252  0.49903022  0.36190068  1
  O  O190  1  0.26228567  0.50529196  0.87682484  1
  O  O191  1  0.75701959  -0.00154565  0.36261711  1
  O  O192  1  0.75480364  0.00455314  0.87167561  1
  O  O193  1  0.75989178  0.49720668  0.36326422  1
  O  O194  1  0.75004487  0.50459630  0.86913128  1
  O  O195  1  0.24720972  0.48874711  0.13751527  1
  O  O196  1  0.24377651  0.48496933  0.62448673  1
  O  O197  1  0.23742838  0.98926991  0.12098086  1
  O  O198  1  0.25111603  0.98549049  0.62929429  1
  O  O199  1  0.75086758  0.49493923  0.13417757  1
  O  O200  1  0.74347879  0.49272779  0.61940736  1
  O  O201  1  0.75443506  0.98666729  0.12886974  1
  O  O202  1  0.74448889  0.99420516  0.63328183  1
  O  O203  1  0.00746268  0.36208194  0.24836908  1
  O  O204  1  0.01436514  0.35563794  0.74407143  1
  O  O205  1  0.01018752  0.87531863  0.24638735  1
  O  O206  1  0.01178584  0.87329840  0.75510941  1
  O  O207  1  0.50889704  0.37889008  0.26030329  1
  O  O208  1  0.50993549  0.37785892  0.75819904  1
  O  O209  1  0.50428720  0.87373733  0.25174357  1
  O  O210  1  0.50593415  0.86707384  0.75110962  1
  O  O211  1  0.48808151  0.11994286  0.23562716  1
  O  O212  1  0.49080893  0.11898028  0.73641713  1
  O  O213  1  0.49231417  0.62784316  0.24065302  1
  O  O214  1  0.49414870  0.62914734  0.74044228  1
  O  O215  1  1.00673567  0.13541858  0.24355851  1
  O  O216  1  0.99670646  0.12782239  0.74271681  1
  O  O217  1  1.00234901  0.62707846  0.24379005  1
  O  O218  1  1.00366681  0.63188473  0.75616194  1
  O  O219  1  0.37147385  0.26429298  -0.00826352  1
  O  O220  1  0.36834383  0.25025523  0.51306441  1
  O  O221  1  0.37554192  0.75820348  0.00508909  1
  O  O222  1  0.38054968  0.75466530  0.51225113  1
  O  O223  1  0.86500262  0.24143178  0.01623334  1
  O  O224  1  0.88251488  0.25850533  0.51138376  1
  O  O225  1  0.86212591  0.74957507  -0.00667293  1
  O  O226  1  0.86094648  0.76640943  0.50576518  1
  O  O227  1  0.12879882  0.24520990  0.49522877  1
  O  O228  1  0.12567581  0.23955579  0.99383197  1
  O  O229  1  0.12252639  0.75261117  0.49123664  1
  O  O230  1  0.12664728  0.74019618  0.99287178  1
  O  O231  1  0.62681559  0.23372224  0.50073464  1
  O  O232  1  0.63753366  0.25132931  0.99799978  1
  O  O233  1  0.63885407  0.75532141  0.50196762  1
  O  O234  1  0.63172425  0.74022975  0.99071522  1
  O  O235  1  0.49956474  0.23379846  0.11459192  1
  O  O236  1  0.49155708  0.24237214  0.62144186  1
  O  O237  1  0.49480618  0.73973083  0.12822996  1
  O  O238  1  0.49267396  0.74430328  0.63096648  1
  O  O239  1  0.99312074  0.24008708  0.13327903  1
  O  O240  1  0.99627774  0.23855667  0.63081626  1
  O  O241  1  0.99590958  0.73191769  0.11904940  1
  O  O242  1  1.00030013  0.74744165  0.64114999  1
  O  O243  1  0.00537933  0.24962857  0.36816921  1
  O  O244  1  0.01209697  0.23959749  0.86576591  1
  O  O245  1  0.02150775  0.75523600  0.36981073  1
  O  O246  1  0.00968355  0.75246128  0.86757611  1
  O  O247  1  0.50675708  0.26159251  0.37702758  1
  O  O248  1  0.50295882  0.26195271  0.87866253  1
  O  O249  1  0.49409264  0.76329067  0.36581261  1
  O  O250  1  0.51224638  0.74808504  0.86914445  1
  O  O251  1  0.24569197  0.13093263  0.49593146  1
  O  O252  1  0.23620368  0.12475756  1.01105763  1
  O  O253  1  0.24438615  0.62241597  0.49826362  1
  O  O254  1  0.24966891  0.62755476  0.98993601  1
  O  O255  1  0.73436627  0.11622781  0.50456241  1
  O  O256  1  0.75044861  0.12998606  0.99261528  1
  O  O257  1  0.74490910  0.64335885  0.49587025  1
  O  O258  1  0.74310068  0.62965260  0.99205562  1
  O  O259  1  0.25614700  0.37398352  0.00987802  1
  O  O260  1  0.25083130  0.36599519  0.50801239  1
  O  O261  1  0.26008358  0.87171598  0.00885919  1
  O  O262  1  0.25837655  0.87900756  0.50893054  1
  O  O263  1  0.74467120  0.36705889  0.01377449  1
  O  O264  1  0.76506969  0.38137669  0.50887398  1
  O  O265  1  0.74879302  0.86587403  0.00488648  1
  O  O266  1  0.75451640  0.87657853  0.50935902  1
  O  O267  1  0.13136696  0.49001771  0.24998341  1
  O  O268  1  0.11024064  0.48427688  0.74602175  1
  O  O269  1  0.12053158  0.98994402  0.24125930  1
  O  O270  1  0.12745600  0.99029084  0.74894562  1
  O  O271  1  0.63642182  0.49186376  0.24970117  1
  O  O272  1  0.62099907  0.48953381  0.73487846  1
  O  O273  1  0.63016836  0.98998370  0.25352783  1
  O  O274  1  0.62889551  0.99353569  0.74568614  1
  O  O275  1  0.37657631  0.00715282  0.26171443  1
  O  O276  1  0.37464738  0.00608734  0.75989608  1
  O  O277  1  0.36803658  0.50808776  0.25082549  1
  O  O278  1  0.37830033  0.51322878  0.75538612  1
  O  O279  1  0.86452370  -0.00506738  0.25918510  1
  O  O280  1  0.87085400  0.00679138  0.75597645  1
  O  O281  1  0.86424270  0.49373617  0.26038449  1
  O  O282  1  0.90748982  0.49201034  0.76642310  1
  O  O283  1  0.12526036  0.36823915  0.36447197  1
  O  O284  1  0.13179805  0.36299584  0.86629295  1
  O  O285  1  0.12924789  0.87045773  0.36072845  1
  O  O286  1  0.12243711  0.86620421  0.87066772  1
  O  O287  1  0.61779874  0.37253398  0.36820948  1
  O  O288  1  0.61742171  0.37707524  0.86653621  1
  O  O289  1  0.61461830  0.87476628  0.36615991  1
  O  O290  1  0.62326299  0.86308737  0.86772418  1
  O  O291  1  0.37745579  0.12195471  0.13678909  1
  O  O292  1  0.38242250  0.13119664  0.62981060  1
  O  O293  1  0.37983963  0.62707447  0.13114546  1
  O  O294  1  0.37862470  0.63039463  0.63278393  1
  O  O295  1  0.88776818  0.12700519  0.12449134  1
  O  O296  1  0.88213311  0.13075473  0.62924477  1
  O  O297  1  0.88778636  0.62758784  0.12366161  1
  O  O298  1  0.86525410  0.62456294  0.61897534  1
  O  O299  1  0.24546389  0.26191725  0.12492880  1
  O  O300  1  0.25639808  0.25738194  0.62024777  1
  O  O301  1  0.25653347  0.75742347  0.12362866  1
  O  O302  1  0.25915111  0.76156386  0.63308711  1
  O  O303  1  0.75588805  0.25547938  0.12074711  1
  O  O304  1  0.76375846  0.25597851  0.62977306  1
  O  O305  1  0.75076205  0.75756557  0.11333624  1
  O  O306  1  0.75198872  0.76015878  0.61735298  1
  O  O307  1  0.24705044  0.23951675  0.38207179  1
  O  O308  1  0.23811307  0.24637035  0.87813521  1
  O  O309  1  0.23139892  0.75076618  0.36622927  1
  O  O310  1  0.23799281  0.74410789  0.87594219  1
  O  O311  1  0.75381835  0.25113133  0.36618987  1
  O  O312  1  0.74807454  0.23711088  0.88662200  1
  O  O313  1  0.74633987  0.76475997  0.39179729  1
  O  O314  1  0.74040185  0.74378053  0.87847634  1
  O  O315  1  0.00900106  0.11938526  0.00997864  1
  O  O316  1  0.00800830  0.11887381  0.50838560  1
  O  O317  1  0.01175693  0.62476787  0.00016341  1
  O  O318  1  0.01174031  0.61125276  0.49777980  1
  O  O319  1  0.49270480  0.11201573  0.01039431  1
  O  O320  1  0.50492874  0.11951240  0.51143668  1
  O  O321  1  0.50787553  0.62379584  0.00584407  1
  O  O322  1  0.49983798  0.62668053  0.51476040  1
  O  O323  1  0.50067756  0.37230792  0.48748394  1
  O  O324  1  0.49348919  0.37852231  0.99243942  1
  O  O325  1  0.49324392  0.88197641  0.49471515  1
  O  O326  1  0.48877513  0.88275340  1.00194400  1
  O  O327  1  0.98779037  0.38181897  0.49867708  1
  O  O328  1  0.98408235  0.37151927  1.02755234  1
  O  O329  1  0.98866701  0.88555671  0.51126947  1
  O  O330  1  1.00180772  0.88031883  0.99350556  1
  O  O331  1  0.49744129  0.48406853  0.37689152  1
  O  O332  1  0.48797274  0.49316410  0.87509669  1
  O  O333  1  0.49215360  0.99566650  0.37906824  1
  O  O334  1  0.48828677  0.99736719  0.88687494  1
  O  O335  1  0.99205767  0.49739467  0.37812024  1
  O  O336  1  1.01451882  0.48005388  0.90880339  1
  O  O337  1  0.99497585  1.00304403  0.38873715  1
  O  O338  1  0.99656876  0.99477114  0.88169941  1
  O  O339  1  0.00454271  0.00420363  0.12145268  1
  O  O340  1  -0.00017015  0.01223274  0.61749606  1
  O  O341  1  0.00342894  0.51781959  0.12990518  1
  O  O342  1  0.00718933  0.49846885  0.61312076  1
  O  O343  1  0.49422168  0.00639774  0.11092474  1
  O  O344  1  0.50484435  0.00570591  0.61953169  1
  O  O345  1  0.50150485  0.51216248  0.12299749  1
  O  O346  1  0.50719041  0.50793224  0.62299304  1
  O  O347  1  0.24473624  0.37814521  0.24586522  1
  O  O348  1  0.23831356  0.36751639  0.74158987  1
  O  O349  1  0.24560248  0.87645935  0.23958908  1
  O  O350  1  0.23775303  0.87385568  0.74603190  1
  O  O351  1  0.74034164  0.38569977  0.23801428  1
  O  O352  1  0.74607160  0.38176025  0.73718579  1
  O  O353  1  0.73940180  0.88440217  0.24012386  1
  O  O354  1  0.74626822  0.87879346  0.74432493  1
  O  O355  1  0.26324105  0.12751032  0.25774487  1
  O  O356  1  0.26577778  0.12006997  0.74236446  1
  O  O357  1  0.25731009  0.61620775  0.24738022  1
  O  O358  1  0.25831456  0.62965311  0.76603809  1
  O  O359  1  0.74535238  0.11048412  0.23726302  1
  O  O360  1  0.75652583  0.11903630  0.75718682  1
  O  O361  1  0.74244746  0.61004698  0.24446448  1
  O  O362  1  0.74757035  0.62592802  0.76295399  1
  O  O363  1  0.37259539  0.12143354  0.36744670  1
  O  O364  1  0.38145014  0.11755942  0.86543847  1
  O  O365  1  0.37446247  0.62598180  0.36096819  1
  O  O366  1  0.37016634  0.61835245  0.87024780  1
  O  O367  1  0.87991261  0.11015137  0.38056924  1
  O  O368  1  0.86806848  0.11985242  0.87104757  1
  O  O369  1  0.88046575  0.61122283  0.37407541  1
  O  O370  1  0.85919986  0.62619763  0.87476041  1
  O  O371  1  0.13209524  0.37457966  0.13723169  1
  O  O372  1  0.13145729  0.37917621  0.63360815  1
  O  O373  1  0.12949416  0.87909568  0.13345287  1
  O  O374  1  0.13175825  0.87448943  0.63293398  1
  O  O375  1  0.62926351  0.37954910  0.13140287  1
  O  O376  1  0.63426038  0.37899052  0.62862014  1
  O  O377  1  0.63201337  0.87125337  0.13111699  1
  O  O378  1  0.63389295  0.88138613  0.62990330  1
  O  O379  1  0.11879094  0.25410487  0.25618147  1
  O  O380  1  0.12057990  0.24935831  0.75903075  1
  O  O381  1  0.12457821  0.76353855  0.24753225  1
  O  O382  1  0.11565410  0.75396164  0.75733915  1
  O  O383  1  0.62730340  0.26344475  0.24957778  1
  O  O384  1  0.63061398  0.26525982  0.75117964  1
  O  O385  1  0.61792794  0.76315271  0.24863147  1
  O  O386  1  0.62170368  0.75251840  0.75421922  1
  O  O387  1  0.37677965  0.23711696  0.25062616  1
  O  O388  1  0.37184776  0.24246704  0.73937498  1
  O  O389  1  0.38017934  0.74356790  0.24254997  1
  O  O390  1  0.38020412  0.73988836  0.74455576  1
  O  O391  1  0.88041861  0.24557943  0.24322673  1
  O  O392  1  0.88737128  0.24003524  0.74023288  1
  O  O393  1  0.86445792  0.74992820  0.25451351  1
  O  O394  1  0.89317380  0.75311006  0.74996685  1
  O  O395  1  0.38131041  0.49329556  0.49795205  1
  O  O396  1  0.37590073  0.48903980  0.99061572  1
  O  O397  1  0.38174715  0.99661697  0.49115623  1
  O  O398  1  0.37908211  0.99260189  0.99525054  1
  O  O399  1  0.88182787  0.49556809  0.48602637  1
  O  O400  1  0.87095143  0.49196695  0.99566849  1
  O  O401  1  0.88095234  0.99332964  0.49659323  1
  O  O402  1  0.88423283  0.99882910  0.99436853  1
  O  O403  1  0.11850661  0.00363463  0.00907225  1
  O  O404  1  0.11766501  0.00428245  0.50203932  1
  O  O405  1  0.13781220  0.51594900  0.00603464  1
  O  O406  1  0.11531346  0.49308757  0.51044144  1
  O  O407  1  0.60664613  -0.00657776  -0.00650755  1
  O  O408  1  0.61735654  0.00711332  0.50507979  1
  O  O409  1  0.62431810  0.51201150  0.00118790  1
  O  O410  1  0.62348558  0.50045196  0.51106466  1
  O  O411  1  0.36849939  0.37982587  0.11611001  1
  O  O412  1  0.36806214  0.36801481  0.62905880  1
  O  O413  1  0.36755505  0.87170385  0.11989106  1
  O  O414  1  0.36905236  0.86696272  0.62159767  1
  O  O415  1  0.86316179  0.36331222  0.13597494  1
  O  O416  1  0.86850867  0.36634868  0.61817071  1
  O  O417  1  0.86448359  0.86898275  0.11997127  1
  O  O418  1  0.86354661  0.87854882  0.62167173  1
  O  O419  1  0.13491551  0.12812101  0.37860081  1
  O  O420  1  0.12384662  0.12822624  0.88766870  1
  O  O421  1  0.12874268  0.63924650  0.37489577  1
  O  O422  1  0.13288294  0.63032027  0.88710888  1
  O  O423  1  0.61884627  0.12571315  0.38889482  1
  O  O424  1  0.63559188  0.12396127  0.86658195  1
  O  O425  1  0.60751370  0.63620650  0.37783480  1
  O  O426  1  0.63116155  0.62719031  0.87889528  1
