# generated using pymatgen
data_V85Zn86O256
_symmetry_space_group_name_H-M   'P 1'
_cell_length_a   16.91443572
_cell_length_b   16.92371340
_cell_length_c   16.92425954
_cell_angle_alpha   90.05153983
_cell_angle_beta   90.04072989
_cell_angle_gamma   89.99936081
_symmetry_Int_Tables_number   1
_chemical_formula_structural   V85Zn86O256
_chemical_formula_sum   'V85 Zn86 O256'
_cell_volume   4844.65178668
_cell_formula_units_Z   1
loop_
 _symmetry_equiv_pos_site_id
 _symmetry_equiv_pos_as_xyz
  1  'x, y, z'
loop_
 _atom_site_type_symbol
 _atom_site_label
 _atom_site_symmetry_multiplicity
 _atom_site_fract_x
 _atom_site_fract_y
 _atom_site_fract_z
 _atom_site_occupancy
  V  V0  1  0.87418261  0.12479277  0.75023363  1
  V  V1  1  0.62367776  0.50054604  0.13736862  1
  V  V2  1  0.87146762  0.12348831  0.24699291  1
  V  V3  1  0.00068348  0.25063505  0.75218591  1
  V  V4  1  0.37198062  0.62014815  0.25482675  1
  V  V5  1  0.50189443  0.74325124  0.74331780  1
  V  V6  1  0.00178900  0.37784066  0.88575244  1
  V  V7  1  0.24324941  0.37157920  0.12747660  1
  V  V8  1  -0.04556377  0.55543168  0.05783771  1
  V  V9  1  0.00250770  0.87773427  0.87430404  1
  V  V10  1  0.25260046  0.36975080  0.62773122  1
  V  V11  1  0.37273706  0.00404931  0.87340752  1
  V  V12  1  0.00025293  0.87192070  0.36995205  1
  V  V13  1  0.87318197  0.25044720  0.62013659  1
  V  V14  1  0.62879752  0.75379487  0.88247258  1
  V  V15  1  0.87224702  0.24375738  0.12496749  1
  V  V16  1  0.62220940  0.62411952  0.50650461  1
  V  V17  1  -0.00222645  -0.00077989  0.49584563  1
  V  V18  1  0.36814906  0.87483482  0.49611257  1
  V  V19  1  0.87842571  0.50269981  0.87286147  1
  V  V20  1  0.49306196  0.74999356  0.24703839  1
  V  V21  1  0.62419774  0.74878615  0.37193928  1
  V  V22  1  -0.00111231  0.12375777  0.62290885  1
  V  V23  1  0.37683818  0.49898921  0.87431091  1
  V  V24  1  0.12388074  0.37679795  0.75193298  1
  V  V25  1  0.24776951  0.49470943  0.25647771  1
  V  V26  1  0.86674045  0.86697958  0.00306817  1
  V  V27  1  0.00274073  0.74383790  0.74622889  1
  V  V28  1  0.75065049  0.63037821  0.87655767  1
  V  V29  1  0.25729107  -0.00375415  0.25732230  1
  V  V30  1  0.86999297  0.36825515  0.00211722  1
  V  V31  1  0.12916634  0.50585632  0.12333305  1
  V  V32  1  0.62201120  0.49923408  0.62771406  1
  V  V33  1  0.37630221  0.37039266  0.50430273  1
  V  V34  1  0.86515713  -0.00571841  0.36495674  1
  V  V35  1  0.37055160  0.24717948  0.12299882  1
  V  V36  1  0.37569800  0.74359991  0.61999488  1
  V  V37  1  0.49340306  0.87543782  0.87601090  1
  V  V38  1  0.25415463  0.62665877  0.87526852  1
  V  V39  1  0.49375053  0.13017704  0.62048799  1
  V  V40  1  0.25039585  0.87036318  0.62372219  1
  V  V41  1  0.37049084  0.36989666  -0.00027574  1
  V  V42  1  0.49630624  0.00422622  0.49766382  1
  V  V43  1  0.74892637  0.37421442  0.13368010  1
  V  V44  1  -0.00152614  0.73117932  0.24163633  1
  V  V45  1  0.13303723  0.25059964  0.88138427  1
  V  V46  1  0.01026873  0.24531920  0.25144112  1
  V  V47  1  0.00019946  0.00560079  0.00401650  1
  V  V48  1  0.10977524  0.62366993  0.50440098  1
  V  V49  1  0.51153593  0.37008395  0.87619396  1
  V  V50  1  0.50114109  0.25203128  0.25030318  1
  V  V51  1  0.01158845  0.37269923  0.37619472  1
  V  V52  1  0.25352183  0.62225441  0.38579614  1
  V  V53  1  0.87455208  0.87252804  0.49858596  1
  V  V54  1  0.62447001  0.00644610  0.61929674  1
  V  V55  1  0.12605141  0.00055805  0.62277309  1
  V  V56  1  0.50229586  0.00042803  -0.00248711  1
  V  V57  1  0.25024139  0.50119564  0.74892119  1
  V  V58  1  0.50271201  0.50026322  0.00072440  1
  V  V59  1  0.12540101  0.87201849  0.24570083  1
  V  V60  1  0.75075895  0.61687943  0.36237448  1
  V  V61  1  0.75009638  0.74719487  0.49894370  1
  V  V62  1  0.74743993  0.14069955  0.87879359  1
  V  V63  1  0.87438966  0.38513639  0.49879738  1
  V  V64  1  0.13381852  0.12607432  0.00319726  1
  V  V65  1  0.26885110  0.75384048  0.00363673  1
  V  V66  1  0.74487920  0.12256801  0.37740981  1
  V  V67  1  0.50133508  0.24903404  0.74987311  1
  V  V68  1  0.62163744  0.24685994  0.38628674  1
  V  V69  1  0.24355485  0.25058425  0.49288017  1
  V  V70  1  0.13022503  0.75287898  0.87838706  1
  V  V71  1  0.62776288  0.13841212  0.00016674  1
  V  V72  1  0.12466633  -0.00118982  0.12578966  1
  V  V73  1  0.37588599  0.12181618  0.25795932  1
  V  V74  1  0.87075097  0.00038674  0.87538349  1
  V  V75  1  0.49477165  0.38105271  0.37587254  1
  V  V76  1  0.27252305  0.87331534  0.12246896  1
  V  V77  1  0.49240793  0.62816081  0.12426304  1
  V  V78  1  0.12910054  0.74656131  0.37771704  1
  V  V79  1  0.49097736  0.50666003  0.50207054  1
  V  V80  1  0.49477054  0.87795766  0.37659027  1
  V  V81  1  0.87937930  0.74200003  0.62202295  1
  V  V82  1  0.87284770  0.49759999  0.35666293  1
  V  V83  1  0.62564621  0.87720618  0.74793948  1
  V  V84  1  0.11222144  0.50315626  0.62386381  1
  Zn  Zn85  1  0.12735257  0.62673042  0.00492606  1
  Zn  Zn86  1  0.62618944  0.63203607  0.00429712  1
  Zn  Zn87  1  0.87664791  0.62231441  0.74419511  1
  Zn  Zn88  1  0.74871861  0.37575524  0.62563167  1
  Zn  Zn89  1  0.74730785  0.24847226  0.50154126  1
  Zn  Zn90  1  0.87405938  0.73674950  0.12519279  1
  Zn  Zn91  1  0.25158463  0.00398964  0.74793670  1
  Zn  Zn92  1  0.62905383  0.37681248  0.25678878  1
  Zn  Zn93  1  0.11726106  0.13327693  0.49142808  1
  Zn  Zn94  1  0.75049573  0.87661421  0.62364665  1
  Zn  Zn95  1  0.50284024  0.12672148  0.12397127  1
  Zn  Zn96  1  0.37940754  0.62214063  0.74270908  1
  Zn  Zn97  1  0.74801507  0.00225289  0.74760783  1
  Zn  Zn98  1  0.24521411  0.12612163  0.37346111  1
  Zn  Zn99  1  0.12766764  0.87668443  0.74925565  1
  Zn  Zn100  1  0.74921908  0.49990426  0.74932426  1
  Zn  Zn101  1  0.63501601  0.88892867  0.25335192  1
  Zn  Zn102  1  0.36937975  0.13285187  0.74666341  1
  Zn  Zn103  1  0.63077964  0.37143785  0.75260913  1
  Zn  Zn104  1  0.74818322  0.86987302  0.13770683  1
  Zn  Zn105  1  0.25171357  0.12803182  0.87295445  1
  Zn  Zn106  1  0.63514933  -0.00105501  0.12659111  1
  Zn  Zn107  1  0.19026411  0.18184353  0.18586776  1
  Zn  Zn108  1  0.18680148  0.18774588  0.68525131  1
  Zn  Zn109  1  0.19148740  0.68844902  0.18799377  1
  Zn  Zn110  1  0.18861794  0.68865217  0.68649777  1
  Zn  Zn111  1  0.68917540  0.18724605  0.18845526  1
  Zn  Zn112  1  0.68399052  0.18695858  0.68976430  1
  Zn  Zn113  1  0.68590278  0.69458087  0.18405544  1
  Zn  Zn114  1  0.69124835  0.68733026  0.68912328  1
  Zn  Zn115  1  0.31513527  0.31428119  0.31356170  1
  Zn  Zn116  1  0.31726353  0.31199130  0.81112413  1
  Zn  Zn117  1  0.31300908  0.80806228  0.31104439  1
  Zn  Zn118  1  0.31452317  0.81504305  0.80645719  1
  Zn  Zn119  1  0.81238960  0.30902413  0.31358024  1
  Zn  Zn120  1  0.81388623  0.31647954  0.80918292  1
  Zn  Zn121  1  0.81262824  0.80398729  0.30629206  1
  Zn  Zn122  1  0.81263039  0.81343933  0.80956687  1
  Zn  Zn123  1  0.18777925  0.44171086  0.44244331  1
  Zn  Zn124  1  0.18896741  0.43943058  0.94234001  1
  Zn  Zn125  1  0.18529631  0.93826577  0.43731181  1
  Zn  Zn126  1  0.19307887  0.93696303  0.94111392  1
  Zn  Zn127  1  0.68737794  0.43602776  0.44015011  1
  Zn  Zn128  1  0.69116582  0.44131995  0.94300160  1
  Zn  Zn129  1  0.68473188  0.93524395  0.43680981  1
  Zn  Zn130  1  0.68695481  0.94154713  0.94054659  1
  Zn  Zn131  1  0.31641783  0.05893110  0.06261985  1
  Zn  Zn132  1  0.31393440  0.06257963  0.56100517  1
  Zn  Zn133  1  0.31271646  0.56159741  0.06304368  1
  Zn  Zn134  1  0.30824385  0.55821849  0.56327511  1
  Zn  Zn135  1  0.80918032  0.05907212  0.06411996  1
  Zn  Zn136  1  0.81098507  0.06225171  0.55774341  1
  Zn  Zn137  1  0.79156822  0.56419877  0.06415025  1
  Zn  Zn138  1  0.80901469  0.56254823  0.55876711  1
  Zn  Zn139  1  0.43319478  0.43795622  0.18842835  1
  Zn  Zn140  1  0.44022493  0.43606934  0.68715623  1
  Zn  Zn141  1  0.46507434  0.95309311  0.19963381  1
  Zn  Zn142  1  0.43793716  0.93786994  0.68722003  1
  Zn  Zn143  1  0.94064290  0.42504008  0.19288385  1
  Zn  Zn144  1  0.93572133  0.43433225  0.69080387  1
  Zn  Zn145  1  0.93809102  0.93567722  0.18587702  1
  Zn  Zn146  1  0.93754124  0.93353521  0.68686854  1
  Zn  Zn147  1  0.06238424  0.06423945  0.31193203  1
  Zn  Zn148  1  0.06434531  0.06398584  0.81196978  1
  Zn  Zn149  1  0.06579343  0.55291497  0.31474963  1
  Zn  Zn150  1  0.06432317  0.56352329  0.81698776  1
  Zn  Zn151  1  0.56098909  0.06434589  0.31476813  1
  Zn  Zn152  1  0.56422959  0.06585623  0.81173117  1
  Zn  Zn153  1  0.55967294  0.56434467  0.31717101  1
  Zn  Zn154  1  0.56485871  0.56385724  0.81304875  1
  Zn  Zn155  1  0.43256859  0.19026707  0.43927574  1
  Zn  Zn156  1  0.43871231  0.18774219  0.93478940  1
  Zn  Zn157  1  0.43553588  0.68881651  0.43821695  1
  Zn  Zn158  1  0.44182380  0.68779124  0.93308506  1
  Zn  Zn159  1  0.93488210  0.18803468  0.43388102  1
  Zn  Zn160  1  0.94108014  0.18733384  0.93979435  1
  Zn  Zn161  1  0.93680643  0.68329901  0.42898617  1
  Zn  Zn162  1  0.93811590  0.69181799  0.92982068  1
  Zn  Zn163  1  0.05958940  0.30899620  0.06672176  1
  Zn  Zn164  1  0.06036355  0.31653206  0.56148380  1
  Zn  Zn165  1  0.06227267  0.81277465  0.06156003  1
  Zn  Zn166  1  0.06378357  0.81054654  0.55948527  1
  Zn  Zn167  1  0.56107935  0.31392235  0.06481921  1
  Zn  Zn168  1  0.56037463  0.31421493  0.56620818  1
  Zn  Zn169  1  0.55968324  0.81795467  0.06535596  1
  Zn  Zn170  1  0.56097123  0.81491041  0.56176739  1
  O  O171  1  0.13059472  0.10884416  0.11828056  1
  O  O172  1  0.11701664  0.11762898  0.61783121  1
  O  O173  1  0.13284210  0.61530709  0.12235650  1
  O  O174  1  0.13018514  0.62061826  0.61205310  1
  O  O175  1  0.62576700  0.12406938  0.11230721  1
  O  O176  1  0.61465880  0.11294781  0.62850538  1
  O  O177  1  0.61304159  0.61799905  0.12506760  1
  O  O178  1  0.62814541  0.62272147  0.61233426  1
  O  O179  1  0.38705792  0.37279800  0.38500924  1
  O  O180  1  0.38235859  0.38015590  0.88349901  1
  O  O181  1  0.38108950  0.86587478  0.38521116  1
  O  O182  1  0.38826398  0.88188217  0.86757547  1
  O  O183  1  0.87579302  0.38343418  0.37976560  1
  O  O184  1  0.88054516  0.38171916  0.88397780  1
  O  O185  1  0.88012728  0.87868714  0.37847529  1
  O  O186  1  0.88299391  0.88132584  0.87955351  1
  O  O187  1  0.25196528  -0.00792554  0.35963341  1
  O  O188  1  0.25936344  -0.00074395  0.87185129  1
  O  O189  1  0.24437478  0.50658277  0.36564062  1
  O  O190  1  0.25545192  0.50784334  0.87153492  1
  O  O191  1  0.75760020  0.00548960  0.37942305  1
  O  O192  1  0.76248070  0.00582904  0.87367173  1
  O  O193  1  0.76217299  0.50238762  0.37796998  1
  O  O194  1  0.76406870  0.50579832  0.87763702  1
  O  O195  1  0.24640874  0.49267953  0.13294432  1
  O  O196  1  0.24089384  0.49030497  0.63124075  1
  O  O197  1  0.24744477  0.98736751  0.13002093  1
  O  O198  1  0.24148077  0.99250716  0.62209812  1
  O  O199  1  0.73520211  0.49061858  0.12456816  1
  O  O200  1  0.73556803  0.50185483  0.62414640  1
  O  O201  1  0.74791688  0.98483796  0.11594269  1
  O  O202  1  0.74047223  0.99951849  0.62408093  1
  O  O203  1  -0.00092204  0.35952026  0.26398552  1
  O  O204  1  0.00435749  0.37014804  0.76403598  1
  O  O205  1  0.00777059  0.87003512  0.25560932  1
  O  O206  1  0.00167411  0.86783704  0.76165257  1
  O  O207  1  0.49702778  0.36933922  0.25922448  1
  O  O208  1  0.50251723  0.36793836  0.75934336  1
  O  O209  1  0.48826831  0.85893384  0.26202369  1
  O  O210  1  0.51015730  0.86880716  0.75473499  1
  O  O211  1  0.49142763  0.13592530  0.24826786  1
  O  O212  1  0.50021807  0.13619828  0.74434891  1
  O  O213  1  0.49185775  0.62970759  0.24649733  1
  O  O214  1  0.49873476  0.63928382  0.75403520  1
  O  O215  1  0.98706308  0.13669174  0.25687070  1
  O  O216  1  0.99414108  0.13084607  0.74431590  1
  O  O217  1  1.00848320  0.63334838  0.25243417  1
  O  O218  1  0.99920837  0.64034408  0.75876084  1
  O  O219  1  0.38122470  0.25818631  0.00951383  1
  O  O220  1  0.36425129  0.26342363  0.50106901  1
  O  O221  1  0.36810328  0.75054699  -0.00502696  1
  O  O222  1  0.37972352  0.76089317  0.50923631  1
  O  O223  1  0.88248562  0.25733668  0.01056980  1
  O  O224  1  0.87429657  0.25738145  0.50722478  1
  O  O225  1  0.88526975  0.76463546  0.00016855  1
  O  O226  1  0.87347303  0.75270831  0.50248487  1
  O  O227  1  0.13919767  0.25231547  0.50447372  1
  O  O228  1  0.11696202  0.23861029  0.99459512  1
  O  O229  1  0.12262715  0.73660621  0.49142465  1
  O  O230  1  0.13278711  0.75114277  0.98860125  1
  O  O231  1  0.62275536  0.25149987  0.48948591  1
  O  O232  1  0.62127434  0.23791856  1.00130297  1
  O  O233  1  0.62596455  0.74406364  0.49130027  1
  O  O234  1  0.61546605  0.75175602  0.98499111  1
  O  O235  1  0.49009172  0.25116244  0.13397399  1
  O  O236  1  0.50182357  0.24189977  0.63338399  1
  O  O237  1  0.50279920  0.74083372  0.13569477  1
  O  O238  1  0.49059320  0.75615566  0.63241619  1
  O  O239  1  0.98724966  0.25815307  0.14192179  1
  O  O240  1  0.99071282  0.24601451  0.62921540  1
  O  O241  1  0.99986950  0.74931421  0.13721631  1
  O  O242  1  0.99386179  0.75705893  0.63482196  1
  O  O243  1  -0.00481115  0.25956564  0.36414444  1
  O  O244  1  0.00840124  0.25807811  0.87207833  1
  O  O245  1  0.00981191  0.75169270  0.36532974  1
  O  O246  1  0.01076424  0.75948154  0.87015114  1
  O  O247  1  0.50391394  0.25606593  0.37004874  1
  O  O248  1  0.49975319  0.25917467  0.86523638  1
  O  O249  1  0.50578955  0.75532486  0.37113506  1
  O  O250  1  0.50616135  0.75889953  0.86537037  1
  O  O251  1  0.25478964  0.14287732  0.50173927  1
  O  O252  1  0.23746763  0.11921802  0.99726033  1
  O  O253  1  0.24351237  0.61928230  0.48845765  1
  O  O254  1  0.25307190  0.63455739  0.99293956  1
  O  O255  1  0.75552942  0.12992082  0.48287750  1
  O  O256  1  0.74106733  0.12365876  0.98821245  1
  O  O257  1  0.74079396  0.62986600  0.49093724  1
  O  O258  1  0.74309399  0.62498943  0.98409282  1
  O  O259  1  0.26433861  0.37971262  0.00803851  1
  O  O260  1  0.25524066  0.37002344  0.50638046  1
  O  O261  1  0.25333801  0.86949940  0.01414008  1
  O  O262  1  0.26056351  0.88022865  0.50558265  1
  O  O263  1  0.76430248  0.38031000  0.00970868  1
  O  O264  1  0.75917622  0.36907749  0.50337635  1
  O  O265  1  0.76708988  0.87297490  -0.01124026  1
  O  O266  1  0.75763012  0.86571996  0.49769534  1
  O  O267  1  0.13636157  0.50030182  0.23879955  1
  O  O268  1  0.13094398  0.49582915  0.74750488  1
  O  O269  1  0.13370361  0.99328668  0.24202520  1
  O  O270  1  0.12168500  0.99846688  0.73424697  1
  O  O271  1  0.61405370  0.49631280  0.24071570  1
  O  O272  1  0.62369357  0.49848896  0.74070485  1
  O  O273  1  0.58015816  0.99096922  0.23330554  1
  O  O274  1  0.62441252  0.99321139  0.74188844  1
  O  O275  1  0.37095591  0.01066095  0.24352773  1
  O  O276  1  0.37754029  0.00305593  0.76084464  1
  O  O277  1  0.36574832  0.51093896  0.24821082  1
  O  O278  1  0.37020999  0.50143837  0.75548412  1
  O  O279  1  0.88314419  0.00669316  0.25912891  1
  O  O280  1  0.87494635  0.00591785  0.75749818  1
  O  O281  1  0.87251390  0.49456967  0.25811192  1
  O  O282  1  0.87408788  0.50316888  0.75931282  1
  O  O283  1  0.11010281  0.38106672  0.38090745  1
  O  O284  1  0.11842305  0.37169119  0.87604618  1
  O  O285  1  0.12167590  0.86435290  0.36974031  1
  O  O286  1  0.12052809  0.87056792  0.87407710  1
  O  O287  1  0.61436634  0.36741036  0.37565455  1
  O  O288  1  0.61426189  0.38219468  0.87870787  1
  O  O289  1  0.61360088  0.86508784  0.37432611  1
  O  O290  1  0.61965776  0.87158175  0.86668977  1
  O  O291  1  0.37505101  0.13416790  0.13209114  1
  O  O292  1  0.38970266  0.11855138  0.62863388  1
  O  O293  1  0.38622291  0.61930937  0.13292379  1
  O  O294  1  0.36627143  0.63903273  0.62324968  1
  O  O295  1  0.87051806  0.13174083  0.13195935  1
  O  O296  1  0.87948037  0.12989115  0.62878688  1
  O  O297  1  0.88745501  0.61318330  0.11002236  1
  O  O298  1  0.87224952  0.63761822  0.62303571  1
  O  O299  1  0.26107122  0.25720188  0.13209766  1
  O  O300  1  0.24486488  0.26461526  0.61764042  1
  O  O301  1  0.25082263  0.76383310  0.11806661  1
  O  O302  1  0.25739737  0.76280567  0.62839623  1
  O  O303  1  0.76196503  0.25748845  0.12773760  1
  O  O304  1  0.76257156  0.24619625  0.62519295  1
  O  O305  1  0.76171747  0.75324716  0.12979804  1
  O  O306  1  0.75856281  0.75260378  0.61711249  1
  O  O307  1  0.25020327  0.25536377  0.38978373  1
  O  O308  1  0.23619264  0.25485183  0.87334774  1
  O  O309  1  0.23598481  0.73892274  0.36722464  1
  O  O310  1  0.24842326  0.74722087  0.87951059  1
  O  O311  1  0.73792588  0.24335928  0.37435306  1
  O  O312  1  0.75869306  0.23886389  0.87594695  1
  O  O313  1  0.74218390  0.73986252  0.37986177  1
  O  O314  1  0.74064087  0.74434052  0.86765951  1
  O  O315  1  0.00983330  0.11060066  -0.00601305  1
  O  O316  1  -0.00372522  0.11781166  0.50469263  1
  O  O317  1  0.00485709  0.62008301  -0.00387548  1
  O  O318  1  0.01109604  0.62512864  0.49762074  1
  O  O319  1  0.51457108  0.12163296  -0.00546072  1
  O  O320  1  0.49339776  0.11713395  0.50528634  1
  O  O321  1  0.49991550  0.61816235  0.00726887  1
  O  O322  1  0.50662354  0.61594989  0.49438216  1
  O  O323  1  0.49183896  0.38054455  0.49635202  1
  O  O324  1  0.49260376  0.38082753  0.99497187  1
  O  O325  1  0.49062519  0.88026700  0.49338480  1
  O  O326  1  0.50503945  0.88542626  0.98632284  1
  O  O327  1  0.99019999  0.36681863  0.48423570  1
  O  O328  1  0.99110809  0.37222584  0.99174096  1
  O  O329  1  0.99355282  0.87728262  0.49036404  1
  O  O330  1  0.99701221  0.88374264  0.98821945  1
  O  O331  1  0.50411409  0.49095312  0.38713103  1
  O  O332  1  0.49574690  0.49602147  0.88283342  1
  O  O333  1  0.50085804  0.98711133  0.38329084  1
  O  O334  1  0.49632405  0.99502465  0.87808005  1
  O  O335  1  0.98697521  0.48436403  0.36739255  1
  O  O336  1  0.98984845  0.49290649  0.87377286  1
  O  O337  1  0.99187627  0.99128949  0.37859651  1
  O  O338  1  0.99220078  0.99506099  0.87797326  1
  O  O339  1  0.01057862  -0.00565698  0.11504377  1
  O  O340  1  0.00383647  0.00213916  0.61687757  1
  O  O341  1  0.00716836  0.49592818  0.12553598  1
  O  O342  1  0.01291653  0.49774350  0.63409040  1
  O  O343  1  0.49154009  0.00811644  0.10216264  1
  O  O344  1  0.50573148  0.00545226  0.61768656  1
  O  O345  1  0.50289114  0.50430878  0.11847326  1
  O  O346  1  0.51015165  0.49848092  0.61591945  1
  O  O347  1  0.25822422  0.38438348  0.24194410  1
  O  O348  1  0.24447383  0.37920994  0.74509613  1
  O  O349  1  0.24772235  0.87649478  0.23905701  1
  O  O350  1  0.24803930  0.88138881  0.73829428  1
  O  O351  1  0.74816341  0.37104360  0.23848971  1
  O  O352  1  0.74805886  0.38060994  0.74542365  1
  O  O353  1  0.74776780  0.87729791  0.25724450  1
  O  O354  1  0.73752679  0.87816658  0.74754050  1
  O  O355  1  0.25793276  0.11298741  0.24913023  1
  O  O356  1  0.25114750  0.12314069  0.75182954  1
  O  O357  1  0.25553375  0.61759958  0.25848424  1
  O  O358  1  0.25251387  0.62051806  0.75830318  1
  O  O359  1  0.76188137  0.12816085  0.26032673  1
  O  O360  1  0.75494659  0.12417980  0.76265812  1
  O  O361  1  0.74013393  0.62431403  0.26389901  1
  O  O362  1  0.75345774  0.62135268  0.76169295  1
  O  O363  1  0.36742450  0.13200134  0.36203799  1
  O  O364  1  0.37186669  0.11967748  0.87031464  1
  O  O365  1  0.36462499  0.62741680  0.36958849  1
  O  O366  1  0.36677689  0.62000304  0.87218001  1
  O  O367  1  0.86771909  0.11498392  0.36738492  1
  O  O368  1  0.86763621  0.11919890  0.87374451  1
  O  O369  1  0.86803666  0.60583331  0.37803537  1
  O  O370  1  0.86984611  0.61901802  0.87388527  1
  O  O371  1  0.13942036  0.37804293  0.11787784  1
  O  O372  1  0.12857838  0.38324421  0.63125777  1
  O  O373  1  0.12992678  0.88365332  0.12807749  1
  O  O374  1  0.13359723  0.88007636  0.62279522  1
  O  O375  1  0.63149589  0.38107987  0.12715653  1
  O  O376  1  0.62703982  0.38569418  0.62547384  1
  O  O377  1  0.62521073  0.87650569  0.13312008  1
  O  O378  1  0.62465666  0.88516051  0.63113459  1
  O  O379  1  0.10924070  0.23995296  0.24347355  1
  O  O380  1  0.11876516  0.25744118  0.75756618  1
  O  O381  1  0.11783007  0.75320007  0.25492364  1
  O  O382  1  0.12155296  0.75272196  0.76059926  1
  O  O383  1  0.61185647  0.25170677  0.25504817  1
  O  O384  1  0.60992635  0.25392016  0.74715343  1
  O  O385  1  0.61216295  0.74436925  0.26380302  1
  O  O386  1  0.61881060  0.75776594  0.75275768  1
  O  O387  1  0.38303282  0.24584886  0.24422767  1
  O  O388  1  0.39246401  0.25159119  0.75057181  1
  O  O389  1  0.38110818  0.73400550  0.25260679  1
  O  O390  1  0.38468901  0.75013686  0.73975739  1
  O  O391  1  0.87979595  0.24121291  0.24482853  1
  O  O392  1  0.88213790  0.24528274  0.74285354  1
  O  O393  1  0.89460821  0.74433845  0.25112892  1
  O  O394  1  0.88385747  0.75064483  0.74007343  1
  O  O395  1  0.38462047  0.49162776  0.50577391  1
  O  O396  1  0.38556875  0.49325887  0.99697155  1
  O  O397  1  0.38638313  0.98975933  0.50411325  1
  O  O398  1  0.38475911  1.00805275  0.98310984  1
  O  O399  1  0.87514353  0.48757617  0.49955786  1
  O  O400  1  0.88452210  0.49746746  1.00052795  1
  O  O401  1  0.87956327  0.99202979  0.49002847  1
  O  O402  1  0.88386209  0.99321663  0.99171113  1
  O  O403  1  0.11964832  0.00358359  0.00542871  1
  O  O404  1  0.11527978  -0.00284562  0.50943695  1
  O  O405  1  0.12914591  0.50314336  0.01531956  1
  O  O406  1  0.12528627  0.51273673  0.50955417  1
  O  O407  1  0.61646232  0.01125257  -0.00271862  1
  O  O408  1  0.61030951  -0.00693562  0.50747548  1
  O  O409  1  0.61248622  0.50098396  0.00896270  1
  O  O410  1  0.61608734  0.50699959  0.50520158  1
  O  O411  1  0.36788593  0.36849377  0.11846997  1
  O  O412  1  0.36462497  0.38086292  0.61784290  1
  O  O413  1  0.36905864  0.88023554  0.13081367  1
  O  O414  1  0.36819876  0.86919977  0.61842729  1
  O  O415  1  0.86838339  0.36952291  0.11992220  1
  O  O416  1  0.87622599  0.36690879  0.61714933  1
  O  O417  1  0.88008839  0.87495113  0.10761075  1
  O  O418  1  0.87363860  0.86597492  0.61530745  1
  O  O419  1  0.13289749  0.11433762  0.38150343  1
  O  O420  1  0.12597267  0.13407573  0.88242692  1
  O  O421  1  0.12873427  0.62655985  0.38591581  1
  O  O422  1  0.13857359  0.63283785  0.87848139  1
  O  O423  1  0.63237249  0.13300508  0.36918551  1
  O  O424  1  0.64016025  0.12425319  0.88167719  1
  O  O425  1  0.62942969  0.62919083  0.38520958  1
  O  O426  1  0.63130522  0.63573016  0.87559160  1
