# generated using pymatgen
data_V85Zn86O256
_symmetry_space_group_name_H-M   'P 1'
_cell_length_a   16.96033149
_cell_length_b   16.97414540
_cell_length_c   16.98308491
_cell_angle_alpha   89.91809125
_cell_angle_beta   90.01354097
_cell_angle_gamma   90.03314877
_symmetry_Int_Tables_number   1
_chemical_formula_structural   V85Zn86O256
_chemical_formula_sum   'V85 Zn86 O256'
_cell_volume   4889.20567193
_cell_formula_units_Z   1
loop_
 _symmetry_equiv_pos_site_id
 _symmetry_equiv_pos_as_xyz
  1  'x, y, z'
loop_
 _atom_site_type_symbol
 _atom_site_label
 _atom_site_symmetry_multiplicity
 _atom_site_fract_x
 _atom_site_fract_y
 _atom_site_fract_z
 _atom_site_occupancy
  V  V0  1  0.12348491  0.24523250  0.37774558  1
  V  V1  1  0.87162555  0.25522711  0.61818319  1
  V  V2  1  0.36666110  0.49600871  0.37754939  1
  V  V3  1  0.50453576  0.38853189  0.87399526  1
  V  V4  1  0.24732239  0.24983624  -0.00976043  1
  V  V5  1  0.63235263  0.87279303  0.74769829  1
  V  V6  1  0.62383788  0.62803230  0.49137163  1
  V  V7  1  0.87851968  0.74947625  0.13156154  1
  V  V8  1  0.12458029  0.74705252  0.87406270  1
  V  V9  1  0.87815084  0.12027625  0.75605003  1
  V  V10  1  0.75547489  -0.00781266  0.75081449  1
  V  V11  1  0.12208126  0.49055736  0.62529847  1
  V  V12  1  0.12386890  0.12799313  -0.00832182  1
  V  V13  1  0.87315685  0.24139398  0.12403163  1
  V  V14  1  0.74841358  0.87795445  0.13198299  1
  V  V15  1  0.87432894  0.73975268  0.62117226  1
  V  V16  1  -0.01614813  0.59207722  0.16202558  1
  V  V17  1  0.24661372  0.74880572  -0.00032388  1
  V  V18  1  0.50731916  0.37579859  0.37382169  1
  V  V19  1  0.37296773  0.87716759  -0.00347984  1
  V  V20  1  0.00075167  0.88434971  0.38755920  1
  V  V21  1  0.24858620  0.37246554  0.12245542  1
  V  V22  1  -0.00399133  -0.00022009  -0.00492406  1
  V  V23  1  0.25103605  0.87697223  0.62437743  1
  V  V24  1  0.75018604  0.75102270  0.49859501  1
  V  V25  1  0.87242209  0.37719720  -0.00813193  1
  V  V26  1  0.62138429  0.62220205  -0.00118601  1
  V  V27  1  0.00174917  0.11583033  0.61904045  1
  V  V28  1  0.37434962  0.25087722  0.12167154  1
  V  V29  1  0.10914317  0.62451124  0.51082492  1
  V  V30  1  0.00023006  0.74287943  0.73954731  1
  V  V31  1  0.00512424  0.24508397  0.75526720  1
  V  V32  1  0.24895835  0.87397875  0.12463889  1
  V  V33  1  0.12623418  0.87612358  0.75076463  1
  V  V34  1  0.37755256  0.12214010  0.75784723  1
  V  V35  1  0.24947836  0.25496103  0.50457710  1
  V  V36  1  0.95214192  0.43023654  0.44082335  1
  V  V37  1  0.62113974  0.87793815  0.25091538  1
  V  V38  1  0.00549864  0.37211953  0.87257381  1
  V  V39  1  0.36707784  0.62189001  0.24900456  1
  V  V40  1  0.49336823  0.87433075  0.37129956  1
  V  V41  1  0.37567049  0.75180588  0.62344565  1
  V  V42  1  0.50004194  0.62733549  0.62337162  1
  V  V43  1  0.63811730  0.50391704  0.12799979  1
  V  V44  1  0.37809363  0.38838342  -0.00669449  1
  V  V45  1  0.25882542  0.00196679  0.25422750  1
  V  V46  1  0.36753527  0.37452516  0.50317157  1
  V  V47  1  0.86580090  0.88586687  0.50452557  1
  V  V48  1  0.25185647  0.74610180  0.49939673  1
  V  V49  1  0.62310253  0.12783407  -0.00559599  1
  V  V50  1  0.26558819  0.12312481  0.37911793  1
  V  V51  1  0.87221574  0.01242734  0.37026129  1
  V  V52  1  0.12528439  0.00204762  0.12436021  1
  V  V53  1  0.50148537  0.12174455  0.62295785  1
  V  V54  1  0.37610038  0.61647686  0.75444712  1
  V  V55  1  0.49264020  0.00243713  -0.00639038  1
  V  V56  1  0.25754717  -0.00241940  0.75665726  1
  V  V57  1  0.12095363  0.36751715  0.25056764  1
  V  V58  1  0.12169206  0.74736221  0.37710468  1
  V  V59  1  0.51467212  0.01504959  0.47216786  1
  V  V60  1  0.49668962  0.61404177  0.12149816  1
  V  V61  1  0.37548606  0.88733383  0.49506034  1
  V  V62  1  0.87272546  0.87780340  0.00007139  1
  V  V63  1  0.50011316  0.75312150  0.75070516  1
  V  V64  1  0.37307429  0.25554131  0.62719865  1
  V  V65  1  0.25080925  0.61529268  0.87472604  1
  V  V66  1  0.50148693  0.25709676  0.24886196  1
  V  V67  1  0.50044521  0.12694831  0.12133211  1
  V  V68  1  -0.00279624  0.75611291  0.25164796  1
  V  V69  1  0.63666420  0.38070461  0.25031687  1
  V  V70  1  0.75130524  0.11899908  0.87481919  1
  V  V71  1  -0.00248937  0.50507201  -0.01265429  1
  V  V72  1  -0.00107236  0.23717789  0.25078550  1
  V  V73  1  0.37003085  0.74756019  0.12395667  1
  V  V74  1  0.51021686  0.25299189  0.75125175  1
  V  V75  1  0.76813376  0.60693996  0.36961032  1
  V  V76  1  0.62725473  -0.00328821  0.62151752  1
  V  V77  1  0.49395812  0.88019721  0.87203048  1
  V  V78  1  0.74697580  0.75008087  0.00281929  1
  V  V79  1  0.12593513  0.87750046  0.25254165  1
  V  V80  1  -0.01140415  0.87539786  0.87253536  1
  V  V81  1  0.24136382  0.49649830  0.25054408  1
  V  V82  1  0.13592144  0.36809745  0.75075053  1
  V  V83  1  0.50019815  0.50185321  0.50067888  1
  V  V84  1  0.49657325  0.74641722  0.24941292  1
  Zn  Zn85  1  0.72383221  0.22508697  0.47313489  1
  Zn  Zn86  1  0.12276347  -0.00343171  0.61947476  1
  Zn  Zn87  1  0.62246106  0.75154518  0.87726619  1
  Zn  Zn88  1  0.71961978  0.35176866  0.63522889  1
  Zn  Zn89  1  0.63407459  0.74930698  0.36899744  1
  Zn  Zn90  1  0.38377372  0.12017717  0.25397069  1
  Zn  Zn91  1  0.11764486  0.62508420  0.00724040  1
  Zn  Zn92  1  0.75219977  0.48000037  0.76030560  1
  Zn  Zn93  1  -0.00602224  0.11915631  0.12488920  1
  Zn  Zn94  1  0.25600373  0.49131742  0.74681478  1
  Zn  Zn95  1  0.75585529  0.61517640  0.87247505  1
  Zn  Zn96  1  0.63143013  0.25744262  0.86889377  1
  Zn  Zn97  1  0.25220838  0.12067001  0.87561724  1
  Zn  Zn98  1  0.24081961  0.61958954  0.37738092  1
  Zn  Zn99  1  0.12655699  0.11573889  0.49754328  1
  Zn  Zn100  1  0.74943816  0.25069153  -0.00214504  1
  Zn  Zn101  1  0.87390311  0.61275040  0.75604863  1
  Zn  Zn102  1  0.76510782  0.03135810  0.24568601  1
  Zn  Zn103  1  0.63468986  0.48766392  0.62738849  1
  Zn  Zn104  1  0.12329582  0.49546377  0.11675118  1
  Zn  Zn105  1  0.62593400  0.00007832  0.12153552  1
  Zn  Zn106  1  0.75485730  0.37835039  0.12373765  1
  Zn  Zn107  1  0.18913792  0.18313740  0.18560184  1
  Zn  Zn108  1  0.18869595  0.18410251  0.68770286  1
  Zn  Zn109  1  0.17419368  0.68195584  0.18684948  1
  Zn  Zn110  1  0.18893564  0.68485097  0.68671699  1
  Zn  Zn111  1  0.68644541  0.19524409  0.18627058  1
  Zn  Zn112  1  0.68896168  0.17791514  0.68388314  1
  Zn  Zn113  1  0.68744824  0.68715479  0.19106485  1
  Zn  Zn114  1  0.69737313  0.63175840  0.68034859  1
  Zn  Zn115  1  0.31192454  0.30937069  0.31386518  1
  Zn  Zn116  1  0.32028952  0.31000496  0.81430228  1
  Zn  Zn117  1  0.30860056  0.81023683  0.31335017  1
  Zn  Zn118  1  0.31372381  0.80823866  0.81316642  1
  Zn  Zn119  1  0.82641628  0.30969262  0.31209454  1
  Zn  Zn120  1  0.81408524  0.30870194  0.80884907  1
  Zn  Zn121  1  0.81292441  0.81882954  0.31755656  1
  Zn  Zn122  1  0.80909269  0.76584034  0.80964645  1
  Zn  Zn123  1  0.16236911  0.43891940  0.43404085  1
  Zn  Zn124  1  0.18384115  0.43574809  0.93411200  1
  Zn  Zn125  1  0.18877489  0.93937819  0.43798697  1
  Zn  Zn126  1  0.18442063  0.93731379  0.93555529  1
  Zn  Zn127  1  0.75595180  0.40145904  0.42603897  1
  Zn  Zn128  1  0.68646717  0.44120151  0.93914316  1
  Zn  Zn129  1  0.69021714  1.04644664  0.43593724  1
  Zn  Zn130  1  0.68305396  0.93697500  0.93670806  1
  Zn  Zn131  1  0.31262856  0.06375917  0.06298764  1
  Zn  Zn132  1  0.31447923  0.06534222  0.56650356  1
  Zn  Zn133  1  0.30606904  0.56215778  0.06263891  1
  Zn  Zn134  1  0.30721844  0.56084668  0.56813637  1
  Zn  Zn135  1  0.81027656  0.05986382  0.06059755  1
  Zn  Zn136  1  0.81435535  0.06470495  0.56676741  1
  Zn  Zn137  1  0.81620388  0.56373913  0.05602186  1
  Zn  Zn138  1  0.81291862  0.49900815  0.55703734  1
  Zn  Zn139  1  0.43338256  0.43793383  0.18623629  1
  Zn  Zn140  1  0.44788237  0.43549969  0.68680457  1
  Zn  Zn141  1  0.43834892  0.93775251  0.18229364  1
  Zn  Zn142  1  0.43832458  0.93979603  0.68309643  1
  Zn  Zn143  1  0.94275848  0.42373954  0.18232712  1
  Zn  Zn144  1  0.93936347  0.43904683  0.69130957  1
  Zn  Zn145  1  0.93762820  0.93845350  0.19035836  1
  Zn  Zn146  1  0.93534987  0.93160809  0.68767904  1
  Zn  Zn147  1  0.06599694  0.06258041  0.31623979  1
  Zn  Zn148  1  0.06460052  0.05744374  0.81212416  1
  Zn  Zn149  1  0.04688443  0.55634613  0.31885234  1
  Zn  Zn150  1  0.06342286  0.55815281  0.80794774  1
  Zn  Zn151  1  0.59371343  0.08441322  0.29038904  1
  Zn  Zn152  1  0.56407826  0.06077523  0.81056865  1
  Zn  Zn153  1  0.56035972  0.55959146  0.31142450  1
  Zn  Zn154  1  0.56959300  0.56419491  0.81296534  1
  Zn  Zn155  1  0.53765325  0.18811303  0.43680829  1
  Zn  Zn156  1  0.43742128  0.19464448  0.93418961  1
  Zn  Zn157  1  0.43055055  0.68634835  0.43360727  1
  Zn  Zn158  1  0.43696251  0.68757753  0.93693009  1
  Zn  Zn159  1  0.93946915  0.19187739  0.44030842  1
  Zn  Zn160  1  0.93587417  0.18740445  0.93583601  1
  Zn  Zn161  1  0.93333667  0.68822210  0.43542578  1
  Zn  Zn162  1  0.93800499  0.69343469  0.93909029  1
  Zn  Zn163  1  0.05933212  0.31045897  0.06147724  1
  Zn  Zn164  1  0.06275109  0.30553947  0.56947788  1
  Zn  Zn165  1  0.06171785  0.81404803  0.06193617  1
  Zn  Zn166  1  0.06334499  0.81479011  0.56198519  1
  Zn  Zn167  1  0.56360682  0.31792742  0.05894902  1
  Zn  Zn168  1  0.56234026  0.31620368  0.56087918  1
  Zn  Zn169  1  0.55933999  0.81079052  0.06475207  1
  Zn  Zn170  1  0.56565194  0.81669929  0.55882214  1
  O  O171  1  0.12659810  0.11180134  0.11438596  1
  O  O172  1  0.11080704  0.12149271  0.62902228  1
  O  O173  1  0.09613355  0.61632845  0.12943448  1
  O  O174  1  0.12566958  0.62193781  0.61529446  1
  O  O175  1  0.61184415  0.12636225  0.11384852  1
  O  O176  1  0.60965230  0.11330449  0.63030241  1
  O  O177  1  0.61575891  0.61963688  0.12436296  1
  O  O178  1  0.60556342  0.64070673  0.60674140  1
  O  O179  1  0.37667878  0.38507625  0.37808766  1
  O  O180  1  0.38397907  0.37347270  0.88738373  1
  O  O181  1  0.37844998  0.86411146  0.38578700  1
  O  O182  1  0.38524195  0.86998070  0.88139745  1
  O  O183  1  0.88045681  0.39422057  0.37486323  1
  O  O184  1  0.88766144  0.36001975  0.88721151  1
  O  O185  1  0.88423038  0.88343418  0.38456102  1
  O  O186  1  0.88676401  0.86382179  0.88223532  1
  O  O187  1  0.24779391  0.00819809  0.36416504  1
  O  O188  1  0.24891527  -0.00292995  0.86139001  1
  O  O189  1  0.24982516  0.49704256  0.36882928  1
  O  O190  1  0.24615692  0.51271139  0.87101044  1
  O  O191  1  0.76742605  -0.00366362  0.36540968  1
  O  O192  1  0.74259403  0.00878332  0.86613294  1
  O  O193  1  0.74940003  0.50890759  0.37755817  1
  O  O194  1  0.74715608  0.50475548  0.87417028  1
  O  O195  1  0.24448969  0.49234926  0.13299968  1
  O  O196  1  0.23385773  0.50713059  0.63414567  1
  O  O197  1  0.24292194  0.99453592  0.12906205  1
  O  O198  1  0.25154646  0.99221408  0.63704729  1
  O  O199  1  0.74156591  0.50392818  0.12483560  1
  O  O200  1  0.74007184  0.53725131  0.62752024  1
  O  O201  1  0.74734376  0.99377893  0.13334348  1
  O  O202  1  0.73657869  1.00364667  0.63663759  1
  O  O203  1  0.01628424  0.35613259  0.24257722  1
  O  O204  1  0.00896550  0.36354495  0.75654106  1
  O  O205  1  0.00717282  0.87065677  0.25837603  1
  O  O206  1  0.00965340  0.87162556  0.75699945  1
  O  O207  1  0.49826215  0.37254240  0.25521804  1
  O  O208  1  0.49123436  0.36636487  0.76693128  1
  O  O209  1  0.49731869  0.86438596  0.25080548  1
  O  O210  1  0.50024615  0.87188063  0.75674195  1
  O  O211  1  0.50179333  0.13705927  0.23792505  1
  O  O212  1  0.49362325  0.12920926  0.74474572  1
  O  O213  1  0.48885193  0.62948827  0.24309083  1
  O  O214  1  0.49378764  0.63489933  0.74340631  1
  O  O215  1  1.01012700  0.13375732  0.24238780  1
  O  O216  1  0.99514524  0.12616821  0.75000541  1
  O  O217  1  1.01315022  0.65096108  0.25745375  1
  O  O218  1  0.99942455  0.64146260  0.75728964  1
  O  O219  1  0.36793705  0.25623811  0.00822010  1
  O  O220  1  0.36651736  0.26054341  0.51176121  1
  O  O221  1  0.36698804  0.75559579  0.00616712  1
  O  O222  1  0.36780822  0.75581240  0.50451445  1
  O  O223  1  0.87522910  0.25414736  0.00954740  1
  O  O224  1  0.87521699  0.24124606  0.51863615  1
  O  O225  1  0.86914655  0.75834903  0.01553687  1
  O  O226  1  0.87379244  0.75715521  0.50682548  1
  O  O227  1  0.13241367  0.24249146  0.49450799  1
  O  O228  1  0.13404629  0.23911155  1.00733277  1
  O  O229  1  0.13255171  0.74151503  0.49974632  1
  O  O230  1  0.12646060  0.74643918  0.99177315  1
  O  O231  1  0.61261475  0.24559747  0.49526733  1
  O  O232  1  0.62508452  0.23746072  0.99857476  1
  O  O233  1  0.63428571  0.74855470  0.49559353  1
  O  O234  1  0.63100024  0.73932815  1.00973493  1
  O  O235  1  0.49175654  0.24703796  0.12444555  1
  O  O236  1  0.48991387  0.24020611  0.63303860  1
  O  O237  1  0.48966233  0.74302518  0.13443864  1
  O  O238  1  0.49253728  0.74920457  0.62998101  1
  O  O239  1  0.99009446  0.24388199  0.12877636  1
  O  O240  1  0.99438798  0.23443130  0.63728574  1
  O  O241  1  0.99155654  0.75863107  0.13530463  1
  O  O242  1  0.99411638  0.75570346  0.63061598  1
  O  O243  1  0.01048317  0.24054098  0.36468193  1
  O  O244  1  0.00005224  0.25138137  0.86247439  1
  O  O245  1  0.00279064  0.76216821  0.37063454  1
  O  O246  1  0.01213184  0.75881320  0.86942152  1
  O  O247  1  0.49203460  0.26255341  0.36004515  1
  O  O248  1  0.50302868  0.25782924  0.86529459  1
  O  O249  1  0.49023289  0.75314933  0.35890928  1
  O  O250  1  0.49896396  0.75930951  0.86691742  1
  O  O251  1  0.25420590  0.13396341  0.49383074  1
  O  O252  1  0.24389446  0.13142577  0.99879892  1
  O  O253  1  0.24915134  0.63818855  0.50020532  1
  O  O254  1  0.24428099  0.63112347  0.99325193  1
  O  O255  1  0.74815046  0.11939224  0.49711387  1
  O  O256  1  0.73999862  0.12090747  0.99194913  1
  O  O257  1  0.73537642  0.63380931  0.48069563  1
  O  O258  1  0.74324676  0.63625085  1.00093886  1
  O  O259  1  0.25755978  0.36868388  0.00069305  1
  O  O260  1  0.24980584  0.36151608  0.49283350  1
  O  O261  1  0.25217413  0.86958636  0.00427204  1
  O  O262  1  0.25757673  0.86526151  0.50260387  1
  O  O263  1  0.75935814  0.37176818  0.00193667  1
  O  O264  1  0.74993220  0.40326992  0.53700941  1
  O  O265  1  0.75138748  0.87656856  0.01563395  1
  O  O266  1  0.76637591  0.86672794  0.49605983  1
  O  O267  1  0.13213799  0.48740324  0.25111972  1
  O  O268  1  0.12969995  0.48749318  0.74382673  1
  O  O269  1  0.13395278  0.99658171  0.24171191  1
  O  O270  1  0.13329735  0.98665380  0.74866476  1
  O  O271  1  0.61647042  0.49235531  0.23864315  1
  O  O272  1  0.64151642  0.53472008  0.73619378  1
  O  O273  1  0.60864060  0.98046505  0.24066008  1
  O  O274  1  0.63158704  0.99136487  0.74396555  1
  O  O275  1  0.36232232  0.00143962  0.23973103  1
  O  O276  1  0.36919771  0.00837383  0.74576505  1
  O  O277  1  0.35963334  0.50040128  0.25610013  1
  O  O278  1  0.37579785  0.51387032  0.74405209  1
  O  O279  1  0.87598697  0.00092161  0.26249309  1
  O  O280  1  0.86167814  -0.00029814  0.74663798  1
  O  O281  1  0.95400162  0.52228814  0.23831409  1
  O  O282  1  0.86678162  0.50228129  0.74346769  1
  O  O283  1  0.13702738  0.35272527  0.36305371  1
  O  O284  1  0.11442760  0.37188116  0.86674896  1
  O  O285  1  0.11790289  0.86922289  0.37294400  1
  O  O286  1  0.11984014  0.86602506  0.86788606  1
  O  O287  1  0.60768221  0.38796494  0.36293563  1
  O  O288  1  0.60756325  0.37177430  0.88908632  1
  O  O289  1  0.60695249  0.86491971  0.36151531  1
  O  O290  1  0.60947453  0.87537835  0.86781131  1
  O  O291  1  0.38558512  0.13390278  0.12423291  1
  O  O292  1  0.38308351  0.13137729  0.63669000  1
  O  O293  1  0.37783297  0.62706154  0.12903277  1
  O  O294  1  0.38281758  0.63310227  0.63075337  1
  O  O295  1  0.87413526  0.13657831  0.12016391  1
  O  O296  1  0.88605370  0.12540758  0.63795302  1
  O  O297  1  0.89151867  0.63217554  0.12316062  1
  O  O298  1  0.88215126  0.64312511  0.63071425  1
  O  O299  1  0.25790833  0.25285304  0.11722418  1
  O  O300  1  0.26038040  0.24183532  0.61682446  1
  O  O301  1  0.24834043  0.75217768  0.11984086  1
  O  O302  1  0.25566267  0.75646937  0.61840441  1
  O  O303  1  0.76138177  0.25209156  0.12162147  1
  O  O304  1  0.76462751  0.24164275  0.62795716  1
  O  O305  1  0.75696391  0.75537315  0.12166490  1
  O  O306  1  0.76556622  0.74244529  0.60671820  1
  O  O307  1  0.24714128  0.24006812  0.38233678  1
  O  O308  1  0.25523149  0.24623358  0.88805681  1
  O  O309  1  0.24023490  0.74691408  0.38337897  1
  O  O310  1  0.23946024  0.74576858  0.87993518  1
  O  O311  1  0.75119631  0.29288381  0.38978959  1
  O  O312  1  0.74865609  0.23294691  0.87667973  1
  O  O313  1  0.75345822  0.74844380  0.38612395  1
  O  O314  1  0.73865848  0.77419730  0.90126107  1
  O  O315  1  0.00608798  0.11628780  -0.00024838  1
  O  O316  1  0.00152037  0.12636722  0.51745486  1
  O  O317  1  -0.00135163  0.61061736  -0.01302286  1
  O  O318  1  0.01224212  0.63486494  0.50227295  1
  O  O319  1  0.50161192  0.12051393  0.00096880  1
  O  O320  1  0.48276572  0.11279174  0.51232956  1
  O  O321  1  0.50662110  0.63353998  0.01148482  1
  O  O322  1  0.49556774  0.62172739  0.50518100  1
  O  O323  1  0.48815547  0.38574148  0.49035784  1
  O  O324  1  0.48560024  0.37258789  0.99013576  1
  O  O325  1  0.49366016  0.87939278  0.48770773  1
  O  O326  1  0.49554339  0.88281748  0.99380270  1
  O  O327  1  0.99540635  0.35644303  0.49499926  1
  O  O328  1  0.99737675  0.37968408  0.98940101  1
  O  O329  1  0.99237609  0.87277027  0.49067572  1
  O  O330  1  0.99581832  0.88149496  0.99259290  1
  O  O331  1  0.48585954  0.49599739  0.38094726  1
  O  O332  1  0.50260099  0.48763388  0.86861948  1
  O  O333  1  0.48407663  0.97907935  0.37275340  1
  O  O334  1  0.50023185  0.99341572  0.88228940  1
  O  O335  1  1.03419511  0.47453005  0.39412723  1
  O  O336  1  1.00202229  0.48621117  0.87634900  1
  O  O337  1  0.99253546  0.99119014  0.36908411  1
  O  O338  1  1.00603735  0.98762092  0.88378192  1
  O  O339  1  0.00852407  -0.00153914  0.11762779  1
  O  O340  1  0.00083518  0.01291795  0.63577849  1
  O  O341  1  0.00222367  0.49531294  0.10355158  1
  O  O342  1  0.02229215  0.50043489  0.63503926  1
  O  O343  1  0.49896076  0.01111277  0.11445891  1
  O  O344  1  0.50818855  0.00693950  0.62070063  1
  O  O345  1  0.50109984  0.51176710  0.12756607  1
  O  O346  1  0.49452601  0.51317772  0.61558819  1
  O  O347  1  0.24327591  0.37732509  0.24318567  1
  O  O348  1  0.23982896  0.37129143  0.76025046  1
  O  O349  1  0.24489491  0.88181378  0.24544508  1
  O  O350  1  0.24598274  0.87765443  0.74660567  1
  O  O351  1  0.73808561  0.37302446  0.24424886  1
  O  O352  1  0.74626161  0.36678575  0.74551831  1
  O  O353  1  0.73800113  0.86917761  0.24124584  1
  O  O354  1  0.73582304  0.87654044  0.75906661  1
  O  O355  1  0.25403066  0.11692689  0.25572125  1
  O  O356  1  0.25792522  0.11514429  0.75206690  1
  O  O357  1  0.24764141  0.61335739  0.24990189  1
  O  O358  1  0.26041889  0.62957759  0.75921343  1
  O  O359  1  0.70036877  0.12005960  0.26606756  1
  O  O360  1  0.75806637  0.11336296  0.75603903  1
  O  O361  1  0.73901610  0.63134558  0.27435951  1
  O  O362  1  0.75786903  0.66826474  0.76461508  1
  O  O363  1  0.36454576  0.12810745  0.36968760  1
  O  O364  1  0.37471519  0.12886613  0.86183692  1
  O  O365  1  0.36687153  0.61110868  0.36757028  1
  O  O366  1  0.36490001  0.63295699  0.86596483  1
  O  O367  1  0.88413395  0.11045149  0.37948419  1
  O  O368  1  0.86858995  0.12239490  0.86448147  1
  O  O369  1  0.86842709  0.61990785  0.37380690  1
  O  O370  1  0.86382079  0.66489143  0.86359547  1
  O  O371  1  0.13250061  0.37221509  0.13107892  1
  O  O372  1  0.12542068  0.38167777  0.63312163  1
  O  O373  1  0.13033415  0.88503102  0.12835259  1
  O  O374  1  0.13284674  0.87392881  0.63454304  1
  O  O375  1  0.62556305  0.38830980  0.12883773  1
  O  O376  1  0.60474113  0.38011986  0.63801651  1
  O  O377  1  0.63188168  0.87472885  0.12934213  1
  O  O378  1  0.61580583  0.88366153  0.63797848  1
  O  O379  1  0.12301758  0.25018352  0.25452468  1
  O  O380  1  0.11811753  0.25605460  0.74320500  1
  O  O381  1  0.12140470  0.76093929  0.25593087  1
  O  O382  1  0.12087171  0.75829743  0.75387979  1
  O  O383  1  0.60777417  0.26818470  0.23674821  1
  O  O384  1  0.61217568  0.23966696  0.74918274  1
  O  O385  1  0.61087928  0.75735784  0.24654254  1
  O  O386  1  0.60763419  0.75985913  0.75081568  1
  O  O387  1  0.38204793  0.25286658  0.23503202  1
  O  O388  1  0.38207373  0.24226436  0.74406346  1
  O  O389  1  0.37396543  0.74141930  0.24271538  1
  O  O390  1  0.38397810  0.74562823  0.74356083  1
  O  O391  1  0.88583697  0.25312219  0.23643180  1
  O  O392  1  0.88497967  0.23489112  0.74539089  1
  O  O393  1  0.88222811  0.75982869  0.24030845  1
  O  O394  1  0.88839671  0.77243087  0.72675946  1
  O  O395  1  0.37546262  0.49697266  0.49449197  1
  O  O396  1  0.36934637  0.48626148  1.00311973  1
  O  O397  1  0.38125304  0.98909837  0.50365336  1
  O  O398  1  0.38460362  0.99432784  1.00347363  1
  O  O399  1  0.90680604  0.49896404  0.50110853  1
  O  O400  1  0.88399248  0.48863641  1.00023062  1
  O  O401  1  0.87185224  0.99032282  0.49136349  1
  O  O402  1  0.88794440  0.99376317  1.00503179  1
  O  O403  1  0.11663541  0.00275690  0.00661984  1
  O  O404  1  0.13051451  0.00252358  0.50651242  1
  O  O405  1  0.11526608  0.50322425  -0.00285416  1
  O  O406  1  0.13219266  0.51460643  0.51476810  1
  O  O407  1  0.61248230  0.01062092  0.00067618  1
  O  O408  1  0.61547796  -0.01405189  0.51151596  1
  O  O409  1  0.62549409  0.51500693  0.01259747  1
  O  O410  1  0.60421987  0.51360495  0.50148611  1
  O  O411  1  0.37030204  0.36951206  0.11301664  1
  O  O412  1  0.38011309  0.36319214  0.62323149  1
  O  O413  1  0.36710772  0.86784994  0.11750694  1
  O  O414  1  0.37092733  0.86987356  0.61559987  1
  O  O415  1  0.87596399  0.36351563  0.11260052  1
  O  O416  1  0.88769097  0.35244181  0.63206815  1
  O  O417  1  0.86672233  0.87030783  0.12241149  1
  O  O418  1  0.88024789  0.87378107  0.60620792  1
  O  O419  1  0.13616515  0.13314626  0.37585121  1
  O  O420  1  0.12917675  0.11722854  0.88854180  1
  O  O421  1  0.12266749  0.62983897  0.39020179  1
  O  O422  1  0.13287420  0.63439770  0.87098672  1
  O  O423  1  0.58276453  0.08508838  0.40365563  1
  O  O424  1  0.63113189  0.12604451  0.88034099  1
  O  O425  1  0.60857400  0.63237623  0.38558554  1
  O  O426  1  0.62236286  0.63432003  0.88940305  1
