# generated using pymatgen
data_V85Zn86O256
_symmetry_space_group_name_H-M   'P 1'
_cell_length_a   16.99710219
_cell_length_b   16.97694130
_cell_length_c   16.99359247
_cell_angle_alpha   90.03321521
_cell_angle_beta   89.95280053
_cell_angle_gamma   89.95658783
_symmetry_Int_Tables_number   1
_chemical_formula_structural   V85Zn86O256
_chemical_formula_sum   'V85 Zn86 O256'
_cell_volume   4903.64685880
_cell_formula_units_Z   1
loop_
 _symmetry_equiv_pos_site_id
 _symmetry_equiv_pos_as_xyz
  1  'x, y, z'
loop_
 _atom_site_type_symbol
 _atom_site_label
 _atom_site_symmetry_multiplicity
 _atom_site_fract_x
 _atom_site_fract_y
 _atom_site_fract_z
 _atom_site_occupancy
  V  V0  1  0.12162811  0.88258895  0.24396893  1
  V  V1  1  0.87791210  0.24800279  0.62561203  1
  V  V2  1  0.25418170  0.37391453  0.11325108  1
  V  V3  1  0.88272118  0.13074923  0.75376890  1
  V  V4  1  0.37625139  0.37661515  0.49900567  1
  V  V5  1  0.12263304  0.12320016  0.49818747  1
  V  V6  1  0.50536524  0.24831376  0.75654719  1
  V  V7  1  0.50145709  0.75184107  0.74874816  1
  V  V8  1  0.86849844  0.75418556  0.12647336  1
  V  V9  1  0.12260616  0.37670424  0.75103376  1
  V  V10  1  0.86946671  0.87438969  -0.00463504  1
  V  V11  1  0.24848661  0.00279804  0.23685147  1
  V  V12  1  0.25175695  0.00315014  0.75337602  1
  V  V13  1  0.88609166  0.00717942  0.38519191  1
  V  V14  1  0.62159367  0.87859275  0.24960153  1
  V  V15  1  0.25487623  0.86330256  0.11576098  1
  V  V16  1  0.25150784  0.74984435  0.49868391  1
  V  V17  1  -0.00262092  0.49799024  0.00260159  1
  V  V18  1  0.87194294  0.62374271  0.74631112  1
  V  V19  1  0.73946984  0.88108003  0.11942851  1
  V  V20  1  0.50125779  0.87901692  0.89067501  1
  V  V21  1  0.50022357  0.37271391  0.88659005  1
  V  V22  1  0.87580052  -0.00030766  0.87479045  1
  V  V23  1  -0.00558126  0.37318461  0.87993594  1
  V  V24  1  0.87614422  0.37093882  0.49970441  1
  V  V25  1  0.12779725  0.37053287  0.24586775  1
  V  V26  1  0.62405340  0.37321515  0.24620760  1
  V  V27  1  0.37060336  0.62563708  0.74936774  1
  V  V28  1  -0.01282487  0.24468325  0.23794850  1
  V  V29  1  0.87391452  0.50323126  0.87533950  1
  V  V30  1  0.00374160  0.37119371  0.37299173  1
  V  V31  1  0.38486661  0.25652671  0.11670419  1
  V  V32  1  0.25086454  0.87565119  0.62411229  1
  V  V33  1  0.37152140  0.48879620  0.88924413  1
  V  V34  1  0.76972440  -0.03093488  0.72929194  1
  V  V35  1  0.24920047  0.62590824  0.37241868  1
  V  V36  1  0.12289163  0.76018389  0.37765513  1
  V  V37  1  0.12650494  0.86726546  0.75623012  1
  V  V38  1  0.62391210  0.49755975  0.11065435  1
  V  V39  1  0.49223863  0.00863492  0.49937080  1
  V  V40  1  0.50697651  0.62490524  0.62056688  1
  V  V41  1  0.50569839  0.61858897  0.11483346  1
  V  V42  1  0.75291968  0.00198938  0.24689676  1
  V  V43  1  0.37628747  0.25024028  0.62698778  1
  V  V44  1  0.87387827  0.62520247  0.24907917  1
  V  V45  1  0.37999495  -0.00087095  0.88758385  1
  V  V46  1  0.62124878  0.11908903  -0.00181185  1
  V  V47  1  0.25092102  0.37554891  0.62414475  1
  V  V48  1  0.75158724  0.12419886  0.36874308  1
  V  V49  1  0.11610510  0.64356762  -0.01062125  1
  V  V50  1  0.50351453  0.10647570  0.12464568  1
  V  V51  1  0.37910995  0.87512167  0.49645407  1
  V  V52  1  -0.00310026  0.62643818  0.62465231  1
  V  V53  1  0.62884263  0.36722189  0.75442261  1
  V  V54  1  0.00109050  0.62893185  0.12668518  1
  V  V55  1  0.74670814  0.12916689  0.87185260  1
  V  V56  1  0.37909273  0.74947963  0.62147073  1
  V  V57  1  0.29751937  0.68028587  0.93128479  1
  V  V58  1  0.36908071  0.00278753  0.37063627  1
  V  V59  1  0.74879589  0.49846032  0.24758572  1
  V  V60  1  0.87368283  0.49459209  0.37167924  1
  V  V61  1  0.70533159  0.55752219  0.80837489  1
  V  V62  1  0.25202286  0.50406438  0.75459199  1
  V  V63  1  0.74641307  0.24201585  0.50074347  1
  V  V64  1  0.37396984  0.12309831  0.75483107  1
  V  V65  1  0.76468318  0.24694473  0.00140556  1
  V  V66  1  0.13155956  0.24675964  0.87917038  1
  V  V67  1  0.51125660  0.50151772  0.49957263  1
  V  V68  1  -0.05818251  0.82751665  0.43774313  1
  V  V69  1  -0.00038865  0.74606686  0.75572024  1
  V  V70  1  0.75040502  0.37664604  0.63033724  1
  V  V71  1  0.64728819  -0.00426493  0.60463629  1
  V  V72  1  0.37697573  0.62822445  0.24750793  1
  V  V73  1  0.12590959  0.50042219  0.62438553  1
  V  V74  1  0.50102895  0.37433118  0.37422885  1
  V  V75  1  0.11801743  0.00114257  0.62651552  1
  V  V76  1  0.62030128  0.74561150  0.38026639  1
  V  V77  1  0.24878382  0.49906225  0.24998234  1
  V  V78  1  0.74038753  0.73452721  -0.00440683  1
  V  V79  1  0.76335346  0.36663823  0.12355639  1
  V  V80  1  0.62275473  0.24369406  0.37778048  1
  V  V81  1  0.50620048  0.12395978  0.62308858  1
  V  V82  1  0.62006012  0.88145832  0.75055385  1
  V  V83  1  -0.00646827  0.76126378  0.25370564  1
  V  V84  1  0.12400413  0.62396541  0.49797307  1
  Zn  Zn85  1  0.25041298  0.24947463  0.49673126  1
  Zn  Zn86  1  0.49729283  0.87516071  0.36949903  1
  Zn  Zn87  1  0.00341970  0.10627060  0.12551555  1
  Zn  Zn88  1  0.37405816  0.12862489  0.24650691  1
  Zn  Zn89  1  0.01307950  -0.00712675  0.00828438  1
  Zn  Zn90  1  0.00331038  0.25103445  0.75093208  1
  Zn  Zn91  1  0.25060380  0.12947030  0.37201340  1
  Zn  Zn92  1  0.73911845  0.61888623  0.38081391  1
  Zn  Zn93  1  0.12505102  0.50293918  0.12205284  1
  Zn  Zn94  1  0.62970712  0.73786627  0.87099696  1
  Zn  Zn95  1  0.50023481  0.24706675  0.24720443  1
  Zn  Zn96  1  0.25740945  0.24212648  -0.00610852  1
  Zn  Zn97  1  0.37637651  0.74713184  0.11073214  1
  Zn  Zn98  1  0.13307238  0.10954281  0.01245995  1
  Zn  Zn99  1  0.50017365  0.75037020  0.24397798  1
  Zn  Zn100  1  0.62993597  0.50164680  0.62750155  1
  Zn  Zn101  1  0.37772358  0.50089532  0.37390978  1
  Zn  Zn102  1  0.76220738  0.74422864  0.50605284  1
  Zn  Zn103  1  -0.00401723  0.12104882  0.62013532  1
  Zn  Zn104  1  0.00144433  0.86780865  0.87576189  1
  Zn  Zn105  1  0.00277842  0.49495191  0.50044673  1
  Zn  Zn106  1  0.12894810  0.24859263  0.37427618  1
  Zn  Zn107  1  0.18759998  0.18801559  0.17990862  1
  Zn  Zn108  1  0.18881777  0.18709745  0.68813185  1
  Zn  Zn109  1  0.18258195  0.69082052  0.18619273  1
  Zn  Zn110  1  0.18736251  0.68742821  0.68697922  1
  Zn  Zn111  1  0.68572681  0.18584469  0.18353328  1
  Zn  Zn112  1  0.68908991  0.17806134  0.68501687  1
  Zn  Zn113  1  0.68549324  0.68866497  0.18979202  1
  Zn  Zn114  1  0.68915721  0.69723085  0.67884205  1
  Zn  Zn115  1  0.31459904  0.30893914  0.30811851  1
  Zn  Zn116  1  0.31361745  0.31494668  0.81076461  1
  Zn  Zn117  1  0.30930622  0.81415001  0.30817164  1
  Zn  Zn118  1  0.31962356  0.82108357  0.80966326  1
  Zn  Zn119  1  0.81074029  0.31053308  0.31038446  1
  Zn  Zn120  1  0.81311099  0.31027758  0.81689802  1
  Zn  Zn121  1  0.80067312  0.81449981  0.31458366  1
  Zn  Zn122  1  0.81171956  0.80288014  0.81321962  1
  Zn  Zn123  1  0.18886310  0.43654866  0.43538168  1
  Zn  Zn124  1  0.18069598  0.44235532  0.93738727  1
  Zn  Zn125  1  0.18712716  0.94147598  0.43772901  1
  Zn  Zn126  1  0.19422890  0.93267505  0.93416506  1
  Zn  Zn127  1  0.68896904  0.42995579  0.43754555  1
  Zn  Zn128  1  0.68697876  0.42190618  0.93979220  1
  Zn  Zn129  1  0.68069643  0.94452649  0.43385444  1
  Zn  Zn130  1  0.69066436  0.94125197  0.93064664  1
  Zn  Zn131  1  0.31159066  0.06859750  0.06298977  1
  Zn  Zn132  1  0.30903256  0.06552672  0.56595176  1
  Zn  Zn133  1  0.30948091  0.56323401  0.06890982  1
  Zn  Zn134  1  0.31555942  0.56183300  0.56144968  1
  Zn  Zn135  1  0.81587099  0.06567847  0.06204510  1
  Zn  Zn136  1  0.80735157  0.05315780  0.55812244  1
  Zn  Zn137  1  0.81483723  0.55745247  0.06535476  1
  Zn  Zn138  1  0.81352576  0.55511678  0.56312066  1
  Zn  Zn139  1  0.43708363  0.43848562  0.18574722  1
  Zn  Zn140  1  0.43958384  0.43728791  0.68989455  1
  Zn  Zn141  1  0.43096354  0.93341951  0.18446124  1
  Zn  Zn142  1  0.43964485  0.93819964  0.68643657  1
  Zn  Zn143  1  0.94114344  0.43521091  0.18726795  1
  Zn  Zn144  1  0.93641920  0.44009321  0.69066326  1
  Zn  Zn145  1  0.91850064  0.96941425  0.17224118  1
  Zn  Zn146  1  0.93887793  0.93683991  0.69055040  1
  Zn  Zn147  1  0.06442367  0.06553116  0.30980527  1
  Zn  Zn148  1  0.07960032  0.04517965  0.84311269  1
  Zn  Zn149  1  0.06136032  0.56330929  0.31137565  1
  Zn  Zn150  1  0.06113473  0.56254861  0.81541420  1
  Zn  Zn151  1  0.56153154  0.06081809  0.31132956  1
  Zn  Zn152  1  0.56837283  0.05816857  0.81161873  1
  Zn  Zn153  1  0.56109569  0.56094239  0.30730152  1
  Zn  Zn154  1  0.54319979  0.55537051  0.80922287  1
  Zn  Zn155  1  0.43358355  0.18931583  0.43521274  1
  Zn  Zn156  1  0.43960210  0.18484474  0.93883066  1
  Zn  Zn157  1  0.44253358  0.68722488  0.43239612  1
  Zn  Zn158  1  0.46083937  0.68441038  0.93598660  1
  Zn  Zn159  1  0.93983560  0.18510034  0.43414431  1
  Zn  Zn160  1  0.94612805  0.18154981  0.94347551  1
  Zn  Zn161  1  0.90580043  0.65711374  0.46042747  1
  Zn  Zn162  1  0.93028923  0.68608376  0.93693929  1
  Zn  Zn163  1  0.06340756  0.31104155  0.06208771  1
  Zn  Zn164  1  0.06342956  0.30862699  0.56131623  1
  Zn  Zn165  1  0.05244342  0.82914352  0.07204615  1
  Zn  Zn166  1  0.06483652  0.80836307  0.57327122  1
  Zn  Zn167  1  0.57522205  0.30145476  0.06050404  1
  Zn  Zn168  1  0.56392267  0.31223990  0.56533472  1
  Zn  Zn169  1  0.56564880  0.80542009  0.06458953  1
  Zn  Zn170  1  0.59617785  0.80089267  0.57725531  1
  O  O171  1  0.11595211  0.12647054  0.12434248  1
  O  O172  1  0.12349927  0.11822357  0.61923398  1
  O  O173  1  0.11545563  0.62514471  0.11761489  1
  O  O174  1  0.11996712  0.61868717  0.61741151  1
  O  O175  1  0.61052910  0.12500428  0.11682779  1
  O  O176  1  0.61064307  0.11522770  0.62298228  1
  O  O177  1  0.61290216  0.61373762  0.13454574  1
  O  O178  1  0.61006752  0.62007075  0.63047587  1
  O  O179  1  0.38264594  0.37640523  0.38240862  1
  O  O180  1  0.38206703  0.38220104  0.87490475  1
  O  O181  1  0.37357523  0.88172913  0.38036359  1
  O  O182  1  0.39297332  0.88329199  0.87086481  1
  O  O183  1  0.88129043  0.38006871  0.37621304  1
  O  O184  1  0.88696858  0.38638573  0.86755055  1
  O  O185  1  0.87343940  0.88271982  0.38269469  1
  O  O186  1  0.86969339  0.87943882  0.87926440  1
  O  O187  1  0.25988023  0.00015263  0.36730453  1
  O  O188  1  0.26653783  -0.01457296  0.85818101  1
  O  O189  1  0.25111908  0.50466712  0.36293161  1
  O  O190  1  0.25916471  0.49196682  0.86609210  1
  O  O191  1  0.75381385  0.01071906  0.37125134  1
  O  O192  1  0.76056624  0.00602220  0.85655943  1
  O  O193  1  0.75714162  0.49604701  0.36839864  1
  O  O194  1  0.75658743  0.49430583  0.87724191  1
  O  O195  1  0.24761716  0.49410264  0.13573568  1
  O  O196  1  0.24567013  0.49537349  0.63136449  1
  O  O197  1  0.25827135  0.98851448  0.13442075  1
  O  O198  1  0.24455973  0.99442298  0.63593003  1
  O  O199  1  0.74316839  0.49181142  0.13032162  1
  O  O200  1  0.74828916  0.48110101  0.61841271  1
  O  O201  1  0.74871774  0.99091276  0.13418794  1
  O  O202  1  0.73966900  1.04635552  0.65314404  1
  O  O203  1  0.00928405  0.36910300  0.25472006  1
  O  O204  1  0.00893491  0.37699072  0.75739635  1
  O  O205  1  0.00811915  0.86311390  0.25202410  1
  O  O206  1  0.00742343  0.86215458  0.74609440  1
  O  O207  1  0.50860070  0.37593401  0.25702181  1
  O  O208  1  0.50788412  0.36652809  0.75468575  1
  O  O209  1  0.50748510  0.87456027  0.24748827  1
  O  O210  1  0.50661359  0.87091844  0.75450853  1
  O  O211  1  0.50185405  0.12419244  0.23460530  1
  O  O212  1  0.49769657  0.13060023  0.74381854  1
  O  O213  1  0.48942705  0.62319660  0.24126012  1
  O  O214  1  0.48890454  0.63056607  0.74111771  1
  O  O215  1  1.00659849  0.14430277  0.25172451  1
  O  O216  1  0.98713548  0.13027910  0.74984896  1
  O  O217  1  0.99514745  0.63654900  0.24603144  1
  O  O218  1  0.99427982  0.62736536  0.74425859  1
  O  O219  1  0.37600112  0.24813920  0.01180363  1
  O  O220  1  0.37595239  0.26336660  0.50684007  1
  O  O221  1  0.36526636  0.73129643  -0.01120175  1
  O  O222  1  0.37233039  0.75740863  0.50069451  1
  O  O223  1  0.86396550  0.24023187  0.00158786  1
  O  O224  1  0.86958117  0.25226272  0.50612729  1
  O  O225  1  0.86383831  0.75840990  0.00333187  1
  O  O226  1  0.88290206  0.76634875  0.49527022  1
  O  O227  1  0.12935369  0.23799963  0.50008589  1
  O  O228  1  0.12498419  0.25260317  0.98370237  1
  O  O229  1  0.12971925  0.74493119  0.49485768  1
  O  O230  1  0.10962859  0.74107312  1.00451100  1
  O  O231  1  0.63416906  0.25706923  0.49061868  1
  O  O232  1  0.64253095  0.22847709  1.00357955  1
  O  O233  1  0.60093289  0.74656920  0.47798560  1
  O  O234  1  0.63613106  0.74453669  0.99519788  1
  O  O235  1  0.49360235  0.25105207  0.12560870  1
  O  O236  1  0.49503499  0.24377035  0.63299621  1
  O  O237  1  0.49735333  0.73455394  0.12540305  1
  O  O238  1  0.49902617  0.74296507  0.62761614  1
  O  O239  1  0.99848085  0.25641410  0.13742961  1
  O  O240  1  0.98717571  0.25102009  0.62699207  1
  O  O241  1  0.98794102  0.75003288  0.13672304  1
  O  O242  1  1.00208039  0.73303940  0.63403775  1
  O  O243  1  0.00236524  0.26122906  0.36721715  1
  O  O244  1  0.00710916  0.26009175  0.87383378  1
  O  O245  1  -0.00034050  0.75920057  0.37715030  1
  O  O246  1  -0.00755978  0.74785295  0.85959241  1
  O  O247  1  0.50732562  0.25498956  0.37274024  1
  O  O248  1  0.49298662  0.25599530  0.86216921  1
  O  O249  1  0.50601072  0.75290934  0.36263417  1
  O  O250  1  0.50708387  0.76022491  0.86747638  1
  O  O251  1  0.23875916  0.12805622  0.50070736  1
  O  O252  1  0.24469731  0.12963085  1.00014208  1
  O  O253  1  0.24621407  0.62979584  0.49248538  1
  O  O254  1  0.23631264  0.62790301  0.99838132  1
  O  O255  1  0.75185664  0.13712630  0.48819117  1
  O  O256  1  0.74984696  0.12969279  0.99227164  1
  O  O257  1  0.78700566  0.63265186  0.48635629  1
  O  O258  1  0.75432321  0.63740823  1.00851208  1
  O  O259  1  0.24271853  0.37737389  0.01249921  1
  O  O260  1  0.25953384  0.37674493  0.50622401  1
  O  O261  1  0.24129672  0.87456263  0.01790216  1
  O  O262  1  0.25818877  0.87049963  0.50446432  1
  O  O263  1  0.74815725  0.35585795  0.00895659  1
  O  O264  1  0.75720469  0.36212866  0.50615755  1
  O  O265  1  0.74952237  0.86828891  0.00441399  1
  O  O266  1  0.72528757  0.95935045  0.53878601  1
  O  O267  1  0.13136298  0.49125695  0.24836187  1
  O  O268  1  0.13196199  0.49314508  0.74865798  1
  O  O269  1  0.13532648  0.98921672  0.26042816  1
  O  O270  1  0.13494110  0.99307350  0.74796411  1
  O  O271  1  0.63166911  0.48696567  0.24700826  1
  O  O272  1  0.63341602  0.49488623  0.75254702  1
  O  O273  1  0.63546376  0.98626264  0.26103919  1
  O  O274  1  0.63839430  0.99140205  0.74254508  1
  O  O275  1  0.36578292  0.00058680  0.25586108  1
  O  O276  1  0.37041642  0.00734878  0.75093925  1
  O  O277  1  0.36581403  0.50986254  0.25028641  1
  O  O278  1  0.36846046  0.50582332  0.75833416  1
  O  O279  1  0.85453009  -0.01450934  0.26727909  1
  O  O280  1  0.87186849  0.01622262  0.75680852  1
  O  O281  1  0.86854949  0.50046245  0.25433677  1
  O  O282  1  0.87528191  0.51163780  0.75911075  1
  O  O283  1  0.11777374  0.37517873  0.36727366  1
  O  O284  1  0.11438102  0.37281745  0.86720575  1
  O  O285  1  0.13029453  0.86439789  0.36917775  1
  O  O286  1  0.12441286  0.87076313  0.85858275  1
  O  O287  1  0.62161945  0.36444383  0.36711050  1
  O  O288  1  0.61751385  0.37686423  0.86075587  1
  O  O289  1  0.62108450  0.86770285  0.36932563  1
  O  O290  1  0.61168898  0.87951795  0.86900433  1
  O  O291  1  0.39183914  0.13313998  0.12337430  1
  O  O292  1  0.38184144  0.13070723  0.63659741  1
  O  O293  1  0.38538925  0.62467007  0.12970685  1
  O  O294  1  0.38245222  0.63134200  0.62859478  1
  O  O295  1  0.89236456  0.08123992  0.13869668  1
  O  O296  1  0.87604326  0.13343217  0.63226011  1
  O  O297  1  0.88054019  0.63317368  0.13135700  1
  O  O298  1  0.88586890  0.61397690  0.63333970  1
  O  O299  1  0.26251142  0.26025772  0.12310134  1
  O  O300  1  0.25907428  0.25883702  0.62561435  1
  O  O301  1  0.25481784  0.75856196  0.12808555  1
  O  O302  1  0.25754335  0.75371236  0.61643514  1
  O  O303  1  0.75063722  0.25414869  0.11688306  1
  O  O304  1  0.75728731  0.25336459  0.61713990  1
  O  O305  1  0.75122208  0.75629583  0.11624955  1
  O  O306  1  0.70774904  0.76885384  0.59755839  1
  O  O307  1  0.24802442  0.24887351  0.37740584  1
  O  O308  1  0.23543601  0.26463092  0.87607219  1
  O  O309  1  0.24035961  0.74602708  0.37928939  1
  O  O310  1  0.25428540  0.74569596  0.87128344  1
  O  O311  1  0.74411814  0.24439127  0.37984843  1
  O  O312  1  0.75432162  0.24415755  0.89156909  1
  O  O313  1  0.73381260  0.75300523  0.38743045  1
  O  O314  1  0.74757341  0.74561808  0.89080513  1
  O  O315  1  0.00889348  0.11238104  0.00287936  1
  O  O316  1  0.01671016  0.12975170  0.50244273  1
  O  O317  1  0.00353204  0.62289942  0.00585316  1
  O  O318  1  0.00305145  0.61906488  0.50892860  1
  O  O319  1  0.51317231  0.12642709  0.00755487  1
  O  O320  1  0.48475333  0.12040441  0.51165487  1
  O  O321  1  0.50347438  0.61811207  0.01516079  1
  O  O322  1  0.49066464  0.61222482  0.50795745  1
  O  O323  1  0.49489144  0.38092015  0.49619517  1
  O  O324  1  0.51516073  0.36446039  0.98430356  1
  O  O325  1  0.48304763  0.88485312  0.49836534  1
  O  O326  1  0.50415994  0.86829744  0.98875473  1
  O  O327  1  0.99503627  0.37321922  0.49050422  1
  O  O328  1  1.00501013  0.38537130  0.99160032  1
  O  O329  1  1.00100089  0.87472590  0.50152056  1
  O  O330  1  0.98389215  0.87253630  0.99204571  1
  O  O331  1  0.50015705  0.49371564  0.38272121  1
  O  O332  1  0.48179023  0.48792602  0.87404843  1
  O  O333  1  0.48479344  1.00037205  0.37946171  1
  O  O334  1  0.49538911  0.98747943  0.87174424  1
  O  O335  1  0.99342585  0.48629775  0.37141678  1
  O  O336  1  0.99234974  0.49459153  0.88197950  1
  O  O337  1  0.98343082  1.00501384  0.36578855  1
  O  O338  1  0.98051440  0.98959621  0.86513253  1
  O  O339  1  0.01653925  -0.02825642  0.12089663  1
  O  O340  1  0.01487988  0.00073604  0.63309970  1
  O  O341  1  -0.00055975  0.50822664  0.11835173  1
  O  O342  1  0.00912538  0.50761534  0.62622762  1
  O  O343  1  0.49506139  0.00884410  0.12317782  1
  O  O344  1  0.49284241  0.01120351  0.61524309  1
  O  O345  1  0.50947116  0.50830259  0.12928393  1
  O  O346  1  0.50150259  0.50647133  0.61809911  1
  O  O347  1  0.24470001  0.38292083  0.24402975  1
  O  O348  1  0.24483590  0.38671478  0.74324931  1
  O  O349  1  0.24159065  0.88129080  0.24266141  1
  O  O350  1  0.24487244  0.87772632  0.74071416  1
  O  O351  1  0.74259867  0.37694336  0.24273469  1
  O  O352  1  0.74238311  0.36392350  0.74156747  1
  O  O353  1  0.74081402  0.87984757  0.24035638  1
  O  O354  1  0.72847879  0.86983594  0.76527328  1
  O  O355  1  0.25146608  0.11487939  0.24866916  1
  O  O356  1  0.26109113  0.11530006  0.74611514  1
  O  O357  1  0.25205320  0.61776943  0.25249396  1
  O  O358  1  0.25345926  0.61211947  0.74430311  1
  O  O359  1  0.74181951  0.11768494  0.25993354  1
  O  O360  1  0.76318404  0.14755822  0.76835884  1
  O  O361  1  0.75695214  0.61760523  0.25299074  1
  O  O362  1  0.75476936  0.62450308  0.74017057  1
  O  O363  1  0.37213068  0.11733381  0.36928063  1
  O  O364  1  0.38626334  0.11534344  0.86154200  1
  O  O365  1  0.36673854  0.62231398  0.36728184  1
  O  O366  1  0.36905627  0.62154796  0.87413482  1
  O  O367  1  0.86613675  0.11645251  0.37480506  1
  O  O368  1  0.87091599  0.11872213  0.87142862  1
  O  O369  1  0.88233306  0.60392767  0.36244147  1
  O  O370  1  0.87473635  0.61169054  0.86634110  1
  O  O371  1  0.13339625  0.37828475  0.13178258  1
  O  O372  1  0.12852076  0.38104007  0.63125817  1
  O  O373  1  0.13771939  0.86215011  0.14065457  1
  O  O374  1  0.13220309  0.88259506  0.63232765  1
  O  O375  1  0.63154428  0.37882712  0.13203762  1
  O  O376  1  0.63165348  0.37666924  0.63708449  1
  O  O377  1  0.63285283  0.87014921  0.13188857  1
  O  O378  1  0.60828424  0.89818153  0.63523591  1
  O  O379  1  0.12364107  0.26385268  0.25149581  1
  O  O380  1  0.12653301  0.26633931  0.75176448  1
  O  O381  1  0.11396302  0.75364436  0.26166442  1
  O  O382  1  0.11477488  0.75619149  0.74109264  1
  O  O383  1  0.62431019  0.26001453  0.25573284  1
  O  O384  1  0.61553720  0.25442851  0.74254037  1
  O  O385  1  0.62612462  0.76288205  0.25805543  1
  O  O386  1  0.61640238  0.75844446  0.75163192  1
  O  O387  1  0.38029865  0.24798312  0.23492594  1
  O  O388  1  0.38136249  0.24302333  0.74609094  1
  O  O389  1  0.37245499  0.73546105  0.24963664  1
  O  O390  1  0.38121355  0.74538188  0.74206973  1
  O  O391  1  0.88910607  0.25429598  0.25171383  1
  O  O392  1  0.87888804  0.24886735  0.74184208  1
  O  O393  1  0.87704717  0.74838128  0.25068480  1
  O  O394  1  0.87969301  0.73323490  0.75003228  1
  O  O395  1  0.38323518  0.48798606  0.49954239  1
  O  O396  1  0.36461884  0.50444864  0.98659826  1
  O  O397  1  0.37334963  0.99491823  0.49277107  1
  O  O398  1  0.37215319  1.00503957  0.98566644  1
  O  O399  1  0.87974916  0.48794390  0.48885140  1
  O  O400  1  0.88815105  0.50718517  0.99182272  1
  O  O401  1  0.88041578  1.00440499  0.48514571  1
  O  O402  1  0.86537017  0.98539582  0.98832125  1
  O  O403  1  0.11554283  0.00941058  -0.04894806  1
  O  O404  1  0.13157999  0.01141917  0.51204977  1
  O  O405  1  0.11088612  0.51156263  0.00071350  1
  O  O406  1  0.12452889  0.50650871  0.50367449  1
  O  O407  1  0.64016169  0.01977188  -0.00155344  1
  O  O408  1  0.59646432  0.00358779  0.49710406  1
  O  O409  1  0.63246009  0.49343578  0.01212584  1
  O  O410  1  0.61465159  0.49288069  0.50213124  1
  O  O411  1  0.36880820  0.36758876  0.12667889  1
  O  O412  1  0.37264162  0.37126717  0.61922262  1
  O  O413  1  0.36130464  0.86444471  0.12608237  1
  O  O414  1  0.37078848  0.86858837  0.61718747  1
  O  O415  1  0.86134392  0.38075327  0.12739336  1
  O  O416  1  0.86860500  0.36825424  0.62268364  1
  O  O417  1  0.85902753  0.87117247  0.11472350  1
  O  O418  1  0.83054611  0.91273046  0.66675540  1
  O  O419  1  0.12849418  0.12411603  0.38761798  1
  O  O420  1  0.12418694  0.15062851  0.85557440  1
  O  O421  1  0.12790148  0.63516511  0.37944713  1
  O  O422  1  0.11824780  0.62841812  0.88981597  1
  O  O423  1  0.62976346  0.13792908  0.37099124  1
  O  O424  1  0.63449174  0.12162789  0.88269680  1
  O  O425  1  0.62513201  0.63961367  0.36356195  1
  O  O426  1  0.63151655  0.61524646  0.85704015  1
