# generated using pymatgen
data_V85Zn86O256
_symmetry_space_group_name_H-M   'P 1'
_cell_length_a   16.94549108
_cell_length_b   16.93017116
_cell_length_c   16.93661747
_cell_angle_alpha   90.03613651
_cell_angle_beta   89.96467773
_cell_angle_gamma   90.02954232
_symmetry_Int_Tables_number   1
_chemical_formula_structural   V85Zn86O256
_chemical_formula_sum   'V85 Zn86 O256'
_cell_volume   4858.94474062
_cell_formula_units_Z   1
loop_
 _symmetry_equiv_pos_site_id
 _symmetry_equiv_pos_as_xyz
  1  'x, y, z'
loop_
 _atom_site_type_symbol
 _atom_site_label
 _atom_site_symmetry_multiplicity
 _atom_site_fract_x
 _atom_site_fract_y
 _atom_site_fract_z
 _atom_site_occupancy
  V  V0  1  -0.00120376  0.38791225  0.37355362  1
  V  V1  1  -0.00345499  0.12538740  0.13029007  1
  V  V2  1  0.37431990  0.74585917  0.62408270  1
  V  V3  1  0.74796076  0.24923484  0.00270415  1
  V  V4  1  0.80351994  0.43298784  0.18227804  1
  V  V5  1  0.75003687  0.87652157  0.62350024  1
  V  V6  1  0.11730371  0.75882626  0.37658734  1
  V  V7  1  0.51037039  0.61615576  0.62716040  1
  V  V8  1  0.37537200  0.74768326  0.12777921  1
  V  V9  1  0.36872904  0.12392960  0.74704578  1
  V  V10  1  0.87323969  0.12541091  0.74798690  1
  V  V11  1  0.35779872  0.25802728  0.12246066  1
  V  V12  1  0.75113503  0.87392803  0.12789672  1
  V  V13  1  0.74159659  0.62405592  0.87740850  1
  V  V14  1  0.37401302  0.62067679  0.74893943  1
  V  V15  1  0.12192974  0.62132606  0.49550472  1
  V  V16  1  0.38158620  -0.00050040  0.37885790  1
  V  V17  1  0.37533538  -0.00683610  0.87098897  1
  V  V18  1  0.76750702  0.61326174  0.36291489  1
  V  V19  1  -0.00102740  0.87704226  0.87509418  1
  V  V20  1  0.62052411  0.87762021  0.75470597  1
  V  V21  1  0.11695630  0.62326404  0.01542920  1
  V  V22  1  0.86562532  0.37515433  -0.00323085  1
  V  V23  1  0.13034449  0.24984530  0.87985302  1
  V  V24  1  0.87182885  0.49953204  0.87222717  1
  V  V25  1  0.12479006  0.24710775  0.37140436  1
  V  V26  1  -0.00041382  0.75156098  0.74910281  1
  V  V27  1  0.25011538  0.49855051  0.74898784  1
  V  V28  1  0.62315528  0.25039140  0.36861658  1
  V  V29  1  0.25284020  0.74887428  0.49191891  1
  V  V30  1  0.62819968  0.73966030  0.37413354  1
  V  V31  1  0.50358607  0.87501130  0.38507724  1
  V  V32  1  0.74552703  0.38050148  0.62088116  1
  V  V33  1  0.25696110  0.24404599  0.49821218  1
  V  V34  1  0.87502002  0.25119899  0.61997404  1
  V  V35  1  0.00000382  0.12348741  0.62387227  1
  V  V36  1  0.24855342  0.37171029  0.62557067  1
  V  V37  1  0.12880559  0.12715210  0.00390751  1
  V  V38  1  0.51338941  0.49464957  0.50135852  1
  V  V39  1  0.88274034  0.38972500  0.49844535  1
  V  V40  1  0.87323868  0.00084144  0.87461436  1
  V  V41  1  0.24848134  0.87546953  0.12676927  1
  V  V42  1  0.50233553  0.62061326  0.11292724  1
  V  V43  1  0.25214547  0.87950759  0.62852939  1
  V  V44  1  0.49456740  0.37507102  0.88697358  1
  V  V45  1  0.62003222  0.38315994  0.24839676  1
  V  V46  1  0.61944059  0.74839944  0.88013937  1
  V  V47  1  0.12552652  0.12315278  0.49895422  1
  V  V48  1  0.86919365  0.24641259  0.13449672  1
  V  V49  1  0.62366322  0.11795418  0.49834117  1
  V  V50  1  0.49810801  0.75311639  0.75429335  1
  V  V51  1  0.25191371  0.00083632  0.25083889  1
  V  V52  1  0.49839231  -0.00682298  -0.00289030  1
  V  V53  1  0.35180455  0.41207424  0.47998372  1
  V  V54  1  0.87473700  0.62549193  0.75090281  1
  V  V55  1  0.12392913  0.74912643  0.87433377  1
  V  V56  1  0.87175562  0.87469779  0.00035235  1
  V  V57  1  0.11819758  0.50127649  0.62615059  1
  V  V58  1  0.24374227  0.38959934  0.11775372  1
  V  V59  1  0.49894457  0.13407764  0.13102438  1
  V  V60  1  0.62839326  0.87471612  0.25139333  1
  V  V61  1  0.00032364  -0.00240112  0.49167729  1
  V  V62  1  -0.00123662  0.37177532  0.87806494  1
  V  V63  1  0.49912239  0.74337679  0.25098596  1
  V  V64  1  0.74656964  0.00147234  0.74596055  1
  V  V65  1  0.75239570  0.74734371  0.49736924  1
  V  V66  1  0.25316366  0.12415799  0.87920229  1
  V  V67  1  0.24895485  0.75070766  0.00133579  1
  V  V68  1  0.75538111  0.12241816  0.36137856  1
  V  V69  1  0.62703725  0.00004901  0.12863709  1
  V  V70  1  0.36709073  0.60983339  0.26311766  1
  V  V71  1  0.87837671  0.73496306  0.12733924  1
  V  V72  1  0.37481516  0.49578347  0.88992584  1
  V  V73  1  0.74812635  0.12535499  0.87349919  1
  V  V74  1  0.61891978  0.38139314  0.74177076  1
  V  V75  1  0.87924911  0.87594764  0.49012118  1
  V  V76  1  0.12857317  0.88299348  0.75081754  1
  V  V77  1  0.49790598  0.24940203  0.74505637  1
  V  V78  1  0.49608604  0.37458046  0.37326805  1
  V  V79  1  0.24727689  0.62265907  0.87531730  1
  V  V80  1  0.61860994  0.49695072  0.11323857  1
  V  V81  1  0.87681258  0.75193273  0.62379522  1
  V  V82  1  0.13674337  0.39205018  0.25563794  1
  V  V83  1  0.62320826  0.12312038  -0.00226958  1
  V  V84  1  0.87466470  0.00088487  0.35937631  1
  Zn  Zn85  1  0.13043525  0.00202206  0.62659483  1
  Zn  Zn86  1  -0.00378996  0.25074153  0.25360424  1
  Zn  Zn87  1  0.75116984  0.24978388  0.49694324  1
  Zn  Zn88  1  0.62257347  0.25045087  0.87186162  1
  Zn  Zn89  1  0.00131424  0.24875118  0.75125700  1
  Zn  Zn90  1  0.12311079  0.00002207  0.12628090  1
  Zn  Zn91  1  0.61642915  -0.00624447  0.61560004  1
  Zn  Zn92  1  0.38044858  0.12871704  0.25148482  1
  Zn  Zn93  1  0.11934682  0.87834725  0.25698834  1
  Zn  Zn94  1  0.49469953  0.11949831  0.61579913  1
  Zn  Zn95  1  0.37786838  0.87189010  -0.00364954  1
  Zn  Zn96  1  -0.00309409  0.61954471  0.62269467  1
  Zn  Zn97  1  -0.00276877  0.50791399  0.00269024  1
  Zn  Zn98  1  0.74282047  0.50218186  0.74405907  1
  Zn  Zn99  1  0.00020500  0.00179712  0.00233236  1
  Zn  Zn100  1  0.25368982  0.12198681  0.37336634  1
  Zn  Zn101  1  0.74205389  0.74753769  0.00132384  1
  Zn  Zn102  1  0.38161334  0.87762897  0.50477568  1
  Zn  Zn103  1  -0.00309373  0.74304923  0.24858453  1
  Zn  Zn104  1  0.63357030  0.61779169  0.50554929  1
  Zn  Zn105  1  0.12334686  0.37265946  0.75185087  1
  Zn  Zn106  1  0.37659908  0.25196019  0.61994539  1
  Zn  Zn107  1  0.18780564  0.18669132  0.18856316  1
  Zn  Zn108  1  0.18717396  0.18787628  0.69127777  1
  Zn  Zn109  1  0.18994493  0.68317150  0.19411416  1
  Zn  Zn110  1  0.18709055  0.68885401  0.68512806  1
  Zn  Zn111  1  0.68274728  0.19072204  0.18780767  1
  Zn  Zn112  1  0.68542798  0.19303745  0.68316478  1
  Zn  Zn113  1  0.68869319  0.68140680  0.18602027  1
  Zn  Zn114  1  0.68855233  0.69120601  0.69089981  1
  Zn  Zn115  1  0.31505378  0.30755167  0.30754511  1
  Zn  Zn116  1  0.31325365  0.31014123  0.81393306  1
  Zn  Zn117  1  0.31521941  0.81324552  0.31219274  1
  Zn  Zn118  1  0.31144992  0.81186805  0.81214271  1
  Zn  Zn119  1  0.81318247  0.31325056  0.32058327  1
  Zn  Zn120  1  0.80855397  0.31074655  0.80803542  1
  Zn  Zn121  1  0.81358150  0.80875118  0.30990849  1
  Zn  Zn122  1  0.80778142  0.81181339  0.81328556  1
  Zn  Zn123  1  0.18196367  0.43847417  0.43952611  1
  Zn  Zn124  1  0.18448594  0.43990179  0.94033665  1
  Zn  Zn125  1  0.19351071  0.93680742  0.44108982  1
  Zn  Zn126  1  0.18957988  0.94184718  0.93815754  1
  Zn  Zn127  1  0.69006808  0.43608152  0.43627336  1
  Zn  Zn128  1  0.68319492  0.43526911  0.92959281  1
  Zn  Zn129  1  0.69270042  0.93743223  0.43197903  1
  Zn  Zn130  1  0.68591316  0.93630751  0.93714938  1
  Zn  Zn131  1  0.31474054  0.06356419  0.06162233  1
  Zn  Zn132  1  0.31583291  0.06012920  0.56149570  1
  Zn  Zn133  1  0.31096746  0.56766857  0.06929800  1
  Zn  Zn134  1  0.30638934  0.56051024  0.54974777  1
  Zn  Zn135  1  0.81158178  0.06190610  0.06607471  1
  Zn  Zn136  1  0.80834446  0.06278514  0.55508881  1
  Zn  Zn137  1  0.80406287  0.56268754  0.05434591  1
  Zn  Zn138  1  0.81269934  0.56299438  0.56173594  1
  Zn  Zn139  1  0.43622097  0.43441252  0.18552695  1
  Zn  Zn140  1  0.43274667  0.43640067  0.68161798  1
  Zn  Zn141  1  0.43893033  0.93574535  0.18929837  1
  Zn  Zn142  1  0.43945553  0.94018973  0.68638947  1
  Zn  Zn143  1  0.95528002  0.55676530  0.18069303  1
  Zn  Zn144  1  0.93592082  0.43497131  0.69056241  1
  Zn  Zn145  1  0.94505757  0.92972694  0.18767356  1
  Zn  Zn146  1  0.93766831  0.93904309  0.68380381  1
  Zn  Zn147  1  0.06335221  0.06293713  0.30962142  1
  Zn  Zn148  1  0.06191540  0.06368466  0.81410296  1
  Zn  Zn149  1  0.06693407  0.56980324  0.31646613  1
  Zn  Zn150  1  0.06075819  0.55993564  0.81520652  1
  Zn  Zn151  1  0.56530291  0.05944164  0.31275161  1
  Zn  Zn152  1  0.55754313  0.06289017  0.80999249  1
  Zn  Zn153  1  0.56024941  0.55842448  0.31160956  1
  Zn  Zn154  1  0.55798587  0.55913731  0.81398024  1
  Zn  Zn155  1  0.44145247  0.18770313  0.43180703  1
  Zn  Zn156  1  0.43642493  0.18839408  0.94083095  1
  Zn  Zn157  1  0.44204436  0.68241426  0.44042535  1
  Zn  Zn158  1  0.43393149  0.68517581  0.93611439  1
  Zn  Zn159  1  0.93738537  0.18842697  0.43554742  1
  Zn  Zn160  1  0.93973449  0.18930767  0.94324340  1
  Zn  Zn161  1  0.94102361  0.68313696  0.43644958  1
  Zn  Zn162  1  0.93455269  0.69060108  0.93874802  1
  Zn  Zn163  1  0.02131269  0.36790778  0.11085445  1
  Zn  Zn164  1  0.06415709  0.31082499  0.55807452  1
  Zn  Zn165  1  0.06060725  0.81330015  0.06459829  1
  Zn  Zn166  1  0.06356568  0.81339367  0.56247948  1
  Zn  Zn167  1  0.56589509  0.31245259  0.06292684  1
  Zn  Zn168  1  0.56133756  0.30720664  0.55633385  1
  Zn  Zn169  1  0.56002406  0.81227215  0.06452069  1
  Zn  Zn170  1  0.56580785  0.80584809  0.56637051  1
  O  O171  1  0.11887160  0.12629256  0.11730610  1
  O  O172  1  0.11672457  0.12276374  0.62113438  1
  O  O173  1  0.12514792  0.63204449  0.11413445  1
  O  O174  1  0.12143985  0.61770903  0.62069539  1
  O  O175  1  0.61843582  0.11664701  0.12051582  1
  O  O176  1  0.62945137  0.12713022  0.60591384  1
  O  O177  1  0.61770892  0.60810148  0.12964208  1
  O  O178  1  0.61585161  0.63361434  0.62480203  1
  O  O179  1  0.38127711  0.36753798  0.38405928  1
  O  O180  1  0.38542225  0.38055797  0.87234829  1
  O  O181  1  0.38836677  0.87817485  0.37666533  1
  O  O182  1  0.36883392  0.88858154  0.87546603  1
  O  O183  1  0.89088896  0.37183635  0.38195464  1
  O  O184  1  0.87733053  0.37753882  0.87715101  1
  O  O185  1  0.86726190  0.88207389  0.38398112  1
  O  O186  1  0.87609260  0.87899269  0.88175126  1
  O  O187  1  0.25935498  -0.00221834  0.36705056  1
  O  O188  1  0.26049264  0.01307365  0.87825277  1
  O  O189  1  0.28383426  0.48739692  0.44285623  1
  O  O190  1  0.25483510  0.50229699  0.86867318  1
  O  O191  1  0.75959586  0.01246879  0.37506093  1
  O  O192  1  0.75399216  0.00624243  0.86801210  1
  O  O193  1  0.74894769  0.51549959  0.38056028  1
  O  O194  1  0.75155099  0.50728058  0.86702419  1
  O  O195  1  0.25065421  0.48881215  0.12532709  1
  O  O196  1  0.23980756  0.49264304  0.62892249  1
  O  O197  1  0.25243746  0.99148248  0.13147148  1
  O  O198  1  0.25117206  0.98412325  0.62151824  1
  O  O199  1  0.74152865  0.49774546  0.12753725  1
  O  O200  1  0.75417198  0.48573206  0.62605805  1
  O  O201  1  0.73530355  0.99172617  0.11990643  1
  O  O202  1  0.74523820  0.99387891  0.62828097  1
  O  O203  1  0.01999726  0.36968460  0.26491402  1
  O  O204  1  -0.00014284  0.37209766  0.76523328  1
  O  O205  1  0.01047366  0.85711719  0.23881069  1
  O  O206  1  0.00451574  0.87113778  0.75459634  1
  O  O207  1  0.50710217  0.37856905  0.25988486  1
  O  O208  1  0.50154825  0.36506357  0.74690304  1
  O  O209  1  0.51054006  0.86124585  0.25444142  1
  O  O210  1  0.50772483  0.86405423  0.74652737  1
  O  O211  1  0.50262605  0.11825642  0.23426415  1
  O  O212  1  0.49016256  0.13850579  0.75251641  1
  O  O213  1  0.49787119  0.63399824  0.24481549  1
  O  O214  1  0.49331855  0.63000275  0.74362172  1
  O  O215  1  1.00597271  0.13177014  0.23497558  1
  O  O216  1  0.99179615  0.12334698  0.74044585  1
  O  O217  1  1.00483807  0.62920550  0.24791858  1
  O  O218  1  0.98790630  0.63106098  0.75176242  1
  O  O219  1  0.38502630  0.24677382  0.02513252  1
  O  O220  1  0.36201891  0.24041449  0.49991156  1
  O  O221  1  0.36542201  0.74992024  0.00591316  1
  O  O222  1  0.37030328  0.74873073  0.50855068  1
  O  O223  1  0.86541324  0.25579972  0.00666243  1
  O  O224  1  0.87612592  0.25499234  0.51050981  1
  O  O225  1  0.86830661  0.76057010  0.00655438  1
  O  O226  1  0.87195463  0.75746269  0.50167108  1
  O  O227  1  0.13411123  0.24273126  0.49114734  1
  O  O228  1  0.12056098  0.23432966  0.98397207  1
  O  O229  1  0.13173961  0.74652257  0.49384745  1
  O  O230  1  0.12961666  0.74324335  0.99423779  1
  O  O231  1  0.62967876  0.24299414  0.48442654  1
  O  O232  1  0.63203733  0.24349093  0.99569149  1
  O  O233  1  0.63675075  0.74881187  0.49124951  1
  O  O234  1  0.62045372  0.75737613  0.98372338  1
  O  O235  1  0.50775912  0.23452121  0.12559336  1
  O  O236  1  0.49628065  0.24394969  0.63008120  1
  O  O237  1  0.49757387  0.74310581  0.13320482  1
  O  O238  1  0.49275480  0.74187246  0.63398478  1
  O  O239  1  0.98432222  0.25494871  0.12932613  1
  O  O240  1  0.99553998  0.23925527  0.62499846  1
  O  O241  1  0.97942282  0.75025430  0.11621697  1
  O  O242  1  0.99366373  0.75078873  0.63370931  1
  O  O243  1  0.00941320  0.25358208  0.37353960  1
  O  O244  1  0.00570924  0.25518794  0.87343282  1
  O  O245  1  0.01518435  0.75068658  0.37820938  1
  O  O246  1  0.00280760  0.75801988  0.86839269  1
  O  O247  1  0.50944096  0.26337975  0.37741448  1
  O  O248  1  0.49619972  0.26101950  0.86689471  1
  O  O249  1  0.51003029  0.75326572  0.36966378  1
  O  O250  1  0.50270662  0.74354988  0.86249882  1
  O  O251  1  0.24156003  0.12721783  0.49977901  1
  O  O252  1  0.24224230  0.12269717  0.99301007  1
  O  O253  1  0.23403030  0.64032106  0.51325427  1
  O  O254  1  0.24073110  0.63570456  0.99811309  1
  O  O255  1  0.74027539  0.12847161  0.48784062  1
  O  O256  1  0.74351730  0.12843916  0.99288028  1
  O  O257  1  0.75203503  0.63579800  0.49488832  1
  O  O258  1  0.74730515  0.62933036  0.98202605  1
  O  O259  1  0.23658142  0.37606757  0.01886711  1
  O  O260  1  0.24909960  0.35991666  0.50667561  1
  O  O261  1  0.25061158  0.86384807  0.00440765  1
  O  O262  1  0.25482674  0.86511459  0.51116698  1
  O  O263  1  0.75680701  0.36317190  -0.01371341  1
  O  O264  1  0.76166929  0.37224896  0.50380563  1
  O  O265  1  0.75444825  0.87220377  0.00736109  1
  O  O266  1  0.75651740  0.86508596  0.50175325  1
  O  O267  1  0.13702871  0.49021971  0.26649141  1
  O  O268  1  0.13266780  0.49728675  0.74516082  1
  O  O269  1  0.13581497  0.99689694  0.24831561  1
  O  O270  1  0.11939560  0.98685061  0.74792543  1
  O  O271  1  0.62382220  0.48874205  0.24272165  1
  O  O272  1  0.62237991  0.48528696  0.75029832  1
  O  O273  1  0.62057710  0.98647112  0.24103125  1
  O  O274  1  0.63030404  0.99314831  0.75055114  1
  O  O275  1  0.36987109  -0.00222255  0.25982296  1
  O  O276  1  0.38133983  0.01058280  0.76055872  1
  O  O277  1  0.38229246  0.51102883  0.25108312  1
  O  O278  1  0.36689386  0.50385958  0.75265677  1
  O  O279  1  0.88026464  -0.00701451  0.26065995  1
  O  O280  1  0.86637433  0.00514428  0.75272471  1
  O  O281  1  0.86781714  0.48723001  0.23234776  1
  O  O282  1  0.87201640  0.50969924  0.75417586  1
  O  O283  1  0.12219563  0.36813451  0.37350580  1
  O  O284  1  0.11641449  0.36714706  0.87850516  1
  O  O285  1  0.12855272  0.86207160  0.37998188  1
  O  O286  1  0.12154416  0.87075563  0.86944979  1
  O  O287  1  0.62082322  0.36872524  0.36896072  1
  O  O288  1  0.60956537  0.37264721  0.86378977  1
  O  O289  1  0.62341041  0.86526150  0.36838015  1
  O  O290  1  0.62942178  0.86742174  0.86133300  1
  O  O291  1  0.38783026  0.12841141  0.12665174  1
  O  O292  1  0.37425895  0.12677795  0.63376158  1
  O  O293  1  0.38472619  0.63030839  0.13426703  1
  O  O294  1  0.37913768  0.63415279  0.62879170  1
  O  O295  1  0.88263636  0.13501389  0.11869891  1
  O  O296  1  0.87980584  0.13065913  0.62511994  1
  O  O297  1  0.87180758  0.63200559  0.11759631  1
  O  O298  1  0.87629058  0.63210126  0.63290254  1
  O  O299  1  0.25496160  0.25430387  0.12266295  1
  O  O300  1  0.24839883  0.25613138  0.61789924  1
  O  O301  1  0.25389834  0.75481700  0.11972696  1
  O  O302  1  0.25851069  0.75742165  0.62050734  1
  O  O303  1  0.75229508  0.24075494  0.11028506  1
  O  O304  1  0.75945166  0.26035724  0.62136373  1
  O  O305  1  0.75564899  0.75498895  0.12076375  1
  O  O306  1  0.75679485  0.75517274  0.61684040  1
  O  O307  1  0.24509528  0.24527202  0.38246039  1
  O  O308  1  0.24373292  0.23869010  0.87270786  1
  O  O309  1  0.24767761  0.75601577  0.38910031  1
  O  O310  1  0.24604868  0.74427534  0.88362484  1
  O  O311  1  0.74545728  0.23828630  0.37557685  1
  O  O312  1  0.74927765  0.24049330  0.88214518  1
  O  O313  1  0.74588801  0.74247679  0.38094254  1
  O  O314  1  0.73716523  0.74273351  0.87356255  1
  O  O315  1  0.00740067  0.12488135  0.01125625  1
  O  O316  1  0.00520193  0.11925676  0.50587542  1
  O  O317  1  0.01286292  0.62827784  -0.00490736  1
  O  O318  1  0.01700329  0.63207285  0.50641422  1
  O  O319  1  0.50593952  0.11601991  0.00994098  1
  O  O320  1  0.51921780  0.12971071  0.49507290  1
  O  O321  1  0.49761562  0.63077934  0.01367331  1
  O  O322  1  0.50863249  0.61779517  0.50992324  1
  O  O323  1  0.49393280  0.38160717  0.49420019  1
  O  O324  1  0.50325888  0.37078031  0.98497248  1
  O  O325  1  0.50325237  0.86568491  0.48866657  1
  O  O326  1  0.49732006  0.88826488  1.00488923  1
  O  O327  1  0.99647679  0.37001536  0.48585145  1
  O  O328  1  0.98024356  0.37029715  0.98849940  1
  O  O329  1  0.99087736  0.88564925  0.50573418  1
  O  O330  1  0.99018571  0.87708083  0.99327067  1
  O  O331  1  0.50612470  0.48661190  0.38664142  1
  O  O332  1  0.48942801  0.48511465  0.87037889  1
  O  O333  1  0.49574687  0.98606606  0.36849756  1
  O  O334  1  0.48907709  1.00694683  0.88533664  1
  O  O335  1  1.00744910  0.48622411  0.37583216  1
  O  O336  1  0.99125293  0.49128945  0.87987966  1
  O  O337  1  0.99158263  1.00827072  0.38497307  1
  O  O338  1  0.99026118  0.99467313  0.87640989  1
  O  O339  1  0.00045469  0.01076951  0.12266311  1
  O  O340  1  -0.00142206  0.01122883  0.61414377  1
  O  O341  1  -0.00798744  0.47766411  0.11123191  1
  O  O342  1  0.01433567  0.49788558  0.63358383  1
  O  O343  1  0.50931576  0.00422388  0.11914602  1
  O  O344  1  0.50516104  0.00674919  0.62714322  1
  O  O345  1  0.50990533  0.50461302  0.12393616  1
  O  O346  1  0.50451668  0.51129424  0.62735246  1
  O  O347  1  0.24016273  0.37216211  0.24789780  1
  O  O348  1  0.24883843  0.37854946  0.74106292  1
  O  O349  1  0.24820072  0.88265101  0.24289190  1
  O  O350  1  0.23932806  0.86771956  0.74248434  1
  O  O351  1  0.74602593  0.37959596  0.25038330  1
  O  O352  1  0.73796808  0.37403027  0.74065986  1
  O  O353  1  0.73759085  0.86776558  0.24256143  1
  O  O354  1  0.74321851  0.88116403  0.74398371  1
  O  O355  1  0.25415660  0.11091978  0.24920207  1
  O  O356  1  0.26234676  0.12788473  0.75754198  1
  O  O357  1  0.26796174  0.62381466  0.24945272  1
  O  O358  1  0.25469866  0.62048805  0.75476273  1
  O  O359  1  0.74287424  0.12508266  0.26254400  1
  O  O360  1  0.75307314  0.12201167  0.75248677  1
  O  O361  1  0.75023138  0.62729630  0.26465253  1
  O  O362  1  0.75998731  0.62609703  0.75611991  1
  O  O363  1  0.37705491  0.11552216  0.36991268  1
  O  O364  1  0.36908550  0.12179955  0.87078321  1
  O  O365  1  0.38228255  0.62795712  0.36196115  1
  O  O366  1  0.36776484  0.61619957  0.86856806  1
  O  O367  1  0.86303974  0.11898453  0.37639614  1
  O  O368  1  0.86942537  0.12053402  0.86991900  1
  O  O369  1  0.86701862  0.62544342  0.37534874  1
  O  O370  1  0.86684410  0.62238573  0.86836840  1
  O  O371  1  0.13428452  0.37308186  0.14717597  1
  O  O372  1  0.13289292  0.38052621  0.62442907  1
  O  O373  1  0.13953452  0.87577424  0.12129894  1
  O  O374  1  0.13354116  0.87504961  0.63361157  1
  O  O375  1  0.61981709  0.38551245  0.13273132  1
  O  O376  1  0.63391713  0.36580307  0.62857246  1
  O  O377  1  0.63263823  0.87798135  0.13063507  1
  O  O378  1  0.63210275  0.87224745  0.63561764  1
  O  O379  1  0.12940255  0.25123052  0.26517245  1
  O  O380  1  0.12156442  0.25080071  0.76321629  1
  O  O381  1  0.13501987  0.74806732  0.27207145  1
  O  O382  1  0.11806326  0.75806003  0.75484113  1
  O  O383  1  0.63085554  0.26282705  0.26066882  1
  O  O384  1  0.61477694  0.25689755  0.75079561  1
  O  O385  1  0.61983219  0.75232486  0.25626802  1
  O  O386  1  0.61645623  0.75747823  0.75688718  1
  O  O387  1  0.37466653  0.24525157  0.23031896  1
  O  O388  1  0.38088770  0.24423301  0.74460763  1
  O  O389  1  0.38432522  0.74696256  0.24530618  1
  O  O390  1  0.38116326  0.74383869  0.74531439  1
  O  O391  1  0.86954001  0.25555607  0.23736391  1
  O  O392  1  0.87621295  0.24378249  0.73646705  1
  O  O393  1  0.87313794  0.75189876  0.23002565  1
  O  O394  1  0.87867831  0.74507755  0.74599857  1
  O  O395  1  0.40149172  0.50097487  0.52092087  1
  O  O396  1  0.36807803  0.50690141  0.98853524  1
  O  O397  1  0.37251219  0.99553059  0.48441541  1
  O  O398  1  0.38267256  0.99875755  0.99222178  1
  O  O399  1  0.88212910  0.48890750  0.50856150  1
  O  O400  1  0.86755043  0.49057496  0.98914741  1
  O  O401  1  0.88110439  0.99300464  0.49207372  1
  O  O402  1  0.87251182  0.98831882  0.99479836  1
  O  O403  1  0.12240875  0.01262219  0.00087120  1
  O  O404  1  0.11713060  0.00407336  0.50111073  1
  O  O405  1  0.12377011  0.52115734  -0.00518751  1
  O  O406  1  0.12629001  0.51476477  0.50828888  1
  O  O407  1  0.61776313  0.00335934  0.00509170  1
  O  O408  1  0.63124372  0.01331714  0.49509369  1
  O  O409  1  0.62986743  0.49215437  0.01443041  1
  O  O410  1  0.61867977  0.49837019  0.50443003  1
  O  O411  1  0.35780975  0.36738958  0.12931073  1
  O  O412  1  0.35907513  0.37693759  0.60872929  1
  O  O413  1  0.36525129  0.86725060  0.12375042  1
  O  O414  1  0.37059372  0.86279166  0.62751946  1
  O  O415  1  0.85626723  0.36760628  0.11470021  1
  O  O416  1  0.87256454  0.36766182  0.61923744  1
  O  O417  1  0.86238824  0.87473088  0.11787365  1
  O  O418  1  0.86900035  0.87147781  0.61457471  1
  O  O419  1  0.12762243  0.13045919  0.38155214  1
  O  O420  1  0.13356900  0.12791552  0.87811082  1
  O  O421  1  0.12964740  0.63487795  0.39173523  1
  O  O422  1  0.13133991  0.63330734  0.87496594  1
  O  O423  1  0.63242122  0.12948787  0.37779041  1
  O  O424  1  0.63005305  0.12638293  0.87937104  1
  O  O425  1  0.62729366  0.63365921  0.37705166  1
  O  O426  1  0.63033320  0.63400981  0.86350747  1
