# generated using pymatgen
data_V85Zn86O256
_symmetry_space_group_name_H-M   'P 1'
_cell_length_a   16.94721985
_cell_length_b   16.94415471
_cell_length_c   16.95303021
_cell_angle_alpha   90.06187540
_cell_angle_beta   89.99663290
_cell_angle_gamma   90.06127219
_symmetry_Int_Tables_number   1
_chemical_formula_structural   V85Zn86O256
_chemical_formula_sum   'V85 Zn86 O256'
_cell_volume   4868.16405365
_cell_formula_units_Z   1
loop_
 _symmetry_equiv_pos_site_id
 _symmetry_equiv_pos_as_xyz
  1  'x, y, z'
loop_
 _atom_site_type_symbol
 _atom_site_label
 _atom_site_symmetry_multiplicity
 _atom_site_fract_x
 _atom_site_fract_y
 _atom_site_fract_z
 _atom_site_occupancy
  V  V0  1  0.12963834  0.87682869  0.24781111  1
  V  V1  1  0.00231190  0.61258099  0.11765138  1
  V  V2  1  0.49888584  0.37888792  0.38358634  1
  V  V3  1  0.75826516  0.50381411  0.74813858  1
  V  V4  1  0.38390430  0.87382334  -0.01128546  1
  V  V5  1  0.87150289  0.74734729  0.12077557  1
  V  V6  1  0.12796111  0.12497428  -0.00575430  1
  V  V7  1  0.62257906  0.12638845  0.49903532  1
  V  V8  1  0.87283764  0.25406659  0.62437972  1
  V  V9  1  0.12401890  0.50197728  0.62824512  1
  V  V10  1  0.63068902  0.37640686  0.75088194  1
  V  V11  1  0.87558008  0.00006161  0.37308786  1
  V  V12  1  0.49029100  0.74563506  0.74861666  1
  V  V13  1  0.24798153  0.12780929  0.36780416  1
  V  V14  1  0.49961061  0.00103237  0.49844095  1
  V  V15  1  0.75012099  0.12333615  0.87292249  1
  V  V16  1  0.13567826  0.48200287  0.12429741  1
  V  V17  1  0.37597203  0.14097611  0.24998170  1
  V  V18  1  0.75121994  0.73845541  0.49873305  1
  V  V19  1  -0.01798450  0.39199486  0.88348024  1
  V  V20  1  0.50065963  0.87236291  0.37443635  1
  V  V21  1  0.62503179  -0.00304477  0.62254196  1
  V  V22  1  0.12344720  0.62485266  0.49740780  1
  V  V23  1  0.01357801  0.25306354  0.25213993  1
  V  V24  1  0.00073331  0.87579167  0.37216059  1
  V  V25  1  0.49075629  0.61089368  0.62640217  1
  V  V26  1  -0.00007535  0.25161590  0.75582955  1
  V  V27  1  0.24589506  0.74783416  -0.00206534  1
  V  V28  1  0.62807398  0.74349809  0.37463449  1
  V  V29  1  0.50148862  0.51116691  0.00521332  1
  V  V30  1  0.87540168  0.12707502  0.24928744  1
  V  V31  1  -0.00122280  0.12591979  0.12297923  1
  V  V32  1  0.00012925  0.74702710  0.24688137  1
  V  V33  1  0.00233685  0.00082039  0.49985902  1
  V  V34  1  0.87172604  0.50359009  0.37519539  1
  V  V35  1  0.62589125  0.49496175  0.62452980  1
  V  V36  1  0.61966894  0.61789071  0.49927055  1
  V  V37  1  -0.00074613  0.86411369  0.87133290  1
  V  V38  1  0.62087616  0.74738167  0.87847810  1
  V  V39  1  -0.00095892  -0.00127880  -0.00419971  1
  V  V40  1  0.00174484  0.62984883  0.63437066  1
  V  V41  1  0.61767346  0.51465998  0.13273262  1
  V  V42  1  0.74866223  0.87149504  0.62306682  1
  V  V43  1  0.24926957  0.36947536  0.62581357  1
  V  V44  1  0.25306085  0.25190018  0.01087815  1
  V  V45  1  0.87456052  0.87286640  0.49884185  1
  V  V46  1  0.74984587  0.25477282  0.50115837  1
  V  V47  1  0.24921018  0.75135280  0.49829206  1
  V  V48  1  0.87559443  0.37415393  0.49856491  1
  V  V49  1  0.62612360  0.36796430  0.24667690  1
  V  V50  1  0.38145116  0.74795692  0.12764378  1
  V  V51  1  0.86923197  0.87131534  -0.00303104  1
  V  V52  1  0.74973160  0.87212488  0.12129008  1
  V  V53  1  0.75032067  0.12599577  0.37472577  1
  V  V54  1  0.37757218  0.61663451  0.24956904  1
  V  V55  1  0.87762919  0.74850781  0.63360860  1
  V  V56  1  0.61630642  -0.00328115  0.12077626  1
  V  V57  1  0.49758060  0.13143267  0.63826654  1
  V  V58  1  0.37295719  0.00123510  0.36471393  1
  V  V59  1  0.12519490  0.00120479  0.12621959  1
  V  V60  1  0.75393750  0.24685756  0.00225666  1
  V  V61  1  0.61782308  0.86983129  0.75224197  1
  V  V62  1  0.26232386  0.00458665  0.75447849  1
  V  V63  1  0.62227638  0.11799126  -0.00173188  1
  V  V64  1  0.12682785  0.13195742  0.49628806  1
  V  V65  1  0.75061968  -0.00264775  0.74767418  1
  V  V66  1  0.74995344  -0.00146440  0.24832376  1
  V  V67  1  0.37137455  0.37620585  0.01531435  1
  V  V68  1  0.62548274  0.25311625  0.87257049  1
  V  V69  1  0.44015691  0.04455426  -0.05662400  1
  V  V70  1  0.12255555  0.87268641  0.74733254  1
  V  V71  1  0.76188580  0.40333029  0.10686423  1
  V  V72  1  0.37068626  0.50382463  0.87196820  1
  V  V73  1  0.62490955  0.87306030  0.25026763  1
  V  V74  1  0.37474506  0.87407199  0.50044942  1
  V  V75  1  0.02074098  0.37396943  0.37442801  1
  V  V76  1  0.49870035  0.13620591  0.13122539  1
  V  V77  1  0.87457743  0.12461761  0.74898970  1
  V  V78  1  0.50369531  0.37930824  0.88036822  1
  V  V79  1  0.87266931  0.25583669  0.12704157  1
  V  V80  1  0.25243677  0.87759131  0.12415639  1
  V  V81  1  0.00093926  0.12639841  0.62480957  1
  V  V82  1  0.25080399  0.61884659  0.36981563  1
  V  V83  1  0.75427893  0.62728331  0.88234149  1
  V  V84  1  0.12395844  0.37900094  0.75775364  1
  Zn  Zn85  1  0.25041426  0.87699375  0.62530147  1
  Zn  Zn86  1  0.37174857  0.74059768  0.62541321  1
  Zn  Zn87  1  0.25542417  0.50732466  0.74743274  1
  Zn  Zn88  1  0.25026031  0.48204568  0.24804288  1
  Zn  Zn89  1  0.12419352  0.75086629  0.37294699  1
  Zn  Zn90  1  0.88143523  0.62504569  0.75727827  1
  Zn  Zn91  1  0.12969298  0.00188063  0.62658262  1
  Zn  Zn92  1  0.00217880  0.49904246  0.49891765  1
  Zn  Zn93  1  0.26513658  0.12357736  0.87423247  1
  Zn  Zn94  1  0.50213540  0.74473743  0.24678657  1
  Zn  Zn95  1  0.25130129  0.63127893  0.86476604  1
  Zn  Zn96  1  0.87355123  0.62511595  0.25497295  1
  Zn  Zn97  1  0.25751741  0.24757501  0.50243030  1
  Zn  Zn98  1  0.62518307  0.63305508  0.00554331  1
  Zn  Zn99  1  0.37234227  0.24097241  0.63522979  1
  Zn  Zn100  1  0.12977217  0.25148362  0.87608043  1
  Zn  Zn101  1  0.62264352  0.24797585  0.36765675  1
  Zn  Zn102  1  0.74302288  0.51162869  0.26234123  1
  Zn  Zn103  1  0.38551464  0.38313202  0.50261447  1
  Zn  Zn104  1  0.87414665  -0.00211675  0.87243654  1
  Zn  Zn105  1  0.12406754  0.74456698  0.86996028  1
  Zn  Zn106  1  0.12350269  0.61821970  -0.00369778  1
  Zn  Zn107  1  0.19279123  0.30640014  0.18911102  1
  Zn  Zn108  1  0.18575423  0.18448932  0.69124238  1
  Zn  Zn109  1  0.18810257  0.68729278  0.18397838  1
  Zn  Zn110  1  0.19255965  0.68765883  0.68832467  1
  Zn  Zn111  1  0.68811229  0.18388945  0.18388634  1
  Zn  Zn112  1  0.68633906  0.18938960  0.68479444  1
  Zn  Zn113  1  0.69488983  0.68432313  0.19458443  1
  Zn  Zn114  1  0.68466893  0.68334005  0.68790720  1
  Zn  Zn115  1  0.31684900  0.31067019  0.32055382  1
  Zn  Zn116  1  0.31112245  0.30695581  0.81647172  1
  Zn  Zn117  1  0.31128835  0.80870196  0.31274357  1
  Zn  Zn118  1  0.30983550  0.81646750  0.81182799  1
  Zn  Zn119  1  0.80968278  0.31994328  0.30962845  1
  Zn  Zn120  1  0.80975614  0.31404447  0.81163325  1
  Zn  Zn121  1  0.81111737  0.80754481  0.31137985  1
  Zn  Zn122  1  0.80688924  0.81023529  0.81359900  1
  Zn  Zn123  1  0.21343818  0.44442820  0.44821788  1
  Zn  Zn124  1  0.18582343  0.43731634  0.94283374  1
  Zn  Zn125  1  0.18922597  0.94233005  0.43409669  1
  Zn  Zn126  1  0.19071319  0.93574676  0.93393362  1
  Zn  Zn127  1  0.68567367  0.43504958  0.43724024  1
  Zn  Zn128  1  0.70463394  0.44617733  0.94585770  1
  Zn  Zn129  1  0.68862076  0.93482363  0.43680443  1
  Zn  Zn130  1  0.68473424  0.93432694  0.93441797  1
  Zn  Zn131  1  0.30481945  0.06911003  0.07546563  1
  Zn  Zn132  1  0.31328652  0.06049479  0.56333066  1
  Zn  Zn133  1  0.31253532  0.56318571  0.06428222  1
  Zn  Zn134  1  0.31101410  0.55317339  0.55691080  1
  Zn  Zn135  1  0.81170872  0.06047776  0.06207465  1
  Zn  Zn136  1  0.81333357  0.06384619  0.56206193  1
  Zn  Zn137  1  0.80977082  0.56631495  0.06508509  1
  Zn  Zn138  1  0.81374825  0.55961195  0.56423080  1
  Zn  Zn139  1  0.44318143  0.43575835  0.19639034  1
  Zn  Zn140  1  0.42198130  0.39362308  0.71372628  1
  Zn  Zn141  1  0.43928815  0.93534264  0.18501358  1
  Zn  Zn142  1  0.43862467  0.93726271  0.68455523  1
  Zn  Zn143  1  0.94139777  0.43541274  0.19424990  1
  Zn  Zn144  1  0.94053213  0.43651708  0.68631489  1
  Zn  Zn145  1  0.93858709  0.93560853  0.18496269  1
  Zn  Zn146  1  0.93912840  0.93626628  0.68594715  1
  Zn  Zn147  1  0.06526449  0.06572243  0.30914158  1
  Zn  Zn148  1  0.06444206  0.05679781  0.81145273  1
  Zn  Zn149  1  0.06381734  0.55866546  0.30925118  1
  Zn  Zn150  1  0.06384372  0.56321471  0.81705151  1
  Zn  Zn151  1  0.56023643  0.06255161  0.31097400  1
  Zn  Zn152  1  0.56790381  0.05968598  0.81009902  1
  Zn  Zn153  1  0.55736793  0.56224165  0.31500698  1
  Zn  Zn154  1  0.56256126  0.56324212  0.81091597  1
  Zn  Zn155  1  0.43848103  0.20078583  0.44037922  1
  Zn  Zn156  1  0.44137811  0.20791850  0.94130846  1
  Zn  Zn157  1  0.43797322  0.68246675  0.43612344  1
  Zn  Zn158  1  0.43702085  0.68911822  0.93685573  1
  Zn  Zn159  1  0.94146525  0.19109743  0.43373388  1
  Zn  Zn160  1  0.93568267  0.19011447  0.93668097  1
  Zn  Zn161  1  0.94245543  0.68827957  0.44125030  1
  Zn  Zn162  1  0.93605372  0.68577352  0.94016293  1
  Zn  Zn163  1  0.05690849  0.31127890  0.05482322  1
  Zn  Zn164  1  0.06629454  0.31540947  0.56323003  1
  Zn  Zn165  1  0.05987982  0.81044690  0.06087067  1
  Zn  Zn166  1  0.06315466  0.81247186  0.56421794  1
  Zn  Zn167  1  0.57312065  0.31814142  0.06033038  1
  Zn  Zn168  1  0.56310694  0.31277697  0.56195549  1
  Zn  Zn169  1  0.55964784  0.81313251  0.06023819  1
  Zn  Zn170  1  0.55874995  0.80570047  0.56376911  1
  O  O171  1  0.11467248  0.11234908  0.10996136  1
  O  O172  1  0.11690544  0.12164425  0.61677632  1
  O  O173  1  0.11018884  0.62574687  0.12156812  1
  O  O174  1  0.11927139  0.62176637  0.61961165  1
  O  O175  1  0.61889457  0.11522335  0.11940911  1
  O  O176  1  0.62025534  0.11733124  0.61710231  1
  O  O177  1  0.62436423  0.61880617  0.12657659  1
  O  O178  1  0.61726842  0.61643702  0.61751710  1
  O  O179  1  0.39669836  0.37261362  0.37283923  1
  O  O180  1  0.38870611  0.38445659  0.88834012  1
  O  O181  1  0.37843713  0.88033872  0.38203376  1
  O  O182  1  0.37446367  0.87420122  0.89008553  1
  O  O183  1  0.88030746  0.38151254  0.38510424  1
  O  O184  1  0.88326076  0.37504104  0.87153515  1
  O  O185  1  0.87961350  0.88006058  0.37909720  1
  O  O186  1  0.87900230  0.87437131  0.88004316  1
  O  O187  1  0.26346476  0.01265721  0.38143552  1
  O  O188  1  0.24842815  0.00340332  0.86133306  1
  O  O189  1  0.22915352  0.51875940  0.35976489  1
  O  O190  1  0.26479349  0.49659494  0.87888983  1
  O  O191  1  0.75634850  0.00448698  0.36919132  1
  O  O192  1  0.75000372  0.00531761  0.86564037  1
  O  O193  1  0.76784787  0.49484338  0.37953066  1
  O  O194  1  0.74401202  0.51702181  0.86150536  1
  O  O195  1  0.23872579  0.49760180  0.12694850  1
  O  O196  1  0.23310500  0.49489464  0.62816654  1
  O  O197  1  0.23907984  0.98664162  0.12158939  1
  O  O198  1  0.24916409  0.99733407  0.63585397  1
  O  O199  1  0.73476927  0.50776125  0.14039718  1
  O  O200  1  0.74110868  0.50635151  0.63849499  1
  O  O201  1  0.74232504  0.99303703  0.13047228  1
  O  O202  1  0.74463760  0.99311034  0.62702124  1
  O  O203  1  0.00240084  0.36723925  0.26462616  1
  O  O204  1  0.00326034  0.36857862  0.75879847  1
  O  O205  1  0.00913173  0.86902710  0.25100165  1
  O  O206  1  0.01063285  0.88154400  0.75814851  1
  O  O207  1  0.51998747  0.37504031  0.25455284  1
  O  O208  1  0.52230839  0.38844267  0.77082724  1
  O  O209  1  0.50834675  0.87143573  0.25642551  1
  O  O210  1  0.51235628  0.86544853  0.73894610  1
  O  O211  1  0.49060287  0.12303276  0.24327255  1
  O  O212  1  0.50692810  0.12074077  0.73641590  1
  O  O213  1  0.48256365  0.62767887  0.25588498  1
  O  O214  1  0.50238301  0.62997266  0.73458084  1
  O  O215  1  0.99316312  0.13043721  0.24343195  1
  O  O216  1  0.99520628  0.13091041  0.74665671  1
  O  O217  1  0.99564511  0.63272594  0.23994471  1
  O  O218  1  0.99943916  0.62392254  0.73872406  1
  O  O219  1  0.36962594  0.26666777  0.00291168  1
  O  O220  1  0.37409919  0.26170813  0.51382915  1
  O  O221  1  0.37011305  0.75954383  0.00625459  1
  O  O222  1  0.36741493  0.75697518  0.49668363  1
  O  O223  1  0.86449340  0.24530385  0.00982194  1
  O  O224  1  0.87005909  0.25469336  0.50262494  1
  O  O225  1  0.87835738  0.75972228  0.00892135  1
  O  O226  1  0.86690579  0.75318232  0.50378491  1
  O  O227  1  0.11554048  0.23210080  0.50033952  1
  O  O228  1  0.13065619  0.24080803  0.99717238  1
  O  O229  1  0.13192079  0.74521728  0.49801080  1
  O  O230  1  0.13493346  0.75250973  0.99787082  1
  O  O231  1  0.63580293  0.24152194  0.50157316  1
  O  O232  1  0.62872171  0.23478480  0.99200994  1
  O  O233  1  0.63186480  0.74047526  0.49548631  1
  O  O234  1  0.61768179  0.75162988  0.98425498  1
  O  O235  1  0.51046627  0.23378631  0.11311616  1
  O  O236  1  0.50836530  0.23290409  0.62460782  1
  O  O237  1  0.48561002  0.75396566  0.12592032  1
  O  O238  1  0.49646750  0.73549733  0.63099874  1
  O  O239  1  0.98811702  0.24786091  0.12915622  1
  O  O240  1  0.99427442  0.24626857  0.63624091  1
  O  O241  1  0.99064408  0.74406284  0.13008169  1
  O  O242  1  0.98906397  0.74257484  0.61830069  1
  O  O243  1  0.00028061  0.26267408  0.36581010  1
  O  O244  1  -0.00065011  0.25257697  0.86312209  1
  O  O245  1  0.00011495  0.75790821  0.36548560  1
  O  O246  1  0.00022445  0.76117382  0.87818633  1
  O  O247  1  0.51110894  0.26536589  0.37944247  1
  O  O248  1  0.51725170  0.26250992  0.87903725  1
  O  O249  1  0.51217976  0.75569731  0.37697045  1
  O  O250  1  0.50726609  0.74014819  0.86139959  1
  O  O251  1  0.24102365  0.12449380  0.49608347  1
  O  O252  1  0.24346637  0.12808392  0.99735347  1
  O  O253  1  0.23989156  0.63307073  0.49258397  1
  O  O254  1  0.25101180  0.63970624  1.00250469  1
  O  O255  1  0.74101807  0.12906348  0.49533384  1
  O  O256  1  0.74451498  0.12978283  0.99434556  1
  O  O257  1  0.74323645  0.63459641  0.50484632  1
  O  O258  1  0.74634425  0.62549584  0.98576664  1
  O  O259  1  0.26429145  0.36911710  -0.00115650  1
  O  O260  1  0.21444856  0.35651964  0.52357292  1
  O  O261  1  0.25777337  0.86879537  0.00675864  1
  O  O262  1  0.25639368  0.86932461  0.49776545  1
  O  O263  1  0.72164173  0.34766430  0.01271051  1
  O  O264  1  0.75805511  0.36215523  0.49614695  1
  O  O265  1  0.76232256  0.87994867  0.00381795  1
  O  O266  1  0.75549630  0.86571355  0.50515190  1
  O  O267  1  0.12382160  0.50524066  0.22659984  1
  O  O268  1  0.12352808  0.49371994  0.74447364  1
  O  O269  1  0.11592948  0.99236716  0.23396198  1
  O  O270  1  0.13164152  0.98884058  0.74785111  1
  O  O271  1  0.62199205  0.49694174  0.24224016  1
  O  O272  1  0.63473256  0.49791341  0.74269629  1
  O  O273  1  0.63094830  0.99348766  0.24302448  1
  O  O274  1  0.63063443  0.98860468  0.74285382  1
  O  O275  1  0.38086245  -0.00275025  0.26328079  1
  O  O276  1  0.36132069  -0.00946272  0.74928291  1
  O  O277  1  0.36988199  0.51336860  0.24321477  1
  O  O278  1  0.37787243  0.48923379  0.77010629  1
  O  O279  1  0.87084542  0.00468614  0.25265152  1
  O  O280  1  0.86809886  0.00488577  0.74845400  1
  O  O281  1  0.87721983  0.49852182  0.26767413  1
  O  O282  1  0.86132849  0.50187571  0.74092895  1
  O  O283  1  0.11740318  0.38187808  0.38412167  1
  O  O284  1  0.11830167  0.37670330  0.86678388  1
  O  O285  1  0.11965233  0.87731884  0.36422678  1
  O  O286  1  0.11597828  0.87393162  0.86549923  1
  O  O287  1  0.62821880  0.37228093  0.36024603  1
  O  O288  1  0.62686756  0.37054476  0.87590398  1
  O  O289  1  0.62077634  0.86773358  0.37045489  1
  O  O290  1  0.63167959  0.86328416  0.86151478  1
  O  O291  1  0.38389619  0.11722048  0.14150738  1
  O  O292  1  0.39367088  0.12285674  0.62130625  1
  O  O293  1  0.36738085  0.63532338  0.13846774  1
  O  O294  1  0.38697536  0.61883588  0.61386377  1
  O  O295  1  0.88026848  0.13024008  0.12969773  1
  O  O296  1  0.88142553  0.13177643  0.62939053  1
  O  O297  1  0.88373735  0.63064319  0.12419508  1
  O  O298  1  0.88457487  0.63237025  0.62358012  1
  O  O299  1  0.24562297  0.24190523  0.11005524  1
  O  O300  1  0.25152709  0.25561581  0.63028213  1
  O  O301  1  0.25640503  0.76156538  0.11882661  1
  O  O302  1  0.25329553  0.75374285  0.61049189  1
  O  O303  1  0.76246136  0.24567231  0.11968078  1
  O  O304  1  0.76068529  0.24342235  0.61312998  1
  O  O305  1  0.76373171  0.75539065  0.12915088  1
  O  O306  1  0.75506484  0.75205222  0.61711465  1
  O  O307  1  0.25839238  0.23189047  0.38315331  1
  O  O308  1  0.24972749  0.24208418  0.88584913  1
  O  O309  1  0.24515947  0.74352346  0.38394212  1
  O  O310  1  0.24973562  0.75144760  0.88481082  1
  O  O311  1  0.74991446  0.24223084  0.38257119  1
  O  O312  1  0.74450530  0.24443928  0.88265750  1
  O  O313  1  0.73751573  0.75610149  0.38524149  1
  O  O314  1  0.73795392  0.73497044  0.86593827  1
  O  O315  1  0.00243773  0.11684933  0.00311731  1
  O  O316  1  0.00295080  0.11666002  0.50126390  1
  O  O317  1  -0.00028359  0.62615677  0.01428678  1
  O  O318  1  0.01240404  0.62550957  0.50927014  1
  O  O319  1  0.49800791  0.11399042  0.00270942  1
  O  O320  1  0.51315503  0.12191756  0.50021378  1
  O  O321  1  0.50152463  0.61436356  0.00034221  1
  O  O322  1  0.50968817  0.62702490  0.51193618  1
  O  O323  1  0.50434653  0.37880689  0.49143513  1
  O  O324  1  0.49849396  0.38441619  0.99543243  1
  O  O325  1  0.49395989  0.87777234  0.49400519  1
  O  O326  1  0.48279279  0.87825821  1.00492757  1
  O  O327  1  0.99546565  0.37279238  0.48817239  1
  O  O328  1  0.99783888  0.37174551  0.98126618  1
  O  O329  1  0.99515424  0.88173451  0.49381503  1
  O  O330  1  0.99069008  0.88084547  0.99308399  1
  O  O331  1  0.51214734  0.47973972  0.37517498  1
  O  O332  1  0.49616574  0.49756777  0.88594579  1
  O  O333  1  0.49600076  0.99208106  0.38106016  1
  O  O334  1  0.50229570  0.99702333  0.88192660  1
  O  O335  1  0.99576695  0.48652942  0.37659291  1
  O  O336  1  0.99307071  0.49180610  0.87242359  1
  O  O337  1  0.99467958  0.99587494  0.37955540  1
  O  O338  1  0.99729141  0.99112133  0.88495487  1
  O  O339  1  0.00420943  0.00145577  0.11252983  1
  O  O340  1  -0.00152140  0.00742017  0.61439447  1
  O  O341  1  0.00042393  0.51010192  0.12722956  1
  O  O342  1  0.00878158  0.50813885  0.62219649  1
  O  O343  1  0.51297636  0.00571739  0.12883594  1
  O  O344  1  0.50738503  0.00720441  0.61732484  1
  O  O345  1  0.51221900  0.49775573  0.12196479  1
  O  O346  1  0.50922865  0.51007752  0.63034348  1
  O  O347  1  0.25080596  0.37021913  0.25620567  1
  O  O348  1  0.23724910  0.37973106  0.74451126  1
  O  O349  1  0.23646262  0.86936111  0.24302618  1
  O  O350  1  0.23956587  0.88385899  0.74859186  1
  O  O351  1  0.74069604  0.38571802  0.24113049  1
  O  O352  1  0.74136267  0.39095272  0.75709879  1
  O  O353  1  0.74480178  0.87869636  0.24309873  1
  O  O354  1  0.74142436  0.87701423  0.74106376  1
  O  O355  1  0.27065159  0.12156109  0.25967410  1
  O  O356  1  0.24822636  0.11084079  0.75420752  1
  O  O357  1  0.25945269  0.63308612  0.25655997  1
  O  O358  1  0.25381309  0.62108194  0.75107752  1
  O  O359  1  0.75531987  0.11803176  0.25431375  1
  O  O360  1  0.75429534  0.11874562  0.75219963  1
  O  O361  1  0.76076769  0.62576031  0.26069549  1
  O  O362  1  0.75289365  0.61677711  0.75546325  1
  O  O363  1  0.37786568  0.11943025  0.36684777  1
  O  O364  1  0.38819226  0.11514608  0.88948695  1
  O  O365  1  0.36464188  0.63017342  0.36188520  1
  O  O366  1  0.37409764  0.60701650  0.88359129  1
  O  O367  1  0.87088192  0.11920854  0.36976195  1
  O  O368  1  0.86790392  0.12297271  0.86677575  1
  O  O369  1  0.88936049  0.60595532  0.38076307  1
  O  O370  1  0.86022623  0.63217239  0.87325890  1
  O  O371  1  0.12229486  0.37807442  0.12351629  1
  O  O372  1  0.11997350  0.38413535  0.64071524  1
  O  O373  1  0.12907402  0.88041798  0.12878938  1
  O  O374  1  0.12370791  0.87940143  0.63539830  1
  O  O375  1  0.63531820  0.38846034  0.13305378  1
  O  O376  1  0.62032635  0.38616997  0.63509710  1
  O  O377  1  0.62943832  0.87857130  0.12795456  1
  O  O378  1  0.62977782  0.87696761  0.62766784  1
  O  O379  1  0.11094492  0.24010995  0.23986004  1
  O  O380  1  0.11553868  0.25765257  0.75360730  1
  O  O381  1  0.11377197  0.75792907  0.24667223  1
  O  O382  1  0.13045722  0.76798967  0.74949967  1
  O  O383  1  0.63473983  0.26412615  0.24519983  1
  O  O384  1  0.63782538  0.26221092  0.76028411  1
  O  O385  1  0.62394576  0.75378179  0.25886820  1
  O  O386  1  0.61604426  0.75349916  0.75377592  1
  O  O387  1  0.37957229  0.23874036  0.25008507  1
  O  O388  1  0.38784598  0.28612148  0.73983861  1
  O  O389  1  0.37692486  0.74546473  0.24201150  1
  O  O390  1  0.38702739  0.75996403  0.74566909  1
  O  O391  1  0.87832749  0.24505158  0.24371249  1
  O  O392  1  0.87885580  0.24634939  0.74374509  1
  O  O393  1  0.88727839  0.75345641  0.24230472  1
  O  O394  1  0.87005018  0.74927883  0.73619571  1
  O  O395  1  0.32282725  0.47552020  0.47945519  1
  O  O396  1  0.38224875  0.49264320  0.99828107  1
  O  O397  1  0.38220384  0.99316711  0.49146387  1
  O  O398  1  0.37213169  0.99154949  1.00339528  1
  O  O399  1  0.87890357  0.49177019  0.49417757  1
  O  O400  1  0.80262976  0.46195398  1.02197182  1
  O  O401  1  0.88439149  0.99546746  0.49484271  1
  O  O402  1  0.88287213  0.99209445  0.99857318  1
  O  O403  1  0.11776244  0.00070749  0.00519684  1
  O  O404  1  0.11281543  0.00429496  0.50030888  1
  O  O405  1  0.12650726  0.50080859  0.01865988  1
  O  O406  1  0.12476375  0.51048447  0.50916958  1
  O  O407  1  0.63105032  0.00392329  0.00895179  1
  O  O408  1  0.62163585  0.00655484  0.50275893  1
  O  O409  1  0.61957485  0.50375076  0.01606527  1
  O  O410  1  0.63642426  0.50936854  0.50996322  1
  O  O411  1  0.38362689  0.38090147  0.11346826  1
  O  O412  1  0.35288784  0.39246826  0.62055108  1
  O  O413  1  0.36648464  0.87027596  0.12123535  1
  O  O414  1  0.37586305  0.87335049  0.60843844  1
  O  O415  1  0.86536194  0.36821387  0.13484657  1
  O  O416  1  0.88398299  0.36931201  0.60855133  1
  O  O417  1  0.87153598  0.86798782  0.11650096  1
  O  O418  1  0.87112701  0.86715238  0.61770999  1
  O  O419  1  0.13741574  0.11527658  0.38117567  1
  O  O420  1  0.12022631  0.12329047  0.88817931  1
  O  O421  1  0.12425969  0.63009931  0.38230104  1
  O  O422  1  0.13000790  0.62787440  0.88061162  1
  O  O423  1  0.63154046  0.12497737  0.38130546  1
  O  O424  1  0.63052825  0.13182344  0.87696550  1
  O  O425  1  0.61862689  0.63233718  0.38568019  1
  O  O426  1  0.63292103  0.63183064  0.87597508  1
