# generated using pymatgen
data_V85Zn86O256
_symmetry_space_group_name_H-M   'P 1'
_cell_length_a   16.93609233
_cell_length_b   16.94385254
_cell_length_c   16.94597948
_cell_angle_alpha   89.97063666
_cell_angle_beta   90.02884573
_cell_angle_gamma   90.03873953
_symmetry_Int_Tables_number   1
_chemical_formula_structural   V85Zn86O256
_chemical_formula_sum   'V85 Zn86 O256'
_cell_volume   4862.86083343
_cell_formula_units_Z   1
loop_
 _symmetry_equiv_pos_site_id
 _symmetry_equiv_pos_as_xyz
  1  'x, y, z'
loop_
 _atom_site_type_symbol
 _atom_site_label
 _atom_site_symmetry_multiplicity
 _atom_site_fract_x
 _atom_site_fract_y
 _atom_site_fract_z
 _atom_site_occupancy
  V  V0  1  0.76436814  0.00443911  0.25692913  1
  V  V1  1  0.51656572  0.50355310  0.00048049  1
  V  V2  1  0.87246044  -0.00048907  0.86618024  1
  V  V3  1  0.87809747  0.24766395  0.14035506  1
  V  V4  1  0.62547822  0.25361366  0.37209181  1
  V  V5  1  0.62005123  0.49862417  0.61927278  1
  V  V6  1  0.37624840  0.49974414  0.87572808  1
  V  V7  1  0.87387103  0.37775247  -0.00061485  1
  V  V8  1  0.24171561  0.12027032  0.37087383  1
  V  V9  1  0.74316397  0.62369035  0.87486407  1
  V  V10  1  0.36944222  0.49617784  0.37966993  1
  V  V11  1  0.37586535  0.87519501  -0.00071175  1
  V  V12  1  -0.00239377  0.00257839  0.00064929  1
  V  V13  1  0.37819350  0.62425792  0.74960780  1
  V  V14  1  0.50450895  0.87183725  0.37500430  1
  V  V15  1  0.62643871  0.24794161  0.86912929  1
  V  V16  1  0.87092381  0.24938922  0.62396154  1
  V  V17  1  0.62535364  0.12677370  0.49729508  1
  V  V18  1  0.24389825  0.00399270  0.74675082  1
  V  V19  1  0.62537999  0.12346968  -0.00091376  1
  V  V20  1  0.11933202  0.25552051  0.87223442  1
  V  V21  1  0.12630715  0.75110698  0.37606802  1
  V  V22  1  0.62637643  0.00091475  0.12759316  1
  V  V23  1  0.63316112  0.00066613  0.62397785  1
  V  V24  1  0.24026149  0.37033295  0.62413984  1
  V  V25  1  0.87903077  0.87829037  0.48874856  1
  V  V26  1  0.37494569  0.61176229  0.24858572  1
  V  V27  1  0.74524539  0.75252275  0.49887278  1
  V  V28  1  0.61859128  0.62673028  0.50035827  1
  V  V29  1  0.74567916  0.62916299  0.37604310  1
  V  V30  1  0.24463193  0.62158808  0.36942991  1
  V  V31  1  0.24879331  0.75171395  -0.00370186  1
  V  V32  1  0.01131962  0.36713758  0.36627476  1
  V  V33  1  0.00626553  0.51203666  0.50700449  1
  V  V34  1  0.12495196  0.87324184  0.75563849  1
  V  V35  1  0.88150049  0.62420679  0.74735940  1
  V  V36  1  0.00289533  0.86567489  0.87672682  1
  V  V37  1  0.24234632  0.88075546  0.61970263  1
  V  V38  1  0.00502353  -0.00308023  0.48979634  1
  V  V39  1  0.50285178  0.25586231  0.24991354  1
  V  V40  1  0.87169586  0.37747895  0.50612111  1
  V  V41  1  0.73920009  0.38051426  0.13266995  1
  V  V42  1  0.49924887  0.87564133  0.86975501  1
  V  V43  1  0.24241245  0.24844794  0.49749077  1
  V  V44  1  0.38172907  0.36782547  0.50852548  1
  V  V45  1  0.50278027  0.38355019  0.37437458  1
  V  V46  1  0.00139529  0.75498012  0.25379757  1
  V  V47  1  0.13445217  0.87632295  0.25213308  1
  V  V48  1  0.62647783  0.87409654  0.25315524  1
  V  V49  1  0.87305304  0.62504670  0.25108748  1
  V  V50  1  0.75453612  0.87787417  0.63113299  1
  V  V51  1  0.75244780  0.24851204  0.00060242  1
  V  V52  1  0.50058626  0.74844979  0.25332716  1
  V  V53  1  0.87454104  0.74866901  0.12388472  1
  V  V54  1  0.37490563  0.75259723  0.62284489  1
  V  V55  1  0.19663360  0.69277281  0.54069535  1
  V  V56  1  0.36860934  0.87096656  0.49562809  1
  V  V57  1  0.24950801  0.25745409  -0.00085822  1
  V  V58  1  0.25100434  0.12820371  0.87020667  1
  V  V59  1  0.37484433  0.37923720  0.00883179  1
  V  V60  1  0.12230842  0.12838465  0.00283519  1
  V  V61  1  0.63058337  0.37172246  0.74138327  1
  V  V62  1  0.13173940  -0.00274227  0.12589703  1
  V  V63  1  0.14153037  0.50358479  0.13474077  1
  V  V64  1  0.36963601  0.11961695  0.25027119  1
  V  V65  1  0.48604376  0.24445335  0.74567804  1
  V  V66  1  0.37668567  0.74764682  0.12574192  1
  V  V67  1  0.49982002  -0.00100400  0.49911715  1
  V  V68  1  0.50052638  0.37540648  0.87271177  1
  V  V69  1  0.20033249  0.33173396  0.17942754  1
  V  V70  1  0.37413903  0.25434660  0.12559638  1
  V  V71  1  0.87355420  0.87379973  -0.00017583  1
  V  V72  1  -0.00105781  0.61959967  0.12648893  1
  V  V73  1  0.00694073  0.11700663  0.62716101  1
  V  V74  1  0.88326916  0.74790656  0.62599981  1
  V  V75  1  0.12287165  0.62774132  -0.00285452  1
  V  V76  1  0.62808752  0.87772253  0.75096802  1
  V  V77  1  0.74118342  0.74571737  0.00093919  1
  V  V78  1  0.51489441  0.62126190  0.12179985  1
  V  V79  1  0.87639821  0.49933559  0.37452115  1
  V  V80  1  0.75005401  0.12020002  0.86441544  1
  V  V81  1  0.49856535  0.12659017  0.12508613  1
  V  V82  1  0.24733778  0.62473869  0.87690402  1
  V  V83  1  0.75124021  0.49830717  0.74269699  1
  V  V84  1  0.37363692  0.00500689  0.87336175  1
  Zn  Zn85  1  0.49752766  0.62382950  0.62049997  1
  Zn  Zn86  1  0.00585828  0.74414704  0.75159653  1
  Zn  Zn87  1  0.11863839  0.38205615  0.74835041  1
  Zn  Zn88  1  0.12501802  0.51966527  0.62427291  1
  Zn  Zn89  1  -0.00292481  0.37864456  0.87215550  1
  Zn  Zn90  1  0.74538457  0.25886577  0.50088735  1
  Zn  Zn91  1  0.24874337  0.49763537  0.74655028  1
  Zn  Zn92  1  0.00102488  0.49826365  -0.00100621  1
  Zn  Zn93  1  0.48965202  0.13403853  0.62238069  1
  Zn  Zn94  1  -0.01522621  0.11999280  0.14337534  1
  Zn  Zn95  1  0.87611553  0.49959207  0.87310465  1
  Zn  Zn96  1  0.62169329  0.74757201  0.87617238  1
  Zn  Zn97  1  0.50057530  0.00115850  -0.00150567  1
  Zn  Zn98  1  0.87098723  0.12153885  0.74105075  1
  Zn  Zn99  1  0.50091135  0.75154371  0.74884866  1
  Zn  Zn100  1  0.37162577  -0.00399177  0.36832322  1
  Zn  Zn101  1  0.73659858  0.50130499  0.24999572  1
  Zn  Zn102  1  0.12812002  0.12036283  0.50390455  1
  Zn  Zn103  1  0.75092955  0.87518192  0.12560281  1
  Zn  Zn104  1  0.76586533  0.13497966  0.36472977  1
  Zn  Zn105  1  -0.00099059  0.25183229  0.74466340  1
  Zn  Zn106  1  0.25508828  0.87762656  0.12711411  1
  Zn  Zn107  1  0.14311444  0.16116441  0.21900146  1
  Zn  Zn108  1  0.18843557  0.19323040  0.68629035  1
  Zn  Zn109  1  0.18990339  0.68734144  0.18682849  1
  Zn  Zn110  1  0.19152761  0.69462289  0.70575472  1
  Zn  Zn111  1  0.68963561  0.18806610  0.18876360  1
  Zn  Zn112  1  0.68618288  0.18565312  0.68059383  1
  Zn  Zn113  1  0.68768855  0.69072926  0.19093111  1
  Zn  Zn114  1  0.68989921  0.68942512  0.68647910  1
  Zn  Zn115  1  0.31433032  0.30642871  0.31792181  1
  Zn  Zn116  1  0.30933386  0.31638948  0.81370175  1
  Zn  Zn117  1  0.31101634  0.80482717  0.31422299  1
  Zn  Zn118  1  0.31271252  0.81393825  0.81185415  1
  Zn  Zn119  1  0.81413881  0.31755654  0.31618923  1
  Zn  Zn120  1  0.81399933  0.31072676  0.80907850  1
  Zn  Zn121  1  0.81019216  0.81242541  0.31217468  1
  Zn  Zn122  1  0.81239652  0.81008131  0.81307698  1
  Zn  Zn123  1  0.18659706  0.43949040  0.43996889  1
  Zn  Zn124  1  0.18645817  0.44138399  0.94094735  1
  Zn  Zn125  1  0.18520930  0.93885423  0.43401392  1
  Zn  Zn126  1  0.18609755  0.93867999  0.93829149  1
  Zn  Zn127  1  0.68782953  0.44089291  0.43524677  1
  Zn  Zn128  1  0.69263964  0.43340635  0.93039291  1
  Zn  Zn129  1  0.69006934  0.93790330  0.43647148  1
  Zn  Zn130  1  0.68858375  0.93635314  0.93906796  1
  Zn  Zn131  1  0.30985544  0.06640885  0.05896829  1
  Zn  Zn132  1  0.31463152  0.06320006  0.56082223  1
  Zn  Zn133  1  0.31982775  0.56306637  0.06202941  1
  Zn  Zn134  1  0.31897522  0.55172655  0.56355361  1
  Zn  Zn135  1  0.81035584  0.06318249  0.06310430  1
  Zn  Zn136  1  0.83417795  0.08364032  0.52406440  1
  Zn  Zn137  1  0.80731815  0.56155962  0.06163767  1
  Zn  Zn138  1  0.81146824  0.56315082  0.56348577  1
  Zn  Zn139  1  0.56090015  0.43852704  0.18796013  1
  Zn  Zn140  1  0.44024800  0.43669677  0.68696734  1
  Zn  Zn141  1  0.43894463  0.93851451  0.18557947  1
  Zn  Zn142  1  0.42151973  0.96791898  0.67267186  1
  Zn  Zn143  1  0.93339645  0.43668820  0.18819177  1
  Zn  Zn144  1  0.94127653  0.43799207  0.68579409  1
  Zn  Zn145  1  0.94242384  0.93377899  0.18613098  1
  Zn  Zn146  1  0.93953478  0.93742496  0.68584401  1
  Zn  Zn147  1  0.05644592  0.05422400  0.31571583  1
  Zn  Zn148  1  0.06161394  0.06282767  0.81307919  1
  Zn  Zn149  1  0.06109335  0.56003347  0.31465384  1
  Zn  Zn150  1  0.06291705  0.55677977  0.81295406  1
  Zn  Zn151  1  0.56201711  0.06458390  0.31301773  1
  Zn  Zn152  1  0.56262355  0.06067718  0.80873718  1
  Zn  Zn153  1  0.56147248  0.56624806  0.31798809  1
  Zn  Zn154  1  0.56327255  0.56095236  0.80935509  1
  Zn  Zn155  1  0.43514396  0.18857985  0.43433993  1
  Zn  Zn156  1  0.43736620  0.18902423  0.93508165  1
  Zn  Zn157  1  0.43362475  0.68855224  0.43524429  1
  Zn  Zn158  1  0.43985723  0.68738698  0.93811279  1
  Zn  Zn159  1  0.94298967  0.19068932  0.43252856  1
  Zn  Zn160  1  0.93519196  0.18680912  0.93909345  1
  Zn  Zn161  1  0.93615235  0.69049902  0.43688920  1
  Zn  Zn162  1  0.93099399  0.68341562  0.93703802  1
  Zn  Zn163  1  0.05649078  0.31314584  0.06313480  1
  Zn  Zn164  1  0.05485117  0.31170657  0.55411467  1
  Zn  Zn165  1  0.06292014  0.81059390  0.06390470  1
  Zn  Zn166  1  0.05924799  0.81894983  0.56659961  1
  Zn  Zn167  1  0.56173810  0.31006968  0.05638590  1
  Zn  Zn168  1  0.56038962  0.31230872  0.56391010  1
  Zn  Zn169  1  0.56090445  0.81502570  0.06365344  1
  Zn  Zn170  1  0.56198282  0.81360481  0.56425041  1
  O  O171  1  0.13243039  0.11657667  0.10925663  1
  O  O172  1  0.11082737  0.13040839  0.62408477  1
  O  O173  1  0.11900518  0.61879077  0.11978639  1
  O  O174  1  0.14518486  0.63808364  0.61594452  1
  O  O175  1  0.62081512  0.11930172  0.12059131  1
  O  O176  1  0.61493443  0.11525587  0.61870511  1
  O  O177  1  0.61397843  0.62998513  0.12847623  1
  O  O178  1  0.62310782  0.62013046  0.61788805  1
  O  O179  1  0.38065741  0.38006540  0.38239885  1
  O  O180  1  0.38150411  0.38157713  0.88059654  1
  O  O181  1  0.38187842  0.87340177  0.37899690  1
  O  O182  1  0.38139027  0.88051568  0.88054482  1
  O  O183  1  0.87984724  0.38431761  0.38455518  1
  O  O184  1  0.87084330  0.37470415  0.88689356  1
  O  O185  1  0.87351744  0.86976126  0.39034466  1
  O  O186  1  0.87939326  0.88222449  0.88063668  1
  O  O187  1  0.25577108  0.01487565  0.38049975  1
  O  O188  1  0.25335482  0.00997611  0.87268239  1
  O  O189  1  0.25755947  0.50769285  0.37828081  1
  O  O190  1  0.25880044  0.50904675  0.87526244  1
  O  O191  1  0.74770969  -0.00059893  0.35864405  1
  O  O192  1  0.76037763  0.00899750  0.88348356  1
  O  O193  1  0.76160653  0.50901064  0.37515855  1
  O  O194  1  0.75154836  0.50685875  0.86213786  1
  O  O195  1  0.24070010  0.50871318  0.12574128  1
  O  O196  1  0.24629794  0.48499133  0.62193308  1
  O  O197  1  0.23624916  0.99669241  0.11536210  1
  O  O198  1  0.24974334  0.99212533  0.63535153  1
  O  O199  1  0.75014576  0.48402178  0.12596064  1
  O  O200  1  0.73872315  0.50583654  0.63641140  1
  O  O201  1  0.74017582  0.99910079  0.13423631  1
  O  O202  1  0.73705661  0.99039297  0.61664221  1
  O  O203  1  -0.00803059  0.38074854  0.26723607  1
  O  O204  1  0.00118674  0.37030847  0.75368509  1
  O  O205  1  0.01059763  0.86000974  0.24402482  1
  O  O206  1  0.00784015  0.87702257  0.75907011  1
  O  O207  1  0.49957667  0.36305440  0.25723682  1
  O  O208  1  0.50730829  0.36616924  0.75424427  1
  O  O209  1  0.50457768  0.87002511  0.25598985  1
  O  O210  1  0.50418063  0.87742847  0.76151123  1
  O  O211  1  0.49123854  0.13337178  0.24486212  1
  O  O212  1  0.50496151  0.14273487  0.75314491  1
  O  O213  1  0.49524725  0.63327636  0.24576097  1
  O  O214  1  0.48791095  0.62887509  0.75014180  1
  O  O215  1  1.03497750  0.13215184  0.24207676  1
  O  O216  1  0.99719108  0.12454005  0.73810144  1
  O  O217  1  0.99452443  0.63309117  0.24353634  1
  O  O218  1  0.98584387  0.62644832  0.75708863  1
  O  O219  1  0.37001930  0.25726891  0.00347157  1
  O  O220  1  0.36794006  0.26316014  0.49623687  1
  O  O221  1  0.37003668  0.75531128  0.00563000  1
  O  O222  1  0.37763156  0.76221579  0.50580956  1
  O  O223  1  0.86260876  0.25640030  0.00205550  1
  O  O224  1  0.87535151  0.26662702  0.50439007  1
  O  O225  1  0.86592752  0.75386233  0.00514247  1
  O  O226  1  0.86999905  0.75963602  0.50722077  1
  O  O227  1  0.13924936  0.24840082  0.50234940  1
  O  O228  1  0.12853053  0.24521023  0.99702424  1
  O  O229  1  0.12294256  0.75406560  0.49327883  1
  O  O230  1  0.13381150  0.73692432  1.00598641  1
  O  O231  1  0.62174955  0.24380572  0.49381002  1
  O  O232  1  0.63494447  0.24514680  0.99164075  1
  O  O233  1  0.63848618  0.74544282  0.50790943  1
  O  O234  1  0.63771681  0.75687973  0.99962190  1
  O  O235  1  0.49608086  0.24584119  0.13090657  1
  O  O236  1  0.49757219  0.25060108  0.63987647  1
  O  O237  1  0.49567450  0.74515447  0.13302123  1
  O  O238  1  0.48607399  0.75056286  0.62720371  1
  O  O239  1  0.98049622  0.25073999  0.12261491  1
  O  O240  1  0.99014410  0.23805322  0.61995466  1
  O  O241  1  0.99628376  0.73815770  0.13117921  1
  O  O242  1  0.98733068  0.75416483  0.62979600  1
  O  O243  1  0.00476860  0.26715858  0.38207330  1
  O  O244  1  0.01124602  0.24862360  0.87732431  1
  O  O245  1  0.01343130  0.74125655  0.36605680  1
  O  O246  1  -0.00850134  0.76320235  0.87561468  1
  O  O247  1  0.50307113  0.25895851  0.36721275  1
  O  O248  1  0.50775229  0.25535534  0.86721107  1
  O  O249  1  0.49620996  0.75592387  0.36137179  1
  O  O250  1  0.50217949  0.75978478  0.87247960  1
  O  O251  1  0.25130178  0.13076022  0.49492667  1
  O  O252  1  0.24287456  0.13455579  0.98892533  1
  O  O253  1  0.25906741  0.62524391  0.49109582  1
  O  O254  1  0.24653956  0.63052548  0.99418674  1
  O  O255  1  0.72933008  0.12906216  0.50290062  1
  O  O256  1  0.74428757  0.13249826  0.99355626  1
  O  O257  1  0.74444603  0.63434708  0.49533794  1
  O  O258  1  0.75341447  0.63309059  0.98968852  1
  O  O259  1  0.26187014  0.36985380  -0.00771846  1
  O  O260  1  0.25739481  0.36804375  0.50543266  1
  O  O261  1  0.25524272  0.86628189  -0.00080444  1
  O  O262  1  0.25636605  0.88125292  0.50741580  1
  O  O263  1  0.75302766  0.36708794  0.00782442  1
  O  O264  1  0.76688835  0.37895460  0.49628049  1
  O  O265  1  0.75745182  0.86708570  0.00242139  1
  O  O266  1  0.75929209  0.87066053  0.50616105  1
  O  O267  1  0.12278103  0.50684355  0.23281437  1
  O  O268  1  0.13033367  0.50071090  0.74084811  1
  O  O269  1  0.12114765  0.98679378  0.23960000  1
  O  O270  1  0.13648023  0.99093783  0.75837813  1
  O  O271  1  0.62416198  0.49748868  0.25789371  1
  O  O272  1  0.63064879  0.49135387  0.74304468  1
  O  O273  1  0.62633949  0.99133903  0.24430591  1
  O  O274  1  0.62004826  0.98788717  0.73879637  1
  O  O275  1  0.37799312  0.01517826  0.24618982  1
  O  O276  1  0.35713539  -0.01019924  0.76796214  1
  O  O277  1  0.38131697  0.51192797  0.26411861  1
  O  O278  1  0.37384611  0.50747279  0.75526607  1
  O  O279  1  0.86312797  -0.00579653  0.24366472  1
  O  O280  1  0.87747939  0.00032555  0.76308847  1
  O  O281  1  0.87034652  0.50823041  0.25859876  1
  O  O282  1  0.86692979  0.50662528  0.74630140  1
  O  O283  1  0.10998471  0.38660893  0.37567878  1
  O  O284  1  0.12439631  0.36746518  0.87641326  1
  O  O285  1  0.12940982  0.86447255  0.36509720  1
  O  O286  1  0.11382822  0.88003185  0.87055726  1
  O  O287  1  0.61552190  0.36441495  0.38463307  1
  O  O288  1  0.62055351  0.36786705  0.86309028  1
  O  O289  1  0.61350761  0.87784520  0.36862168  1
  O  O290  1  0.61848406  0.87765299  0.86722423  1
  O  O291  1  0.37648050  0.13295860  0.12907884  1
  O  O292  1  0.39481138  0.07667014  0.63588576  1
  O  O293  1  0.38444667  0.62844354  0.13331894  1
  O  O294  1  0.37497253  0.63118527  0.63128185  1
  O  O295  1  0.87137370  0.14196399  0.12086959  1
  O  O296  1  0.88491833  0.13105182  0.61990438  1
  O  O297  1  0.88033449  0.62857117  0.12939994  1
  O  O298  1  0.86659703  0.63600873  0.63453279  1
  O  O299  1  0.25520248  0.26131422  0.11887123  1
  O  O300  1  0.25420538  0.26062774  0.61714680  1
  O  O301  1  0.25838313  0.74847370  0.11243138  1
  O  O302  1  0.25644719  0.75419218  0.61702780  1
  O  O303  1  0.75423152  0.25765997  0.11817612  1
  O  O304  1  0.76467261  0.24387943  0.61944195  1
  O  O305  1  0.75681121  0.75055321  0.11865775  1
  O  O306  1  0.75902044  0.75958490  0.61789228  1
  O  O307  1  0.25615022  0.23377172  0.38506626  1
  O  O308  1  0.24034661  0.24476302  0.87785741  1
  O  O309  1  0.23753446  0.73976452  0.37787620  1
  O  O310  1  0.25784407  0.74117493  0.88780548  1
  O  O311  1  0.73991709  0.25160909  0.37687808  1
  O  O312  1  0.74548140  0.24138547  0.88123159  1
  O  O313  1  0.75509665  0.74216937  0.38621032  1
  O  O314  1  0.74776957  0.74307646  0.88327004  1
  O  O315  1  0.00599180  0.11732866  0.00270949  1
  O  O316  1  0.00493339  0.11092459  0.50792362  1
  O  O317  1  0.00737621  0.62725319  0.00724932  1
  O  O318  1  -0.00805709  0.61060046  0.49723851  1
  O  O319  1  0.50699715  0.12542847  0.00613299  1
  O  O320  1  0.50501429  0.11577666  0.49913882  1
  O  O321  1  0.49709114  0.61592311  0.00908733  1
  O  O322  1  0.51473376  0.63406598  0.49751289  1
  O  O323  1  0.48737521  0.36886310  0.49253732  1
  O  O324  1  0.49539475  0.38094938  0.99118803  1
  O  O325  1  0.49532556  0.87550496  0.48923802  1
  O  O326  1  0.49590210  0.87832068  0.98818308  1
  O  O327  1  0.98914301  0.38786611  0.49186647  1
  O  O328  1  0.98635371  0.37664343  0.99908300  1
  O  O329  1  0.98871703  0.88340597  0.50524069  1
  O  O330  1  0.99579800  0.88086123  0.99483013  1
  O  O331  1  0.49217692  0.48752968  0.37379360  1
  O  O332  1  0.49450124  0.49608555  0.87867413  1
  O  O333  1  0.49817787  0.99137350  0.38270432  1
  O  O334  1  0.49024051  0.99610754  0.87521044  1
  O  O335  1  0.98770830  0.50080043  0.38303384  1
  O  O336  1  0.99424074  0.49820274  0.88186584  1
  O  O337  1  0.99663318  0.99579433  0.39054182  1
  O  O338  1  0.99224635  0.99525232  0.88538967  1
  O  O339  1  0.00748728  0.00143572  0.11436772  1
  O  O340  1  -0.00333600  0.01266223  0.61964457  1
  O  O341  1  0.00088821  0.51130002  0.12323227  1
  O  O342  1  0.00266729  0.50215695  0.61150433  1
  O  O343  1  0.51054803  0.00739175  0.12339729  1
  O  O344  1  0.51773303  -0.02039024  0.60471641  1
  O  O345  1  0.50427146  0.50791313  0.11335438  1
  O  O346  1  0.51435784  0.50479688  0.62921279  1
  O  O347  1  0.26271502  0.37765875  0.24182732  1
  O  O348  1  0.24979131  0.37461945  0.73481890  1
  O  O349  1  0.23945416  0.86573126  0.24526244  1
  O  O350  1  0.24293177  0.88067628  0.74513120  1
  O  O351  1  0.75213301  0.37566233  0.23484279  1
  O  O352  1  0.74048225  0.38348702  0.75344530  1
  O  O353  1  0.74194709  0.88256773  0.24842001  1
  O  O354  1  0.74440806  0.87315826  0.74041323  1
  O  O355  1  0.25162886  0.12993561  0.26353240  1
  O  O356  1  0.24182516  0.11907372  0.76130895  1
  O  O357  1  0.26225866  0.63151684  0.25843963  1
  O  O358  1  0.26213214  0.62411474  0.76108416  1
  O  O359  1  0.74735316  0.10950557  0.25120107  1
  O  O360  1  0.74840560  0.12580365  0.76110307  1
  O  O361  1  0.75469163  0.62702156  0.25936611  1
  O  O362  1  0.75676826  0.61910382  0.75469832  1
  O  O363  1  0.36877427  0.12185948  0.36507223  1
  O  O364  1  0.36372833  0.11766003  0.88023106  1
  O  O365  1  0.36782367  0.61789456  0.37110762  1
  O  O366  1  0.36948090  0.62029021  0.86972677  1
  O  O367  1  0.86326422  0.11798904  0.41638355  1
  O  O368  1  0.86680871  0.11692137  0.87452871  1
  O  O369  1  0.86549937  0.62076522  0.37194759  1
  O  O370  1  0.86203473  0.62371142  0.86511655  1
  O  O371  1  0.13031242  0.38916364  0.11918602  1
  O  O372  1  0.13581704  0.37059341  0.62110402  1
  O  O373  1  0.12740824  0.88106616  0.13008238  1
  O  O374  1  0.13648505  0.87029961  0.63506446  1
  O  O375  1  0.63506625  0.36967693  0.12309451  1
  O  O376  1  0.62257086  0.38204188  0.63239439  1
  O  O377  1  0.62459591  0.88542333  0.13289625  1
  O  O378  1  0.63519364  0.87739837  0.63080394  1
  O  O379  1  0.14337150  0.27460826  0.23610425  1
  O  O380  1  0.12254460  0.25352098  0.76032347  1
  O  O381  1  0.11963294  0.75340811  0.25525530  1
  O  O382  1  0.12243231  0.76549385  0.75739890  1
  O  O383  1  0.61472004  0.24376256  0.25850230  1
  O  O384  1  0.62355538  0.25708014  0.75090045  1
  O  O385  1  0.61729098  0.76588045  0.24535573  1
  O  O386  1  0.62265845  0.76436031  0.74916304  1
  O  O387  1  0.38256196  0.24059043  0.24445465  1
  O  O388  1  0.38794103  0.25240578  0.75776771  1
  O  O389  1  0.38336030  0.74279678  0.24432663  1
  O  O390  1  0.37290854  0.74367685  0.74011338  1
  O  O391  1  0.86824186  0.24988176  0.23903986  1
  O  O392  1  0.87698785  0.24479949  0.73957572  1
  O  O393  1  0.88237583  0.74655340  0.24555110  1
  O  O394  1  0.87521217  0.74250724  0.74251552  1
  O  O395  1  0.37584409  0.48516154  0.48842332  1
  O  O396  1  0.38357999  0.49416026  0.99399346  1
  O  O397  1  0.38442226  0.98467670  0.49517425  1
  O  O398  1  0.37401642  0.99418632  0.99008806  1
  O  O399  1  0.87947720  0.49435348  0.49654103  1
  O  O400  1  0.87206547  0.48800686  1.00039416  1
  O  O401  1  0.88537853  0.98121874  0.50932115  1
  O  O402  1  0.88157958  0.99480112  0.99673869  1
  O  O403  1  0.11596634  0.00672034  0.00334320  1
  O  O404  1  0.10927332  -0.00592092  0.50198644  1
  O  O405  1  0.12466808  0.51347187  0.01072317  1
  O  O406  1  0.11073971  0.50289808  0.50260990  1
  O  O407  1  0.62532845  0.00496115  0.01028226  1
  O  O408  1  0.61990684  0.00640050  0.50066488  1
  O  O409  1  0.61526007  0.49456641  -0.00988345  1
  O  O410  1  0.63225367  0.51169882  0.50869550  1
  O  O411  1  0.38266231  0.36862688  0.10976024  1
  O  O412  1  0.36975720  0.38160638  0.61100333  1
  O  O413  1  0.37615679  0.86913052  0.11762901  1
  O  O414  1  0.36338115  0.86998233  0.61880991  1
  O  O415  1  0.86450017  0.36524772  0.11830132  1
  O  O416  1  0.88034354  0.36897913  0.61274250  1
  O  O417  1  0.87572494  0.86624887  0.11756686  1
  O  O418  1  0.86810584  0.86827302  0.62269335  1
  O  O419  1  0.13899327  0.11768402  0.38131346  1
  O  O420  1  0.12930248  0.13077049  0.88574366  1
  O  O421  1  0.13707990  0.62903817  0.36988032  1
  O  O422  1  0.13783059  0.62130470  0.88256268  1
  O  O423  1  0.62202476  0.13799011  0.38111308  1
  O  O424  1  0.63176505  0.12596809  0.87924614  1
  O  O425  1  0.63789376  0.62378621  0.38444490  1
  O  O426  1  0.63794179  0.62861015  0.86529596  1
