# generated using pymatgen
data_V85Zn86O256
_symmetry_space_group_name_H-M   'P 1'
_cell_length_a   16.93553294
_cell_length_b   16.95438237
_cell_length_c   16.95265171
_cell_angle_alpha   90.02990624
_cell_angle_beta   90.01981633
_cell_angle_gamma   89.99682154
_symmetry_Int_Tables_number   1
_chemical_formula_structural   V85Zn86O256
_chemical_formula_sum   'V85 Zn86 O256'
_cell_volume   4867.63937274
_cell_formula_units_Z   1
loop_
 _symmetry_equiv_pos_site_id
 _symmetry_equiv_pos_as_xyz
  1  'x, y, z'
loop_
 _atom_site_type_symbol
 _atom_site_label
 _atom_site_symmetry_multiplicity
 _atom_site_fract_x
 _atom_site_fract_y
 _atom_site_fract_z
 _atom_site_occupancy
  V  V0  1  0.36628810  0.11728670  0.74910214  1
  V  V1  1  0.37820138  0.13202039  0.25167075  1
  V  V2  1  0.48535884  0.74772316  0.24844730  1
  V  V3  1  0.62429215  0.49899569  0.12837014  1
  V  V4  1  0.75251315  0.62428498  0.37604223  1
  V  V5  1  0.48806118  0.62682887  0.13040716  1
  V  V6  1  0.74936504  0.49694661  0.25133854  1
  V  V7  1  0.49744664  0.13496456  0.12478760  1
  V  V8  1  0.49580812  0.00459772  0.00085295  1
  V  V9  1  0.12233755  0.74617483  0.36983918  1
  V  V10  1  0.75306448  0.49636188  0.75048727  1
  V  V11  1  0.11779123  0.26158973  0.37652343  1
  V  V12  1  0.24831899  0.12447080  0.37613220  1
  V  V13  1  0.74740928  0.87269812  0.12740325  1
  V  V14  1  0.24914328  0.51373507  0.25192297  1
  V  V15  1  0.88421592  0.49463343  0.37475712  1
  V  V16  1  0.12686334  0.49674050  0.62100791  1
  V  V17  1  0.74760417  0.74941682  0.00264253  1
  V  V18  1  0.87512801  -0.00151971  0.87430322  1
  V  V19  1  0.62601413  0.87806333  0.74990479  1
  V  V20  1  0.37482036  0.86751022  0.00521177  1
  V  V21  1  0.62601971  0.75079265  0.87700007  1
  V  V22  1  0.87707162  0.01128896  0.37694200  1
  V  V23  1  0.50075875  0.75078673  0.75227017  1
  V  V24  1  0.17181793  0.32191926  0.80404784  1
  V  V25  1  0.12986102  0.87926603  0.75332125  1
  V  V26  1  0.37391651  0.62657924  0.75514113  1
  V  V27  1  0.11585118  0.11528725  0.49488325  1
  V  V28  1  0.25087110  0.50380419  0.75466210  1
  V  V29  1  0.88391538  0.88059887  0.49946598  1
  V  V30  1  0.75274241  0.87576299  0.62457994  1
  V  V31  1  0.37565053  0.88424566  0.50259581  1
  V  V32  1  0.87173985  0.62879213  0.75013088  1
  V  V33  1  0.12794471  -0.00050581  0.62676117  1
  V  V34  1  0.62315982  0.87364064  0.25027352  1
  V  V35  1  0.49938343  0.88113568  0.37870039  1
  V  V36  1  0.00468670  0.62685225  0.12757590  1
  V  V37  1  0.88249471  0.37204458  0.49575756  1
  V  V38  1  0.05549108  0.69666170  0.80647154  1
  V  V39  1  0.87867875  0.12780247  0.75121844  1
  V  V40  1  0.61668119  0.25184923  0.87912154  1
  V  V41  1  -0.01026640  0.50677051  -0.00725402  1
  V  V42  1  0.37152085  0.51915156  0.37346281  1
  V  V43  1  0.50051507  0.49619130  -0.00133567  1
  V  V44  1  -0.00573456  0.25618349  0.25300402  1
  V  V45  1  0.62744756  0.12423742  0.48658215  1
  V  V46  1  0.62273422  0.37368089  0.74894663  1
  V  V47  1  0.87561180  0.25014733  0.62763452  1
  V  V48  1  -0.01489219  0.37429886  0.86416666  1
  V  V49  1  0.24834143  -0.00130912  0.24961605  1
  V  V50  1  0.62770756  0.62482634  0.50069935  1
  V  V51  1  0.00274283  0.63074760  0.61721709  1
  V  V52  1  0.50210160  0.62715544  0.62803514  1
  V  V53  1  0.36659236  0.37651759  0.00148071  1
  V  V54  1  0.87894180  0.62854953  0.25286159  1
  V  V55  1  0.25172909  0.74540127  0.49714611  1
  V  V56  1  0.62356417  -0.00000822  0.61817598  1
  V  V57  1  0.88044091  0.75137468  0.13078471  1
  V  V58  1  0.50013432  0.87705069  0.87716295  1
  V  V59  1  0.25092978  0.86485087  0.12724732  1
  V  V60  1  0.87649399  0.12999307  0.23443431  1
  V  V61  1  0.75444202  0.75084435  0.50045695  1
  V  V62  1  0.36578495  0.25401630  0.12654460  1
  V  V63  1  0.50366408  0.25032139  0.74653492  1
  V  V64  1  0.40246086  0.34948708  0.47957141  1
  V  V65  1  0.50382991  0.12118965  0.62055350  1
  V  V66  1  0.75154880  0.61888324  0.87756566  1
  V  V67  1  0.00841661  -0.00394362  0.00493730  1
  V  V68  1  0.00106058  0.87902177  0.36794997  1
  V  V69  1  0.35888099  -0.00063862  0.87259550  1
  V  V70  1  0.75400381  0.36684586  0.11948713  1
  V  V71  1  0.25160093  0.37322907  0.62006737  1
  V  V72  1  0.05363927  0.17362561  0.07457552  1
  V  V73  1  0.00209448  0.87400609  0.86931824  1
  V  V74  1  0.49766622  0.50422103  0.49522347  1
  V  V75  1  0.62517033  0.74947354  0.37282129  1
  V  V76  1  0.24384144  0.24991118  0.49977963  1
  V  V77  1  0.24418125  0.74320662  -0.01219475  1
  V  V78  1  0.74921413  0.00879126  0.25313871  1
  V  V79  1  0.62483440  0.13067952  0.00128637  1
  V  V80  1  0.74796377  0.24633576  0.48550226  1
  V  V81  1  -0.00419328  0.11908536  0.62167296  1
  V  V82  1  0.61395998  0.36328667  0.26256627  1
  V  V83  1  0.38035501  0.49757284  0.87372298  1
  V  V84  1  0.75367582  0.13296944  0.88051624  1
  Zn  Zn85  1  0.88312559  0.75511862  0.62802261  1
  Zn  Zn86  1  0.37741162  0.00295689  0.37762403  1
  Zn  Zn87  1  0.62356037  0.62354712  0.00256504  1
  Zn  Zn88  1  0.37338879  0.24633803  0.62565718  1
  Zn  Zn89  1  0.87728056  0.87263136  0.00003628  1
  Zn  Zn90  1  0.74821573  0.37194072  0.62225849  1
  Zn  Zn91  1  0.74807483  0.00152689  0.75207914  1
  Zn  Zn92  1  0.12226259  -0.00067378  0.12615206  1
  Zn  Zn93  1  0.13084757  0.62178039  0.49530063  1
  Zn  Zn94  1  0.24606980  0.37845516  0.12939735  1
  Zn  Zn95  1  0.12057124  0.87401553  0.24755937  1
  Zn  Zn96  1  0.37331088  0.75315064  0.62565146  1
  Zn  Zn97  1  0.82541000  0.20972853  0.05398683  1
  Zn  Zn98  1  0.18174089  0.16497725  -0.06869292  1
  Zn  Zn99  1  0.12250580  0.38066196  0.24907469  1
  Zn  Zn100  1  0.12657089  0.50378508  0.12223495  1
  Zn  Zn101  1  0.12353522  0.62868011  -0.01570521  1
  Zn  Zn102  1  0.25185638  0.87839762  0.62781536  1
  Zn  Zn103  1  0.00666891  0.49476695  0.49552647  1
  Zn  Zn104  1  0.62533507  0.49611800  0.62303824  1
  Zn  Zn105  1  0.87192265  0.36689512  -0.00695213  1
  Zn  Zn106  1  0.62151379  0.00157084  0.12553327  1
  Zn  Zn107  1  0.18999038  0.19279326  0.19654173  1
  Zn  Zn108  1  0.18487414  0.18365894  0.68467250  1
  Zn  Zn109  1  0.19261748  0.69037221  0.18831755  1
  Zn  Zn110  1  0.19309953  0.68496614  0.67891834  1
  Zn  Zn111  1  0.68241192  0.18918078  0.19143554  1
  Zn  Zn112  1  0.69305670  0.18603383  0.68538523  1
  Zn  Zn113  1  0.68529882  0.68453427  0.18954999  1
  Zn  Zn114  1  0.68909015  0.68983520  0.68734868  1
  Zn  Zn115  1  0.30818262  0.31632589  0.31032687  1
  Zn  Zn116  1  0.33425830  0.31123178  0.81538421  1
  Zn  Zn117  1  0.31036282  0.81325284  0.31765753  1
  Zn  Zn118  1  0.31227512  0.81379068  0.81331886  1
  Zn  Zn119  1  0.80955802  0.31450327  0.30775010  1
  Zn  Zn120  1  0.81171115  0.31015199  0.81341346  1
  Zn  Zn121  1  0.81413994  0.81538654  0.31368536  1
  Zn  Zn122  1  0.81270211  0.81063474  0.81187512  1
  Zn  Zn123  1  0.19624806  0.43805557  0.43552444  1
  Zn  Zn124  1  0.18628166  0.44944024  0.94152033  1
  Zn  Zn125  1  0.18901478  0.93579317  0.43768015  1
  Zn  Zn126  1  0.18513188  0.93200942  0.93968598  1
  Zn  Zn127  1  0.69164638  0.43631305  0.43820932  1
  Zn  Zn128  1  0.68493534  0.43457234  0.93635258  1
  Zn  Zn129  1  0.69134116  0.93847936  0.43639659  1
  Zn  Zn130  1  0.68624159  0.94190334  0.94054812  1
  Zn  Zn131  1  0.30280282  0.06080487  0.06299250  1
  Zn  Zn132  1  0.30922424  0.06262592  0.56365549  1
  Zn  Zn133  1  0.31110342  0.56440661  0.06346428  1
  Zn  Zn134  1  0.31696425  0.56243034  0.56375083  1
  Zn  Zn135  1  0.81137102  0.04754411  0.05932888  1
  Zn  Zn136  1  0.80797006  0.06250947  0.56002346  1
  Zn  Zn137  1  0.81222814  0.56100314  0.06586318  1
  Zn  Zn138  1  0.81509498  0.55936979  0.56525573  1
  Zn  Zn139  1  0.43548833  0.43923333  0.19254837  1
  Zn  Zn140  1  0.43808179  0.43472224  0.67937993  1
  Zn  Zn141  1  0.43413831  0.94008051  0.18791539  1
  Zn  Zn142  1  0.43989176  0.93894514  0.68611144  1
  Zn  Zn143  1  0.93709251  0.43926863  0.18440456  1
  Zn  Zn144  1  0.93255862  0.44191176  0.68101904  1
  Zn  Zn145  1  0.93532935  0.93808416  0.18984584  1
  Zn  Zn146  1  0.94263926  0.93965034  0.68953589  1
  Zn  Zn147  1  0.05740759  0.06658032  0.30788652  1
  Zn  Zn148  1  0.06471816  0.06266392  0.81187744  1
  Zn  Zn149  1  0.06299888  0.56626851  0.31164678  1
  Zn  Zn150  1  0.04904495  0.52342536  0.79441972  1
  Zn  Zn151  1  0.56083222  0.06188890  0.30794492  1
  Zn  Zn152  1  0.56049013  0.06435393  0.81296192  1
  Zn  Zn153  1  0.56063482  0.55893667  0.31220198  1
  Zn  Zn154  1  0.56581814  0.56022059  0.81394012  1
  Zn  Zn155  1  0.44078000  0.18169434  0.44043523  1
  Zn  Zn156  1  0.38098585  0.17127086  0.95321339  1
  Zn  Zn157  1  0.43850459  0.69440236  0.43865979  1
  Zn  Zn158  1  0.43663123  0.68486098  0.94053311  1
  Zn  Zn159  1  0.93590373  0.18780780  0.43501871  1
  Zn  Zn160  1  0.97156935  0.18513302  0.91917792  1
  Zn  Zn161  1  0.94172175  0.68972492  0.43871037  1
  Zn  Zn162  1  0.92769333  0.68455718  0.94353960  1
  Zn  Zn163  1  0.06048135  0.33432976  0.05782171  1
  Zn  Zn164  1  0.06132517  0.30889858  0.57005003  1
  Zn  Zn165  1  0.06546633  0.81232591  0.06112080  1
  Zn  Zn166  1  0.06507180  0.81379790  0.55969785  1
  Zn  Zn167  1  0.55892873  0.31522461  0.06591170  1
  Zn  Zn168  1  0.56094269  0.30780660  0.55321142  1
  Zn  Zn169  1  0.56038423  0.81061666  0.06453144  1
  Zn  Zn170  1  0.56271511  0.81215215  0.56098053  1
  O  O171  1  0.12381234  0.12193834  0.12961260  1
  O  O172  1  0.11501491  0.11936648  0.61834334  1
  O  O173  1  0.11009960  0.63048469  0.13063879  1
  O  O174  1  0.11973959  0.61725056  0.61907586  1
  O  O175  1  0.61452575  0.12545668  0.11970486  1
  O  O176  1  0.62221881  0.11704630  0.61938971  1
  O  O177  1  0.62211464  0.61086647  0.12480692  1
  O  O178  1  0.61913072  0.62603535  0.61832587  1
  O  O179  1  0.37185053  0.37935632  0.38708413  1
  O  O180  1  0.37895573  0.38838696  0.88417781  1
  O  O181  1  0.38267102  0.87726477  0.38335590  1
  O  O182  1  0.38197366  0.88239999  0.87956475  1
  O  O183  1  0.86865000  0.38435331  0.38197402  1
  O  O184  1  0.88028045  0.38174290  0.87191356  1
  O  O185  1  0.88278717  0.88192026  0.38056269  1
  O  O186  1  0.88021407  0.88135509  0.87439482  1
  O  O187  1  0.25248330  0.00631219  0.36789306  1
  O  O188  1  0.25945330  -0.00656638  0.87598853  1
  O  O189  1  0.26209039  0.50434147  0.36889691  1
  O  O190  1  0.25905720  0.49729008  0.86118188  1
  O  O191  1  0.76209218  -0.01031596  0.36051602  1
  O  O192  1  0.75794707  0.01097988  0.87757367  1
  O  O193  1  0.76011533  0.50733879  0.37105208  1
  O  O194  1  0.74213883  0.50782526  0.86363713  1
  O  O195  1  0.25088835  0.50353151  0.13975016  1
  O  O196  1  0.25052182  0.49096138  0.63080218  1
  O  O197  1  0.24620547  0.98975243  0.13205011  1
  O  O198  1  0.23325074  0.99911824  0.62280630  1
  O  O199  1  0.74180589  0.49389094  0.13148845  1
  O  O200  1  0.74564965  0.49806428  0.63645856  1
  O  O201  1  0.74694046  0.98837946  0.13372297  1
  O  O202  1  0.74115766  0.99228289  0.62725472  1
  O  O203  1  -0.00212444  0.36103300  0.24375500  1
  O  O204  1  0.00218665  0.41345634  0.76798972  1
  O  O205  1  -0.00114676  0.87517692  0.26332966  1
  O  O206  1  0.00728899  0.87315779  0.76110472  1
  O  O207  1  0.51533153  0.38013024  0.24748954  1
  O  O208  1  0.50497941  0.36007688  0.74191386  1
  O  O209  1  0.50385229  0.86802647  0.25346157  1
  O  O210  1  0.50587794  0.86942839  0.75605991  1
  O  O211  1  0.48894134  0.11771727  0.23853850  1
  O  O212  1  0.49876225  0.13092032  0.73798885  1
  O  O213  1  0.50540712  0.63225578  0.23881329  1
  O  O214  1  0.49793140  0.63116878  0.74538618  1
  O  O215  1  0.98781623  0.13601632  0.24457166  1
  O  O216  1  0.98491500  0.11940558  0.73923531  1
  O  O217  1  0.98655945  0.62252745  0.24391164  1
  O  O218  1  0.99596885  0.62728673  0.74743204  1
  O  O219  1  0.38286312  0.26672201  0.01160267  1
  O  O220  1  0.35496297  0.24400168  0.50342824  1
  O  O221  1  0.36774735  0.76120688  -0.00512923  1
  O  O222  1  0.36501454  0.75959051  0.49937950  1
  O  O223  1  0.89803563  0.25351160  -0.01451924  1
  O  O224  1  0.86657734  0.25372225  0.50304797  1
  O  O225  1  0.86411045  0.75311530  0.01128940  1
  O  O226  1  0.86969693  0.75969314  0.50145865  1
  O  O227  1  0.12844875  0.24195201  0.49609272  1
  O  O228  1  0.10891848  0.23472592  1.01355568  1
  O  O229  1  0.13697001  0.75098331  0.49255056  1
  O  O230  1  0.13838338  0.74607767  0.99865996  1
  O  O231  1  0.64164349  0.24109439  0.50390403  1
  O  O232  1  0.61472533  0.24540593  0.99074711  1
  O  O233  1  0.63306872  0.74483658  0.49311154  1
  O  O234  1  0.63045297  0.74708009  0.99585154  1
  O  O235  1  0.48982923  0.23940211  0.12346337  1
  O  O236  1  0.49870064  0.23886219  0.63001669  1
  O  O237  1  0.50571475  0.73505317  0.13261986  1
  O  O238  1  0.49981741  0.74127523  0.63118908  1
  O  O239  1  1.00588227  0.24603974  0.13001147  1
  O  O240  1  0.98525996  0.23719338  0.61994439  1
  O  O241  1  0.98707682  0.74548443  0.11909542  1
  O  O242  1  1.00195628  0.73626884  0.61950193  1
  O  O243  1  0.00647424  0.24715931  0.36637376  1
  O  O244  1  -0.00345547  0.27813596  0.85183652  1
  O  O245  1  0.01507096  0.76038965  0.38187761  1
  O  O246  1  -0.00360312  0.75153147  0.87265135  1
  O  O247  1  0.48631907  0.28432011  0.45273680  1
  O  O248  1  0.51485069  0.24168298  0.85962490  1
  O  O249  1  0.50610651  0.75742559  0.36668438  1
  O  O250  1  0.50619529  0.75562058  0.87297049  1
  O  O251  1  0.23967625  0.13046338  0.49538275  1
  O  O252  1  0.27392996  0.13210528  0.98296397  1
  O  O253  1  0.25325237  0.64141007  0.50516445  1
  O  O254  1  0.24908039  0.63894040  1.00188224  1
  O  O255  1  0.74340195  0.13663321  0.49940392  1
  O  O256  1  0.74906639  0.12701771  0.99555746  1
  O  O257  1  0.74880380  0.63026202  0.49646136  1
  O  O258  1  0.74886489  0.62815817  0.99348123  1
  O  O259  1  0.26256543  0.38800872  0.00433462  1
  O  O260  1  0.25516236  0.36403491  0.50507029  1
  O  O261  1  0.25566121  0.86610114  0.00661635  1
  O  O262  1  0.25917577  0.86809991  0.50253616  1
  O  O263  1  0.75044420  0.37998269  0.01421809  1
  O  O264  1  0.75765347  0.36302454  0.50206998  1
  O  O265  1  0.74891009  0.87200912  0.01346460  1
  O  O266  1  0.76010876  0.87040687  0.50529388  1
  O  O267  1  0.13784248  0.50229781  0.25425862  1
  O  O268  1  0.14118378  0.50542589  0.73242181  1
  O  O269  1  0.13699612  0.99949699  0.25105142  1
  O  O270  1  0.11949716  0.99107607  0.74171351  1
  O  O271  1  0.63191086  0.49627211  0.24414862  1
  O  O272  1  0.62931851  0.48941526  0.74816141  1
  O  O273  1  0.63276920  0.99292324  0.24778420  1
  O  O274  1  0.62645272  0.99390925  0.74350517  1
  O  O275  1  0.36357040  0.01094657  0.25053366  1
  O  O276  1  0.37949354  0.00908910  0.75595796  1
  O  O277  1  0.36717195  0.49790501  0.26621782  1
  O  O278  1  0.37345697  0.50348727  0.75495610  1
  O  O279  1  0.86859181  0.01084959  0.25262694  1
  O  O280  1  0.87341897  0.00397614  0.76164763  1
  O  O281  1  0.86948161  0.50542644  0.25684892  1
  O  O282  1  0.86337632  0.51428623  0.74411424  1
  O  O283  1  0.12626690  0.36389336  0.37842748  1
  O  O284  1  0.11874110  0.38369294  0.86858889  1
  O  O285  1  0.11632708  0.86973539  0.37544407  1
  O  O286  1  0.11543445  0.87659683  0.86637316  1
  O  O287  1  0.62979481  0.38083374  0.36104018  1
  O  O288  1  0.62933436  0.36413893  0.86148873  1
  O  O289  1  0.61887251  0.86984165  0.37135860  1
  O  O290  1  0.62029607  0.87216218  0.87179367  1
  O  O291  1  0.37763455  0.13308804  0.13187730  1
  O  O292  1  0.38435823  0.12021328  0.63331259  1
  O  O293  1  0.38981759  0.62253078  0.12637072  1
  O  O294  1  0.38460424  0.62785439  0.63649750  1
  O  O295  1  0.86014309  0.12741483  0.13153685  1
  O  O296  1  0.87822306  0.12661847  0.62982526  1
  O  O297  1  0.88091010  0.63207468  0.13331252  1
  O  O298  1  0.88574342  0.62550604  0.63159256  1
  O  O299  1  0.26184395  0.25343655  0.12957393  1
  O  O300  1  0.24776901  0.25538736  0.61698258  1
  O  O301  1  0.25019113  0.76063403  0.11716246  1
  O  O302  1  0.25186172  0.75661030  0.61132416  1
  O  O303  1  0.74514924  0.26246448  0.12274770  1
  O  O304  1  0.76324833  0.24800980  0.61582475  1
  O  O305  1  0.75471766  0.75459041  0.12273221  1
  O  O306  1  0.75239632  0.76022731  0.61838632  1
  O  O307  1  0.23995738  0.24384607  0.38137064  1
  O  O308  1  0.23425661  0.26343132  0.86123744  1
  O  O309  1  0.23804085  0.75722256  0.38790349  1
  O  O310  1  0.25150412  0.75255352  0.88930621  1
  O  O311  1  0.75483713  0.24972791  0.38698553  1
  O  O312  1  0.73977801  0.23754621  0.87030310  1
  O  O313  1  0.74650609  0.74472464  0.38034775  1
  O  O314  1  0.74450835  0.74503291  0.88314895  1
  O  O315  1  -0.00929657  0.11351995  0.01739009  1
  O  O316  1  0.00639930  0.12788409  0.50623365  1
  O  O317  1  -0.00207235  0.62075409  0.00859514  1
  O  O318  1  0.00227057  0.61775264  0.50632237  1
  O  O319  1  0.49575886  0.11795535  0.00710686  1
  O  O320  1  0.50996742  0.12264446  0.51341362  1
  O  O321  1  0.50130759  0.61749872  0.01283005  1
  O  O322  1  0.50397011  0.62208900  0.50803728  1
  O  O323  1  0.49397028  0.40357689  0.52758593  1
  O  O324  1  0.48938163  0.39203739  1.01087425  1
  O  O325  1  0.49019756  0.86652536  0.49004307  1
  O  O326  1  0.49254208  0.88064603  0.99874646  1
  O  O327  1  0.98670423  0.37411660  0.50550819  1
  O  O328  1  0.99907181  0.39135789  0.98075186  1
  O  O329  1  0.98830086  0.87360833  0.49245080  1
  O  O330  1  0.99994788  0.87804281  0.98736962  1
  O  O331  1  0.48780656  0.50476741  0.38405587  1
  O  O332  1  0.49412477  0.50588927  0.88633138  1
  O  O333  1  0.49820298  0.98447303  0.36847799  1
  O  O334  1  0.49667719  0.99511354  0.88631542  1
  O  O335  1  0.98817881  0.50334268  0.37560792  1
  O  O336  1  0.99118450  0.51138176  0.89089010  1
  O  O337  1  0.98963678  0.99329330  0.37076011  1
  O  O338  1  0.99176189  0.98985892  0.88033719  1
  O  O339  1  0.00213136  -0.01183307  0.11322196  1
  O  O340  1  0.00735435  0.01163463  0.62426417  1
  O  O341  1  0.00008041  0.51067372  0.11659101  1
  O  O342  1  0.01149482  0.50874049  0.62277857  1
  O  O343  1  0.49707352  0.00739147  0.11368122  1
  O  O344  1  0.51570095  0.00433624  0.62739066  1
  O  O345  1  0.50521065  0.50993959  0.12373143  1
  O  O346  1  0.50194931  0.51704834  0.62385192  1
  O  O347  1  0.24573238  0.38946279  0.25051150  1
  O  O348  1  0.24862653  0.37589556  0.74664265  1
  O  O349  1  0.25240084  0.88255263  0.24350374  1
  O  O350  1  0.23443031  0.86701824  0.74747052  1
  O  O351  1  0.74204087  0.37996849  0.23821729  1
  O  O352  1  0.74377115  0.38203192  0.74808542  1
  O  O353  1  0.74540960  0.87950999  0.24122770  1
  O  O354  1  0.74419762  0.87647038  0.74235728  1
  O  O355  1  0.25738990  0.11942232  0.25758012  1
  O  O356  1  0.26733223  0.12825454  0.74343212  1
  O  O357  1  0.25136964  0.61374466  0.25021810  1
  O  O358  1  0.26286733  0.61618635  0.74261176  1
  O  O359  1  0.75250398  0.11402907  0.24575252  1
  O  O360  1  0.76091110  0.12090241  0.75781990  1
  O  O361  1  0.75960885  0.61789610  0.25484283  1
  O  O362  1  0.75373558  0.61888544  0.75567515  1
  O  O363  1  0.37314322  0.12441691  0.36888256  1
  O  O364  1  0.38579319  0.11243927  0.85678645  1
  O  O365  1  0.37732174  0.61742638  0.37732405  1
  O  O366  1  0.38188678  0.61531681  0.86257577  1
  O  O367  1  0.87761587  0.11396501  0.36568158  1
  O  O368  1  0.87334203  0.11860737  0.86835879  1
  O  O369  1  0.87239424  0.62148567  0.36929750  1
  O  O370  1  0.85941684  0.62952397  0.86758638  1
  O  O371  1  0.12820529  0.38593246  0.12887305  1
  O  O372  1  0.13860230  0.38212375  0.61801199  1
  O  O373  1  0.13441886  0.87557041  0.12910120  1
  O  O374  1  0.12007190  0.88414750  0.63260840  1
  O  O375  1  0.63160088  0.38439235  0.13030696  1
  O  O376  1  0.62714214  0.37243163  0.63603930  1
  O  O377  1  0.63083796  0.87572622  0.13161665  1
  O  O378  1  0.63090851  0.88125703  0.62681760  1
  O  O379  1  0.11545138  0.25184094  0.26167430  1
  O  O380  1  0.12190876  0.26212760  0.74212677  1
  O  O381  1  0.13360377  0.75469173  0.26684327  1
  O  O382  1  0.12073141  0.75074488  0.74865538  1
  O  O383  1  0.62353587  0.26299582  0.25230959  1
  O  O384  1  0.62179090  0.25344316  0.75225557  1
  O  O385  1  0.62061353  0.75597235  0.25629479  1
  O  O386  1  0.62089876  0.75743859  0.75661291  1
  O  O387  1  0.37209653  0.24009886  0.24611570  1
  O  O388  1  0.38617036  0.23652778  0.74786838  1
  O  O389  1  0.38614819  0.75351441  0.25477245  1
  O  O390  1  0.38119135  0.74263767  0.75082301  1
  O  O391  1  0.87991563  0.24069845  0.25516110  1
  O  O392  1  0.86831100  0.24011215  0.74008625  1
  O  O393  1  0.86820265  0.74086475  0.24245088  1
  O  O394  1  0.86855325  0.73517944  0.74501118  1
  O  O395  1  0.37979931  0.50001023  0.48769219  1
  O  O396  1  0.37997377  0.49991556  0.99177803  1
  O  O397  1  0.37119979  0.98888817  0.49909617  1
  O  O398  1  0.37960297  0.99028612  0.99157957  1
  O  O399  1  0.87449157  0.48924908  0.49249828  1
  O  O400  1  0.88707761  0.49620076  1.00719025  1
  O  O401  1  0.86699363  0.99308070  0.48833077  1
  O  O402  1  0.88380362  0.99397399  0.98863916  1
  O  O403  1  0.11304595  -0.00052521  -0.00017485  1
  O  O404  1  0.12632488  0.01020635  0.50491319  1
  O  O405  1  0.11254389  0.51317621  0.00121213  1
  O  O406  1  0.12963148  0.50156474  0.50707372  1
  O  O407  1  0.61420855  0.01013515  0.00261973  1
  O  O408  1  0.63496423  0.00990664  0.50723054  1
  O  O409  1  0.61675463  0.49958077  0.00775430  1
  O  O410  1  0.61804242  0.50753276  0.50000551  1
  O  O411  1  0.37350937  0.36989705  0.12145606  1
  O  O412  1  0.36451957  0.36860531  0.61559313  1
  O  O413  1  0.36708455  0.88013034  0.11430448  1
  O  O414  1  0.37544370  0.87365095  0.61813958  1
  O  O415  1  0.85710749  0.37725473  0.12489331  1
  O  O416  1  0.87297685  0.36636141  0.61814235  1
  O  O417  1  0.86596891  0.86653559  0.12675739  1
  O  O418  1  0.87247692  0.87767629  0.61815312  1
  O  O419  1  0.12609081  0.13098380  0.38181707  1
  O  O420  1  0.08323149  0.14081272  0.88607130  1
  O  O421  1  0.11986129  0.64164340  0.37847830  1
  O  O422  1  0.10877992  0.63155002  0.86019641  1
  O  O423  1  0.61463366  0.12219123  0.38743047  1
  O  O424  1  0.63400661  0.12950553  0.88151019  1
  O  O425  1  0.63127559  0.62901626  0.38051901  1
  O  O426  1  0.63566370  0.63173830  0.87645227  1
