# generated using pymatgen
data_V85Zn86O256
_symmetry_space_group_name_H-M   'P 1'
_cell_length_a   16.93503731
_cell_length_b   16.92716374
_cell_length_c   16.93407703
_cell_angle_alpha   90.01785607
_cell_angle_beta   89.95620397
_cell_angle_gamma   90.05907292
_symmetry_Int_Tables_number   1
_chemical_formula_structural   V85Zn86O256
_chemical_formula_sum   'V85 Zn86 O256'
_cell_volume   4854.35469175
_cell_formula_units_Z   1
loop_
 _symmetry_equiv_pos_site_id
 _symmetry_equiv_pos_as_xyz
  1  'x, y, z'
loop_
 _atom_site_type_symbol
 _atom_site_label
 _atom_site_symmetry_multiplicity
 _atom_site_fract_x
 _atom_site_fract_y
 _atom_site_fract_z
 _atom_site_occupancy
  V  V0  1  0.37773036  0.87686626  -0.00649220  1
  V  V1  1  -0.00714229  0.48961169  0.00926327  1
  V  V2  1  -0.00114512  0.74286278  0.74848722  1
  V  V3  1  0.62615355  0.50048736  0.64723616  1
  V  V4  1  0.00857160  0.74485293  0.24698737  1
  V  V5  1  -0.00247229  0.50790641  0.50488249  1
  V  V6  1  0.50777123  0.63184580  0.61941381  1
  V  V7  1  0.00081212  0.12212928  0.62443406  1
  V  V8  1  0.87407440  0.49265049  0.86988896  1
  V  V9  1  0.00554081  0.25269362  0.75384398  1
  V  V10  1  0.74835390  0.25160618  0.50066565  1
  V  V11  1  0.12601127  0.12413272  0.50081961  1
  V  V12  1  0.62020076  0.75091054  0.87949963  1
  V  V13  1  0.11810598  0.49989817  0.63254463  1
  V  V14  1  0.74680800  0.62199280  0.37579640  1
  V  V15  1  0.87509972  -0.00201272  0.37462491  1
  V  V16  1  0.37335664  0.13129051  0.76362418  1
  V  V17  1  0.63040031  0.37982011  0.24303748  1
  V  V18  1  0.37536607  0.75006539  0.12572178  1
  V  V19  1  0.36134836  0.26021286  0.12521975  1
  V  V20  1  0.10995036  0.62714506  0.00757939  1
  V  V21  1  0.00967325  0.87429616  0.37035826  1
  V  V22  1  0.00180975  0.37522937  0.37494687  1
  V  V23  1  0.25533404  0.50397678  0.74915937  1
  V  V24  1  0.87781461  0.87892660  0.00116143  1
  V  V25  1  0.12571289  0.49867208  0.12899328  1
  V  V26  1  0.24978451  0.12322181  0.37635773  1
  V  V27  1  0.62512287  0.74608284  0.37652187  1
  V  V28  1  0.50218521  0.00022960  -0.00769408  1
  V  V29  1  0.37501521  0.49866497  0.90279162  1
  V  V30  1  0.25065241  0.00391492  0.75831784  1
  V  V31  1  0.13339259  -0.00508369  0.62358950  1
  V  V32  1  0.87366958  0.50118709  0.37258314  1
  V  V33  1  0.49876475  0.12724722  0.12078917  1
  V  V34  1  0.75030683  0.87183038  0.12453803  1
  V  V35  1  0.87243115  0.37636110  0.50151830  1
  V  V36  1  0.00053437  0.13757545  0.11326865  1
  V  V37  1  0.24640766  0.75102234  0.00326761  1
  V  V38  1  0.62685615  0.49916344  0.10720864  1
  V  V39  1  0.75053747  -0.00067245  0.24986507  1
  V  V40  1  0.37483809  0.12210454  0.24987841  1
  V  V41  1  0.24516882  0.37820456  0.62628468  1
  V  V42  1  0.24908028  0.62730534  0.88106777  1
  V  V43  1  0.74662747  0.62089156  0.86614601  1
  V  V44  1  0.74520590  0.37688174  0.64302364  1
  V  V45  1  0.12330990  0.62877572  0.50338817  1
  V  V46  1  0.87985853  0.12878244  0.24627860  1
  V  V47  1  0.37022957  0.86808839  0.51462325  1
  V  V48  1  0.37743521  0.25245404  0.62421215  1
  V  V49  1  0.51484368  0.50459770  0.49759401  1
  V  V50  1  0.74760532  0.11291054  0.87798994  1
  V  V51  1  0.87397142  0.24871764  0.62645374  1
  V  V52  1  0.75049804  0.87721912  0.63492715  1
  V  V53  1  0.34841324  0.65714565  0.70521887  1
  V  V54  1  0.24071199  -0.00560603  0.25118954  1
  V  V55  1  0.50174020  -0.00159407  0.49987355  1
  V  V56  1  0.74395450  0.74734201  0.50178150  1
  V  V57  1  0.49952410  0.75536242  0.75034531  1
  V  V58  1  0.37508217  -0.00536611  0.37467618  1
  V  V59  1  0.37743253  0.61840347  0.25495481  1
  V  V60  1  0.13009975  0.87295612  0.74712760  1
  V  V61  1  0.24511376  0.87510227  0.12857634  1
  V  V62  1  0.86978925  0.11254012  0.74887513  1
  V  V63  1  0.62827976  0.00116471  0.63539215  1
  V  V64  1  0.37722863  0.38493295  0.49844628  1
  V  V65  1  0.87775905  0.74008935  0.62344989  1
  V  V66  1  0.50065636  0.25073018  0.24661593  1
  V  V67  1  0.49641562  0.38102900  0.37281895  1
  V  V68  1  0.62484729  0.24981945  0.37381000  1
  V  V69  1  0.81666326  0.30675221  0.06740407  1
  V  V70  1  0.00088274  0.87875434  0.87745199  1
  V  V71  1  0.87433138  0.87373995  0.49969104  1
  V  V72  1  0.25407521  0.62759960  0.37784314  1
  V  V73  1  0.12334738  0.24964842  0.37492258  1
  V  V74  1  0.50215193  0.74844313  0.24928589  1
  V  V75  1  0.74577910  0.74069396  0.00067902  1
  V  V76  1  0.13542092  0.12509163  -0.01375731  1
  V  V77  1  0.11482548  -0.00211640  0.11983707  1
  V  V78  1  0.87715085  0.73957645  0.12575802  1
  V  V79  1  0.49917958  0.12780847  0.62506639  1
  V  V80  1  0.25133076  0.49572447  0.25320986  1
  V  V81  1  0.62437768  -0.00075242  0.12464101  1
  V  V82  1  0.50326375  0.62051731  0.11094077  1
  V  V83  1  0.25169739  0.25267884  0.49942858  1
  V  V84  1  0.63263382  0.26074352  0.87152913  1
  Zn  Zn85  1  0.87631239  0.62007198  0.74650752  1
  Zn  Zn86  1  0.75208970  0.49844778  0.24123300  1
  Zn  Zn87  1  0.13083016  0.75439889  0.37799700  1
  Zn  Zn88  1  0.37429190  0.00461134  0.87832047  1
  Zn  Zn89  1  0.50020619  0.87183210  0.37551761  1
  Zn  Zn90  1  0.62697798  0.12363031  0.49963847  1
  Zn  Zn91  1  0.62222188  0.87963178  0.75933923  1
  Zn  Zn92  1  0.50749108  0.39347634  0.87531543  1
  Zn  Zn93  1  0.51309946  0.26877839  0.74607677  1
  Zn  Zn94  1  0.87312835  -0.00542991  0.87306522  1
  Zn  Zn95  1  0.63946420  0.13600212  0.00795887  1
  Zn  Zn96  1  0.00213128  -0.00366332  0.49942575  1
  Zn  Zn97  1  0.25670784  0.74659226  0.52926068  1
  Zn  Zn98  1  0.14303355  0.25943974  0.86591556  1
  Zn  Zn99  1  0.00169552  0.37180979  0.87804127  1
  Zn  Zn100  1  0.12090092  0.74946889  0.87778050  1
  Zn  Zn101  1  0.13170274  0.37182621  0.25055327  1
  Zn  Zn102  1  0.27605775  0.28855313  -0.02740058  1
  Zn  Zn103  1  0.62538819  0.87361186  0.25112061  1
  Zn  Zn104  1  0.75087749  0.12521340  0.37434904  1
  Zn  Zn105  1  -0.00199541  0.25583833  0.24187523  1
  Zn  Zn106  1  0.87788435  0.62093634  0.24513926  1
  Zn  Zn107  1  0.18198075  0.18228052  0.18916467  1
  Zn  Zn108  1  0.19056283  0.18618817  0.68808971  1
  Zn  Zn109  1  0.18646167  0.68248933  0.18801308  1
  Zn  Zn110  1  0.17507521  0.68290769  0.68898313  1
  Zn  Zn111  1  0.69015520  0.18762631  0.18858539  1
  Zn  Zn112  1  0.69020988  0.18469975  0.69088011  1
  Zn  Zn113  1  0.68687202  0.68081717  0.18781501  1
  Zn  Zn114  1  0.68467081  0.68809082  0.69017455  1
  Zn  Zn115  1  0.31538279  0.31116261  0.31183997  1
  Zn  Zn116  1  0.31910180  0.31892701  0.80500232  1
  Zn  Zn117  1  0.31373529  0.81047945  0.31345934  1
  Zn  Zn118  1  0.30785137  0.81525105  0.81483684  1
  Zn  Zn119  1  0.81310806  0.31372668  0.30806708  1
  Zn  Zn120  1  0.81808396  0.30224462  0.82048252  1
  Zn  Zn121  1  0.81529127  0.81089989  0.31009891  1
  Zn  Zn122  1  0.81231886  0.80791091  0.81427342  1
  Zn  Zn123  1  0.18666988  0.44312699  0.43747084  1
  Zn  Zn124  1  0.18083814  0.43903484  0.92992234  1
  Zn  Zn125  1  0.19201094  0.93270073  0.44304248  1
  Zn  Zn126  1  0.18460131  0.93898674  0.93914440  1
  Zn  Zn127  1  0.68695615  0.43375849  0.43673760  1
  Zn  Zn128  1  0.69918397  0.42913071  0.94052604  1
  Zn  Zn129  1  0.68692628  0.93331879  0.43884094  1
  Zn  Zn130  1  0.68909862  0.93498400  0.93890902  1
  Zn  Zn131  1  0.31187427  0.06495152  0.06283499  1
  Zn  Zn132  1  0.31366655  0.06069016  0.56532862  1
  Zn  Zn133  1  0.30635659  0.56482292  0.06962685  1
  Zn  Zn134  1  0.31221561  0.55937475  0.55594974  1
  Zn  Zn135  1  0.81641094  0.06495484  0.06360533  1
  Zn  Zn136  1  0.81120342  0.06176101  0.56055240  1
  Zn  Zn137  1  0.80981607  0.55863559  0.05604201  1
  Zn  Zn138  1  0.80265222  0.56144157  0.56253102  1
  Zn  Zn139  1  0.44024729  0.43966587  0.18339540  1
  Zn  Zn140  1  0.43702846  0.44591257  0.69179314  1
  Zn  Zn141  1  0.43584747  0.93578037  0.18471451  1
  Zn  Zn142  1  0.43800135  0.94163789  0.69035525  1
  Zn  Zn143  1  0.93741675  0.43433374  0.18441815  1
  Zn  Zn144  1  0.93371935  0.43485627  0.68781309  1
  Zn  Zn145  1  0.93670823  0.93165631  0.18956042  1
  Zn  Zn146  1  0.94328196  0.93142969  0.68522611  1
  Zn  Zn147  1  0.06016967  0.06292378  0.30956004  1
  Zn  Zn148  1  0.05861846  0.05946996  0.80988253  1
  Zn  Zn149  1  0.06429131  0.56618095  0.31591815  1
  Zn  Zn150  1  0.06161755  0.55961533  0.81837521  1
  Zn  Zn151  1  0.56258860  0.06324500  0.31107006  1
  Zn  Zn152  1  0.55847398  0.07487294  0.81334360  1
  Zn  Zn153  1  0.56417852  0.56243370  0.30974640  1
  Zn  Zn154  1  0.54941045  0.57696199  0.81576366  1
  Zn  Zn155  1  0.43815537  0.18832362  0.43814565  1
  Zn  Zn156  1  0.45800142  0.22834596  0.95098361  1
  Zn  Zn157  1  0.43851486  0.68546336  0.43929175  1
  Zn  Zn158  1  0.43274571  0.69005682  0.93342296  1
  Zn  Zn159  1  0.93660511  0.18622541  0.43774877  1
  Zn  Zn160  1  0.93430179  0.18409220  0.93875299  1
  Zn  Zn161  1  0.93653070  0.68803930  0.43440236  1
  Zn  Zn162  1  0.93178754  0.68853961  0.93358662  1
  Zn  Zn163  1  0.10910943  0.32908502  0.04248239  1
  Zn  Zn164  1  0.06130496  0.31409321  0.56263914  1
  Zn  Zn165  1  0.06042772  0.81346371  0.06491769  1
  Zn  Zn166  1  0.06081115  0.81162056  0.56224101  1
  Zn  Zn167  1  0.56526666  0.31869151  0.05191101  1
  Zn  Zn168  1  0.56606018  0.31802647  0.56424589  1
  Zn  Zn169  1  0.56286434  0.81308087  0.06128657  1
  Zn  Zn170  1  0.56360333  0.81670056  0.56275825  1
  O  O171  1  0.11467828  0.11703273  0.11857932  1
  O  O172  1  0.11895137  0.11848810  0.61938089  1
  O  O173  1  0.12340533  0.61626513  0.11766594  1
  O  O174  1  0.12310673  0.61466183  0.61182267  1
  O  O175  1  0.61823605  0.11701927  0.12508235  1
  O  O176  1  0.61865537  0.11861769  0.62194697  1
  O  O177  1  0.61136270  0.61498199  0.12637342  1
  O  O178  1  0.62145548  0.61148401  0.62790380  1
  O  O179  1  0.38892016  0.36913299  0.38212768  1
  O  O180  1  0.36347883  0.40092798  0.87424698  1
  O  O181  1  0.37658578  0.88527103  0.38048003  1
  O  O182  1  0.37072622  0.87858192  0.89001174  1
  O  O183  1  0.87857850  0.38445030  0.38051686  1
  O  O184  1  0.88030287  0.38775608  0.87072875  1
  O  O185  1  0.88061492  0.88366480  0.37813944  1
  O  O186  1  0.88015762  0.87219235  0.88324325  1
  O  O187  1  0.25571037  0.00119344  0.36985084  1
  O  O188  1  0.25123855  -0.00294394  0.86213694  1
  O  O189  1  0.24537083  0.51609319  0.36878569  1
  O  O190  1  0.25500518  0.50892972  0.86765337  1
  O  O191  1  0.75699687  -0.00022618  0.37003532  1
  O  O192  1  0.75380624  0.00678094  0.87285714  1
  O  O193  1  0.75609526  0.50555204  0.37639420  1
  O  O194  1  0.76568450  0.50608461  0.88347169  1
  O  O195  1  0.23830499  0.50673685  0.14034874  1
  O  O196  1  0.24021237  0.49651892  0.62664898  1
  O  O197  1  0.24366977  0.99348114  0.13325781  1
  O  O198  1  0.23875012  1.00317227  0.63346903  1
  O  O199  1  0.73115932  0.51166799  0.12520190  1
  O  O200  1  0.73535339  0.49298994  0.62652994  1
  O  O201  1  0.74249819  0.99595409  0.12915966  1
  O  O202  1  0.73962656  0.99082766  0.61721834  1
  O  O203  1  -0.00061287  0.37443131  0.26645483  1
  O  O204  1  -0.00577976  0.35381696  0.74365778  1
  O  O205  1  -0.00530860  0.86098453  0.26108234  1
  O  O206  1  0.00995748  0.86552125  0.75512127  1
  O  O207  1  0.50738252  0.37253361  0.25704402  1
  O  O208  1  0.48780283  0.37827179  0.76252551  1
  O  O209  1  0.49821264  0.85984590  0.24957795  1
  O  O210  1  0.49860892  0.86019726  0.74276776  1
  O  O211  1  0.49508990  0.12857630  0.24129548  1
  O  O212  1  0.48962349  0.12126934  0.73340976  1
  O  O213  1  0.49418290  0.63248741  0.24516345  1
  O  O214  1  0.48638640  0.63811196  0.73476539  1
  O  O215  1  0.99565041  0.12653708  0.23861083  1
  O  O216  1  0.99483786  0.12866968  0.73779745  1
  O  O217  1  0.99555311  0.64064924  0.25884480  1
  O  O218  1  1.00159688  0.63898747  0.75551400  1
  O  O219  1  0.36635426  0.23700329  0.02107681  1
  O  O220  1  0.37092937  0.26043621  0.50391529  1
  O  O221  1  0.36903574  0.75784197  0.00710921  1
  O  O222  1  0.37691662  0.76473948  0.49797352  1
  O  O223  1  0.87688680  0.25732395  0.00082194  1
  O  O224  1  0.86795395  0.25458484  0.50547413  1
  O  O225  1  0.86845328  0.75581105  0.00814088  1
  O  O226  1  0.86635770  0.75326330  0.50473294  1
  O  O227  1  0.13183428  0.24503226  0.49500235  1
  O  O228  1  0.11695476  0.22922565  0.98758872  1
  O  O229  1  0.13362755  0.74263354  0.50492346  1
  O  O230  1  0.12806618  0.74327241  1.00193035  1
  O  O231  1  0.63128458  0.25122943  0.49180272  1
  O  O232  1  0.62752217  0.24634149  0.98093901  1
  O  O233  1  0.63644940  0.75492454  0.49294619  1
  O  O234  1  0.63368148  0.75261371  0.99448352  1
  O  O235  1  0.49587830  0.24186887  0.13049578  1
  O  O236  1  0.49869934  0.24399902  0.62448685  1
  O  O237  1  0.49891081  0.74031021  0.13180688  1
  O  O238  1  0.51110356  0.73910695  0.62877208  1
  O  O239  1  1.00939312  0.23637951  0.12357787  1
  O  O240  1  0.99531929  0.24134659  0.62891316  1
  O  O241  1  0.99295163  0.75508586  0.13944667  1
  O  O242  1  0.98829324  0.75437355  0.63260979  1
  O  O243  1  0.00667655  0.25895272  0.37986036  1
  O  O244  1  -0.00536429  0.24590405  0.85822735  1
  O  O245  1  0.00172263  0.75751308  0.36674295  1
  O  O246  1  -0.00102068  0.75919496  0.86605524  1
  O  O247  1  0.50677229  0.25579298  0.36924906  1
  O  O248  1  0.52748336  0.22589825  0.86047196  1
  O  O249  1  0.50847459  0.74840480  0.36813223  1
  O  O250  1  0.50789942  0.74184342  0.86534794  1
  O  O251  1  0.24687177  0.12992522  0.49467972  1
  O  O252  1  0.23491410  0.12295572  1.00252805  1
  O  O253  1  0.24417312  0.62747799  0.49353912  1
  O  O254  1  0.23899297  0.63191099  0.99930328  1
  O  O255  1  0.74911795  0.13850744  0.49694803  1
  O  O256  1  0.75521461  0.11793147  0.98355713  1
  O  O257  1  0.75238248  0.63395154  0.48701098  1
  O  O258  1  0.75339445  0.63629176  0.98988091  1
  O  O259  1  0.21522174  0.37116729  0.01380324  1
  O  O260  1  0.25875326  0.37574647  0.50482864  1
  O  O261  1  0.25525596  0.87084806  0.00790354  1
  O  O262  1  0.26426677  0.86755525  0.50285291  1
  O  O263  1  0.76059341  0.37575476  0.01691838  1
  O  O264  1  0.75317046  0.36509596  0.50568667  1
  O  O265  1  0.75694275  0.86325958  0.00625841  1
  O  O266  1  0.75622837  0.86605900  0.50655836  1
  O  O267  1  0.13246456  0.50401713  0.24680392  1
  O  O268  1  0.13440701  0.51081579  0.73844566  1
  O  O269  1  0.13664536  1.00363449  0.24370216  1
  O  O270  1  0.13122352  0.99415801  0.74333875  1
  O  O271  1  0.62610787  0.49260517  0.24182983  1
  O  O272  1  0.61669172  0.50566332  0.74490709  1
  O  O273  1  0.62936134  0.99783298  0.24105571  1
  O  O274  1  0.61491525  0.99858831  0.73825857  1
  O  O275  1  0.36827058  0.00221851  0.25761413  1
  O  O276  1  0.36756886  0.00808009  0.75246343  1
  O  O277  1  0.36963205  0.51127773  0.24403304  1
  O  O278  1  0.35682617  0.52638162  0.73276455  1
  O  O279  1  0.87190471  0.00611292  0.25648360  1
  O  O280  1  0.88209333  0.00947458  0.74485543  1
  O  O281  1  0.87222197  0.50107755  0.25834658  1
  O  O282  1  0.88410265  0.50344429  0.76493053  1
  O  O283  1  0.11702124  0.36985786  0.37787848  1
  O  O284  1  0.11466376  0.37169983  0.86888950  1
  O  O285  1  0.11385232  0.87434117  0.38103726  1
  O  O286  1  0.11783358  0.87291233  0.86837269  1
  O  O287  1  0.61654587  0.36574851  0.36830353  1
  O  O288  1  0.63123215  0.36490800  0.87318076  1
  O  O289  1  0.62313029  0.86139688  0.37170988  1
  O  O290  1  0.63145121  0.85898111  0.87427985  1
  O  O291  1  0.38208088  0.12678172  0.13419040  1
  O  O292  1  0.38262204  0.13346217  0.62452333  1
  O  O293  1  0.38502866  0.63065593  0.13217253  1
  O  O294  1  0.39275756  0.62152517  0.61274480  1
  O  O295  1  0.89234770  0.11654805  0.13231043  1
  O  O296  1  0.88163229  0.12747411  0.62799759  1
  O  O297  1  0.86951810  0.63634663  0.12359713  1
  O  O298  1  0.86687604  0.63611486  0.62532556  1
  O  O299  1  0.26208385  0.24799887  0.14004160  1
  O  O300  1  0.25365488  0.26015668  0.61917285  1
  O  O301  1  0.25358713  0.75656432  0.12399570  1
  O  O302  1  0.27466267  0.71202223  0.64124641  1
  O  O303  1  0.75428715  0.23884480  0.11382454  1
  O  O304  1  0.75274409  0.25570213  0.61817257  1
  O  O305  1  0.75441231  0.75100583  0.11989617  1
  O  O306  1  0.75305763  0.75554295  0.61752832  1
  O  O307  1  0.24522500  0.24423112  0.38038300  1
  O  O308  1  0.25689428  0.25137444  0.86892226  1
  O  O309  1  0.24777839  0.73766087  0.37187308  1
  O  O310  1  0.24552162  0.74364818  0.88458423  1
  O  O311  1  0.74213571  0.25133458  0.38178643  1
  O  O312  1  0.74079183  0.23354645  0.86988156  1
  O  O313  1  0.74562728  0.74439052  0.38091978  1
  O  O314  1  0.74485427  0.74104241  0.88237040  1
  O  O315  1  0.00304724  0.12018906  0.01070193  1
  O  O316  1  0.00431683  0.12271120  0.51101940  1
  O  O317  1  0.00768939  0.62302505  -0.00504052  1
  O  O318  1  0.00574362  0.61530099  0.49488351  1
  O  O319  1  0.50180370  0.12024645  0.01313939  1
  O  O320  1  0.49967174  0.11666079  0.50842094  1
  O  O321  1  0.49507159  0.63199663  0.01379774  1
  O  O322  1  0.50284962  0.61639334  0.50476578  1
  O  O323  1  0.49589667  0.38146471  0.49288888  1
  O  O324  1  0.48896084  0.34083593  0.97410290  1
  O  O325  1  0.49114857  0.88350816  0.49797225  1
  O  O326  1  0.48951719  0.88718242  1.01069605  1
  O  O327  1  0.99384006  0.38427661  0.49228316  1
  O  O328  1  1.00662477  0.38899184  1.00255042  1
  O  O329  1  0.99155195  0.87387495  0.49008034  1
  O  O330  1  0.99091249  0.86643046  0.99040479  1
  O  O331  1  0.50740258  0.49119818  0.38207415  1
  O  O332  1  0.47757645  0.51179668  0.87877057  1
  O  O333  1  0.49339238  0.99889288  0.38193410  1
  O  O334  1  0.50116997  1.00549204  0.88957255  1
  O  O335  1  0.99308484  0.49527533  0.38295798  1
  O  O336  1  0.98975532  0.50046788  0.88705314  1
  O  O337  1  0.99370518  0.99151949  0.37428889  1
  O  O338  1  0.99400315  0.98313765  0.86778704  1
  O  O339  1  0.01314780  -0.00189742  0.13339284  1
  O  O340  1  0.01189861  0.00603792  0.62307229  1
  O  O341  1  -0.00038692  0.50438487  0.11474330  1
  O  O342  1  0.00600580  0.49306087  0.61712576  1
  O  O343  1  0.50693649  0.00670091  0.12205402  1
  O  O344  1  0.50564250  0.00644030  0.61612624  1
  O  O345  1  0.50793870  0.51315420  0.12491815  1
  O  O346  1  0.51263341  0.50697148  0.61944680  1
  O  O347  1  0.25072588  0.39138907  0.26279980  1
  O  O348  1  0.25804703  0.38913797  0.73331733  1
  O  O349  1  0.25601985  0.88241755  0.24164490  1
  O  O350  1  0.23680526  0.88094971  0.75190352  1
  O  O351  1  0.73408251  0.37669720  0.25438613  1
  O  O352  1  0.76104325  0.36767085  0.74026974  1
  O  O353  1  0.75083210  0.88113101  0.24244916  1
  O  O354  1  0.74890834  0.86954505  0.73744106  1
  O  O355  1  0.25444133  0.11486620  0.25803384  1
  O  O356  1  0.26192054  0.11612221  0.74319560  1
  O  O357  1  0.25910537  0.61930465  0.25651181  1
  O  O358  1  0.25015470  0.62474547  0.76275945  1
  O  O359  1  0.75997092  0.11677031  0.25234002  1
  O  O360  1  0.76043040  0.12170529  0.75840353  1
  O  O361  1  0.75417075  0.62340506  0.26372394  1
  O  O362  1  0.75405903  0.63001024  0.76260234  1
  O  O363  1  0.37099438  0.11348482  0.37268246  1
  O  O364  1  0.38452848  0.12685168  0.86293678  1
  O  O365  1  0.36935839  0.62799587  0.36594347  1
  O  O366  1  0.35738209  0.61518913  0.88721294  1
  O  O367  1  0.87770559  0.11098974  0.36991267  1
  O  O368  1  0.86806338  0.11882243  0.86602072  1
  O  O369  1  0.86859826  0.61256323  0.37622717  1
  O  O370  1  0.86675548  0.61583715  0.87162272  1
  O  O371  1  0.11101289  0.39403937  0.13803760  1
  O  O372  1  0.13475757  0.38518183  0.61744791  1
  O  O373  1  0.13707084  0.88193225  0.11959257  1
  O  O374  1  0.12001876  0.88334054  0.63314383  1
  O  O375  1  0.61302574  0.38999047  0.13009435  1
  O  O376  1  0.63119017  0.38882950  0.62838943  1
  O  O377  1  0.63158169  0.88220267  0.12819848  1
  O  O378  1  0.63397761  0.88366902  0.62651240  1
  O  O379  1  0.12160861  0.25126178  0.26137487  1
  O  O380  1  0.10923278  0.23843439  0.74920815  1
  O  O381  1  0.11211577  0.74650412  0.25202057  1
  O  O382  1  0.11771558  0.75743149  0.75174310  1
  O  O383  1  0.62000402  0.25578783  0.25477956  1
  O  O384  1  0.62883421  0.24711271  0.76145675  1
  O  O385  1  0.61785227  0.74912638  0.25579561  1
  O  O386  1  0.61560610  0.75241737  0.75808619  1
  O  O387  1  0.38200695  0.24172525  0.24553341  1
  O  O388  1  0.38007447  0.24408470  0.73836990  1
  O  O389  1  0.38241917  0.74113330  0.24463102  1
  O  O390  1  0.37942000  0.74334891  0.75944700  1
  O  O391  1  0.87957494  0.23199635  0.26311905  1
  O  O392  1  0.88361689  0.23551952  0.74253737  1
  O  O393  1  0.88291210  0.74646552  0.24183827  1
  O  O394  1  0.88226894  0.74925509  0.74027386  1
  O  O395  1  0.38756035  0.48854606  0.50182503  1
  O  O396  1  0.36964813  0.49773771  1.00175011  1
  O  O397  1  0.38096782  0.99233160  0.49405485  1
  O  O398  1  0.38291245  0.99520275  1.00145389  1
  O  O399  1  0.87987937  0.49714171  0.49633050  1
  O  O400  1  0.88830775  0.50383495  0.99265569  1
  O  O401  1  0.87716016  0.99397750  0.49115103  1
  O  O402  1  0.87118399  0.98187054  1.00186288  1
  O  O403  1  0.12639401  0.00910141  0.00980595  1
  O  O404  1  0.12599983  0.00460377  0.50705924  1
  O  O405  1  0.11164897  0.50999074  0.00853007  1
  O  O406  1  0.11552123  0.50659306  0.50801056  1
  O  O407  1  0.61950757  -0.00036432  0.01178293  1
  O  O408  1  0.61411058  0.00034497  0.50345696  1
  O  O409  1  0.62445305  0.49345917  0.00857856  1
  O  O410  1  0.61659083  0.49453808  0.50513145  1
  O  O411  1  0.37824998  0.35852283  0.13249741  1
  O  O412  1  0.36923445  0.37273109  0.61558094  1
  O  O413  1  0.36418109  0.87014679  0.11785008  1
  O  O414  1  0.37710564  0.87981073  0.61269514  1
  O  O415  1  0.87146755  0.35574168  0.14023041  1
  O  O416  1  0.86591950  0.37025117  0.61812373  1
  O  O417  1  0.86944954  0.86415639  0.11998365  1
  O  O418  1  0.86841228  0.86739168  0.61903879  1
  O  O419  1  0.12852405  0.12855813  0.38176386  1
  O  O420  1  0.12221429  0.11613174  0.88518348  1
  O  O421  1  0.13122562  0.62843965  0.38906089  1
  O  O422  1  0.13395512  0.62450005  0.88676926  1
  O  O423  1  0.62539774  0.13792398  0.37568880  1
  O  O424  1  0.64198696  0.11811456  0.87761990  1
  O  O425  1  0.63195729  0.63647501  0.37156712  1
  O  O426  1  0.63282893  0.63597462  0.87160201  1
