# generated using pymatgen
data_V85Zn86O256
_symmetry_space_group_name_H-M   'P 1'
_cell_length_a   16.91973303
_cell_length_b   16.91139412
_cell_length_c   16.90559008
_cell_angle_alpha   90.01925581
_cell_angle_beta   90.00182821
_cell_angle_gamma   90.00691651
_symmetry_Int_Tables_number   1
_chemical_formula_structural   V85Zn86O256
_chemical_formula_sum   'V85 Zn86 O256'
_cell_volume   4837.30223675
_cell_formula_units_Z   1
loop_
 _symmetry_equiv_pos_site_id
 _symmetry_equiv_pos_as_xyz
  1  'x, y, z'
loop_
 _atom_site_type_symbol
 _atom_site_label
 _atom_site_symmetry_multiplicity
 _atom_site_fract_x
 _atom_site_fract_y
 _atom_site_fract_z
 _atom_site_occupancy
  V  V0  1  0.12687546  0.12950777  0.49926827  1
  V  V1  1  0.37094780  0.86991807  0.50695273  1
  V  V2  1  0.74759587  0.00679765  0.25216235  1
  V  V3  1  0.37032468  0.50486533  0.37432602  1
  V  V4  1  -0.00235787  0.37485750  0.37362765  1
  V  V5  1  0.63137634  0.12292105  0.49703241  1
  V  V6  1  0.51282170  0.00315375  0.00320684  1
  V  V7  1  0.62847108  0.24584182  0.37358030  1
  V  V8  1  0.75005840  0.38756473  0.62660959  1
  V  V9  1  0.12472389  0.37130611  0.24876741  1
  V  V10  1  0.87210063  0.50199575  0.38273757  1
  V  V11  1  0.12503849  0.37115641  0.74444339  1
  V  V12  1  0.12567095  -0.00283752  0.62206716  1
  V  V13  1  0.87668850  0.13212762  0.26058330  1
  V  V14  1  0.86715197  0.11504285  0.75017087  1
  V  V15  1  0.75727918  0.37971777  0.12091636  1
  V  V16  1  0.12140932  0.49918896  0.12374425  1
  V  V17  1  0.63388207  0.62229814  0.49882172  1
  V  V18  1  0.37660466  -0.00085006  0.87753662  1
  V  V19  1  0.25052379  -0.00323301  0.74789336  1
  V  V20  1  0.24520364  0.87318023  0.13039701  1
  V  V21  1  0.50268319  0.50008464  0.50418090  1
  V  V22  1  0.62943790  0.62473560  0.00001581  1
  V  V23  1  0.50071967  0.37334442  0.37327482  1
  V  V24  1  0.12384611  0.62523526  -0.00035441  1
  V  V25  1  0.00352220  0.12524617  0.12938687  1
  V  V26  1  0.01912505  0.50320354  0.51093243  1
  V  V27  1  -0.00383348  0.24798235  0.75629037  1
  V  V28  1  0.49893762  0.75294868  0.74434867  1
  V  V29  1  0.62732777  0.74419301  0.36871409  1
  V  V30  1  0.24561722  0.49913306  0.73989650  1
  V  V31  1  0.63037711  -0.00089781  0.63199490  1
  V  V32  1  0.62108855  0.87588708  0.24723323  1
  V  V33  1  0.38791433  0.74768387  0.12981376  1
  V  V34  1  -0.00502535  0.49675120  -0.02226155  1
  V  V35  1  0.75142959  0.50485311  0.25457626  1
  V  V36  1  0.51519626  0.12462139  0.12267346  1
  V  V37  1  0.87039866  0.62822968  0.76707585  1
  V  V38  1  0.62073869  0.38116885  0.74096953  1
  V  V39  1  0.11321619  0.87354124  0.26049614  1
  V  V40  1  0.25054219  0.62631822  0.87526006  1
  V  V41  1  -0.00372157  -0.01086741  0.49402672  1
  V  V42  1  0.87769670  0.74636092  0.62085698  1
  V  V43  1  0.74183435  0.11572159  0.87707534  1
  V  V44  1  0.24783724  0.73120154  0.49537113  1
  V  V45  1  0.37478771  -0.00145273  0.37435823  1
  V  V46  1  0.74620302  0.24835828  -0.00175175  1
  V  V47  1  0.37627868  0.87559335  0.00406676  1
  V  V48  1  0.74708277  0.88240291  0.12533308  1
  V  V49  1  0.87972457  0.75039397  0.12819535  1
  V  V50  1  -0.00048476  0.62456041  0.12919796  1
  V  V51  1  0.12108805  0.25009440  0.37549619  1
  V  V52  1  0.39016395  0.62844130  0.24790888  1
  V  V53  1  0.49916570  0.50671666  0.00512569  1
  V  V54  1  0.12128507  0.25106430  0.87809653  1
  V  V55  1  0.25171179  0.13072544  0.37641586  1
  V  V56  1  0.50344175  -0.00238025  0.49802643  1
  V  V57  1  0.49871596  0.86722905  0.37181362  1
  V  V58  1  0.50243893  0.62634732  0.62230739  1
  V  V59  1  0.36826959  0.24795897  0.62027437  1
  V  V60  1  0.62588356  0.74627476  0.87200091  1
  V  V61  1  0.87794586  0.87829076  -0.00026510  1
  V  V62  1  0.75361227  0.75577305  0.49567189  1
  V  V63  1  0.75199311  0.74766173  -0.00378609  1
  V  V64  1  0.24653625  0.51101489  0.25032767  1
  V  V65  1  0.87559105  -0.01719044  0.37544562  1
  V  V66  1  0.49942791  0.25060279  0.74859906  1
  V  V67  1  -0.00494363  0.12469483  0.62277687  1
  V  V68  1  0.37412477  0.24944740  0.12439327  1
  V  V69  1  0.62443180  0.50603990  0.12749743  1
  V  V70  1  0.00819632  0.00192839  0.00285286  1
  V  V71  1  0.74324041  0.51001723  0.76526146  1
  V  V72  1  0.87494262  0.62879994  0.25726274  1
  V  V73  1  0.75197639  0.25264979  0.50035555  1
  V  V74  1  0.24593975  0.00013622  0.24647898  1
  V  V75  1  0.37631494  0.12437482  0.74916956  1
  V  V76  1  0.37506512  0.50260762  0.87529211  1
  V  V77  1  0.36739904  0.36981194  0.49656592  1
  V  V78  1  0.12452894  0.75416563  0.87341169  1
  V  V79  1  0.11536972  0.73663933  0.37611384  1
  V  V80  1  0.75522223  0.87594319  0.63040475  1
  V  V81  1  0.49958731  0.37694287  0.87631721  1
  V  V82  1  0.37492606  0.63042751  0.74443476  1
  V  V83  1  0.88023189  0.25272216  0.12552726  1
  V  V84  1  0.24896313  0.12451562  0.88028780  1
  Zn  Zn85  1  0.50128564  0.24859402  0.24880351  1
  Zn  Zn86  1  0.12605102  0.12491039  0.00763658  1
  Zn  Zn87  1  0.24849714  0.25615637  0.00047253  1
  Zn  Zn88  1  0.24546280  0.37250405  0.61782127  1
  Zn  Zn89  1  0.50054502  0.87515470  0.87480072  1
  Zn  Zn90  1  0.62069376  0.24586006  0.87942770  1
  Zn  Zn91  1  0.37705640  0.12545326  0.24869914  1
  Zn  Zn92  1  0.24987801  0.37579386  0.12244404  1
  Zn  Zn93  1  0.12148459  0.87636968  0.74919607  1
  Zn  Zn94  1  0.87065339  0.25096058  0.62672689  1
  Zn  Zn95  1  0.62735252  0.37488865  0.24923749  1
  Zn  Zn96  1  0.00024130  0.87666069  0.87334668  1
  Zn  Zn97  1  0.37255371  0.37650890  0.00154571  1
  Zn  Zn98  1  0.25077049  0.86489162  0.62345833  1
  Zn  Zn99  1  0.00979350  0.62097828  0.62430900  1
  Zn  Zn100  1  0.88031367  0.37943858  0.51314234  1
  Zn  Zn101  1  0.87693973  0.37900739  -0.03827835  1
  Zn  Zn102  1  0.62734031  0.87756637  0.75239263  1
  Zn  Zn103  1  0.50189647  0.12403859  0.62269109  1
  Zn  Zn104  1  0.87492198  -0.00171446  0.87287110  1
  Zn  Zn105  1  0.25215371  0.74802010  0.00526719  1
  Zn  Zn106  1  -0.00011021  0.75255383  0.74728699  1
  Zn  Zn107  1  0.18842260  0.19009740  0.18964422  1
  Zn  Zn108  1  0.18662232  0.18387251  0.68923577  1
  Zn  Zn109  1  0.18821335  0.69208611  0.19183802  1
  Zn  Zn110  1  0.18390902  0.68773944  0.68109595  1
  Zn  Zn111  1  0.69261329  0.19078210  0.18820920  1
  Zn  Zn112  1  0.68653933  0.18840853  0.68705075  1
  Zn  Zn113  1  0.69055249  0.68892710  0.18548872  1
  Zn  Zn114  1  0.68579021  0.68749557  0.68217807  1
  Zn  Zn115  1  0.31023882  0.31290135  0.30724932  1
  Zn  Zn116  1  0.31184219  0.31261362  0.81341959  1
  Zn  Zn117  1  0.30892184  0.80754916  0.31687853  1
  Zn  Zn118  1  0.31276170  0.81235446  0.81331831  1
  Zn  Zn119  1  0.81194965  0.31625796  0.31236699  1
  Zn  Zn120  1  0.80500862  0.30289711  0.80932644  1
  Zn  Zn121  1  0.80904592  0.81131822  0.31051517  1
  Zn  Zn122  1  0.81164604  0.81290260  0.81235283  1
  Zn  Zn123  1  0.18865540  0.44011932  0.43496044  1
  Zn  Zn124  1  0.18466810  0.43719955  0.93388840  1
  Zn  Zn125  1  0.18693027  0.93748482  0.43456089  1
  Zn  Zn126  1  0.18960674  0.93832816  0.94214630  1
  Zn  Zn127  1  0.68820798  0.43613218  0.43800077  1
  Zn  Zn128  1  0.68414454  0.43193179  0.93819158  1
  Zn  Zn129  1  0.69118066  0.93504610  0.43550214  1
  Zn  Zn130  1  0.68819149  0.93280479  0.93599663  1
  Zn  Zn131  1  0.31670333  0.06273905  0.06571898  1
  Zn  Zn132  1  0.31306732  0.06135668  0.55969087  1
  Zn  Zn133  1  0.31175801  0.56322881  0.06624407  1
  Zn  Zn134  1  0.31634779  0.56250746  0.56302453  1
  Zn  Zn135  1  0.81536998  0.06481660  0.06287678  1
  Zn  Zn136  1  0.81149298  0.06087581  0.55704626  1
  Zn  Zn137  1  0.81668511  0.56187574  0.05743042  1
  Zn  Zn138  1  0.81414852  0.56407359  0.56948410  1
  Zn  Zn139  1  0.43766157  0.43735033  0.18834165  1
  Zn  Zn140  1  0.43236477  0.43926241  0.68428446  1
  Zn  Zn141  1  0.43733252  0.94087534  0.18721633  1
  Zn  Zn142  1  0.44080229  0.93775646  0.68488061  1
  Zn  Zn143  1  0.93871005  0.43985607  0.18934483  1
  Zn  Zn144  1  0.91340139  0.41917695  0.74541554  1
  Zn  Zn145  1  0.93628386  0.94238103  0.18689071  1
  Zn  Zn146  1  0.93836885  0.93333941  0.68462396  1
  Zn  Zn147  1  0.06025549  0.05969923  0.30965811  1
  Zn  Zn148  1  0.06117090  0.06194036  0.81397940  1
  Zn  Zn149  1  0.05713596  0.56014083  0.31373469  1
  Zn  Zn150  1  0.07314982  0.57361531  0.78618884  1
  Zn  Zn151  1  0.56278486  0.06200468  0.31023635  1
  Zn  Zn152  1  0.56148386  0.06219543  0.81365371  1
  Zn  Zn153  1  0.56255139  0.56055674  0.31595886  1
  Zn  Zn154  1  0.56373837  0.56499836  0.81362586  1
  Zn  Zn155  1  0.44092305  0.18604879  0.43734149  1
  Zn  Zn156  1  0.43716039  0.18730767  0.94136228  1
  Zn  Zn157  1  0.43496663  0.68842771  0.43621375  1
  Zn  Zn158  1  0.44008363  0.68909634  0.93837559  1
  Zn  Zn159  1  0.93753365  0.18916095  0.43963622  1
  Zn  Zn160  1  0.93130533  0.18577638  0.93943395  1
  Zn  Zn161  1  0.94159943  0.68450904  0.44138650  1
  Zn  Zn162  1  0.94050888  0.68718835  0.93833731  1
  Zn  Zn163  1  0.05849800  0.31604918  0.05680822  1
  Zn  Zn164  1  0.05937267  0.31235096  0.56283204  1
  Zn  Zn165  1  0.06421008  0.81229816  0.06445330  1
  Zn  Zn166  1  0.06414119  0.80798383  0.55815218  1
  Zn  Zn167  1  0.56378298  0.31654895  0.06466158  1
  Zn  Zn168  1  0.55964321  0.31117674  0.56153509  1
  Zn  Zn169  1  0.56341193  0.81444145  0.06288922  1
  Zn  Zn170  1  0.56569339  0.81204822  0.56079728  1
  O  O171  1  0.10829478  0.13517972  0.12753020  1
  O  O172  1  0.11926312  0.11667077  0.61791355  1
  O  O173  1  0.11703384  0.62282866  0.12247987  1
  O  O174  1  0.10967497  0.60663717  0.67759827  1
  O  O175  1  0.61415947  0.13032407  0.12608608  1
  O  O176  1  0.62518001  0.11701656  0.61670693  1
  O  O177  1  0.62918287  0.61387699  0.11908224  1
  O  O178  1  0.61158629  0.62735204  0.61404422  1
  O  O179  1  0.38146675  0.37894441  0.37847814  1
  O  O180  1  0.38605846  0.38223757  0.87424656  1
  O  O181  1  0.38295472  0.87792457  0.37927596  1
  O  O182  1  0.37548974  0.87964954  0.88655236  1
  O  O183  1  0.88344715  0.38370927  0.37619621  1
  O  O184  1  0.87799599  0.37652783  0.84833266  1
  O  O185  1  0.87758092  0.88422078  0.36916621  1
  O  O186  1  0.87374823  0.87562719  0.88873567  1
  O  O187  1  0.25417720  0.00925644  0.36679203  1
  O  O188  1  0.25473290  0.00497790  0.86843657  1
  O  O189  1  0.26312627  0.49598349  0.36686970  1
  O  O190  1  0.25472014  0.51123779  0.86821662  1
  O  O191  1  0.76424682  -0.00390742  0.36729988  1
  O  O192  1  0.75159419  0.01152486  0.87955680  1
  O  O193  1  0.75795424  0.49542127  0.36586231  1
  O  O194  1  0.74207389  0.49993059  0.86361802  1
  O  O195  1  0.23973303  0.49918405  0.13217450  1
  O  O196  1  0.25634074  0.49693858  0.63697978  1
  O  O197  1  0.25608290  0.99269708  0.13838061  1
  O  O198  1  0.24225180  1.00238506  0.63230623  1
  O  O199  1  0.74791401  0.49557988  0.12872841  1
  O  O200  1  0.74670327  0.49090530  0.63237892  1
  O  O201  1  0.75820993  0.98949554  0.13317385  1
  O  O202  1  0.74286366  0.98896090  0.61576000  1
  O  O203  1  0.00914132  0.38430602  0.26486362  1
  O  O204  1  0.00938614  0.35496298  0.74246431  1
  O  O205  1  0.01572494  0.87880292  0.24150335  1
  O  O206  1  0.00279755  0.87179842  0.75483447  1
  O  O207  1  0.50410068  0.37618004  0.26300647  1
  O  O208  1  0.50161800  0.37221145  0.75392471  1
  O  O209  1  0.51174138  0.88210659  0.25612933  1
  O  O210  1  0.50164237  0.86584864  0.75139215  1
  O  O211  1  0.49941697  0.12514220  0.23681725  1
  O  O212  1  0.49454029  0.13414586  0.74894288  1
  O  O213  1  0.48880988  0.61931199  0.24798292  1
  O  O214  1  0.49519725  0.62946147  0.74209543  1
  O  O215  1  0.98932176  0.12176851  0.24250432  1
  O  O216  1  0.99438441  0.12934232  0.74172620  1
  O  O217  1  0.98996928  0.61903254  0.23732817  1
  O  O218  1  0.97571829  0.63059806  0.75622740  1
  O  O219  1  0.37265172  0.25378355  0.00858669  1
  O  O220  1  0.38224235  0.25767840  0.50738850  1
  O  O221  1  0.37536003  0.75744669  0.00845802  1
  O  O222  1  0.35970788  0.75693988  0.49147054  1
  O  O223  1  0.86529201  0.25792845  0.00516779  1
  O  O224  1  0.86615147  0.25508684  0.50405811  1
  O  O225  1  0.86884261  0.75544633  0.00640163  1
  O  O226  1  0.86380935  0.74052027  0.50613825  1
  O  O227  1  0.12185513  0.23749403  0.49407722  1
  O  O228  1  0.12583180  0.24628719  0.99232136  1
  O  O229  1  0.13520869  0.75051901  0.48739335  1
  O  O230  1  0.12921454  0.74251091  0.99462372  1
  O  O231  1  0.62884710  0.24305330  0.49485740  1
  O  O232  1  0.64103567  0.26020468  0.99920107  1
  O  O233  1  0.63160934  0.74274368  0.49111469  1
  O  O234  1  0.63025377  0.74349163  0.99667238  1
  O  O235  1  0.49695308  0.24144658  0.12434171  1
  O  O236  1  0.49026763  0.24845005  0.63276230  1
  O  O237  1  0.48760683  0.75506009  0.12549716  1
  O  O238  1  0.50448005  0.74361911  0.63557640  1
  O  O239  1  0.98539668  0.24790975  0.11827061  1
  O  O240  1  0.99817650  0.23580628  0.62939518  1
  O  O241  1  0.98756190  0.74182263  0.11891386  1
  O  O242  1  0.99280536  0.74467488  0.62395526  1
  O  O243  1  0.01192199  0.25863458  0.37976369  1
  O  O244  1  0.00783372  0.23721623  0.86658224  1
  O  O245  1  0.01521767  0.74892807  0.38195789  1
  O  O246  1  0.01153713  0.75294538  0.87591963  1
  O  O247  1  0.50807396  0.25734264  0.37347888  1
  O  O248  1  0.49937820  0.25820367  0.86881805  1
  O  O249  1  0.50758910  0.76121752  0.37759862  1
  O  O250  1  0.50669008  0.75009124  0.86374131  1
  O  O251  1  0.23956938  0.11812695  0.48903983  1
  O  O252  1  0.24857481  0.12132365  0.98965976  1
  O  O253  1  0.25497635  0.63197976  0.49657408  1
  O  O254  1  0.24353137  0.62345207  0.99164335  1
  O  O255  1  0.73897973  0.13492177  0.50215881  1
  O  O256  1  0.75560764  0.13257558  0.98775147  1
  O  O257  1  0.73733335  0.63132710  0.50743834  1
  O  O258  1  0.73956240  0.63301161  1.00535722  1
  O  O259  1  0.25303985  0.37649071  0.00238921  1
  O  O260  1  0.26334835  0.37657081  0.49826216  1
  O  O261  1  0.26087928  0.87639952  0.01150293  1
  O  O262  1  0.25965153  0.87705029  0.50053487  1
  O  O263  1  0.75874180  0.37267513  0.00414886  1
  O  O264  1  0.75139544  0.37157573  0.51086295  1
  O  O265  1  0.75667929  0.87015952  0.00835070  1
  O  O266  1  0.74542269  0.86171836  0.50841678  1
  O  O267  1  0.13021587  0.49346320  0.24710391  1
  O  O268  1  0.13665957  0.47877292  0.76631086  1
  O  O269  1  0.13375641  0.98677218  0.25591312  1
  O  O270  1  0.13322046  1.00043845  0.74135185  1
  O  O271  1  0.63317202  0.50137329  0.24470518  1
  O  O272  1  0.63223342  0.49594920  0.75031036  1
  O  O273  1  0.63731464  0.99032854  0.25868917  1
  O  O274  1  0.61978650  0.99932499  0.73574190  1
  O  O275  1  0.36654894  0.00185963  0.25818846  1
  O  O276  1  0.37057653  0.00418401  0.75433725  1
  O  O277  1  0.36960244  0.50869971  0.25364113  1
  O  O278  1  0.36941892  0.50997039  0.75551777  1
  O  O279  1  0.86988760  0.00624401  0.26065222  1
  O  O280  1  0.87941246  0.01128799  0.74975803  1
  O  O281  1  0.87008543  0.50729250  0.25996240  1
  O  O282  1  0.85532602  0.51827384  0.74796892  1
  O  O283  1  0.12064493  0.36834636  0.37087861  1
  O  O284  1  0.13112534  0.35631625  0.86530370  1
  O  O285  1  0.12339214  0.87064742  0.36446481  1
  O  O286  1  0.12965567  0.86368455  0.87804171  1
  O  O287  1  0.61674490  0.36570159  0.37659538  1
  O  O288  1  0.61232900  0.37425934  0.86337124  1
  O  O289  1  0.61872824  0.86640493  0.36864152  1
  O  O290  1  0.62198474  0.86159041  0.87351847  1
  O  O291  1  0.38278680  0.13710404  0.12585145  1
  O  O292  1  0.37855877  0.12946608  0.62956611  1
  O  O293  1  0.37309791  0.63219990  0.13779475  1
  O  O294  1  0.38826519  0.62239844  0.63258991  1
  O  O295  1  0.88157607  0.13497668  0.13248792  1
  O  O296  1  0.87979280  0.12414339  0.62928290  1
  O  O297  1  0.88062038  0.63123821  0.13121738  1
  O  O298  1  0.87376180  0.63656880  0.63497776  1
  O  O299  1  0.25930489  0.25180091  0.12321753  1
  O  O300  1  0.26467741  0.24739872  0.63132532  1
  O  O301  1  0.26094360  0.75771342  0.12609000  1
  O  O302  1  0.24107685  0.74957371  0.60476054  1
  O  O303  1  0.75810455  0.25849375  0.11780644  1
  O  O304  1  0.74565100  0.25983286  0.61484374  1
  O  O305  1  0.75876940  0.75837686  0.11547123  1
  O  O306  1  0.75398069  0.75628932  0.61597863  1
  O  O307  1  0.23980923  0.23865923  0.36951160  1
  O  O308  1  0.24471378  0.23905327  0.87519220  1
  O  O309  1  0.23899374  0.75258734  0.38847470  1
  O  O310  1  0.24780110  0.73909394  0.87809112  1
  O  O311  1  0.74171560  0.26095378  0.38968177  1
  O  O312  1  0.74416650  0.23908772  0.88175613  1
  O  O313  1  0.74064878  0.75341012  0.38301986  1
  O  O314  1  0.74227561  0.75635481  0.88923857  1
  O  O315  1  -0.00234162  0.11779554  0.00878911  1
  O  O316  1  0.00541766  0.11871563  0.50666103  1
  O  O317  1  0.00379507  0.61740314  0.00921516  1
  O  O318  1  0.00206190  0.60831042  0.50411539  1
  O  O319  1  0.49984379  0.11813591  0.01143159  1
  O  O320  1  0.51316613  0.11771061  0.49969802  1
  O  O321  1  0.51130991  0.61460657  -0.00305749  1
  O  O322  1  0.50375113  0.62009625  0.50474041  1
  O  O323  1  0.49356344  0.38160009  0.49117674  1
  O  O324  1  0.50162259  0.38688109  0.99142631  1
  O  O325  1  0.49469591  0.87739973  0.49154942  1
  O  O326  1  0.48947088  0.88247432  1.00228039  1
  O  O327  1  0.99905065  0.38293716  0.49106607  1
  O  O328  1  0.99783580  0.39195597  0.99291043  1
  O  O329  1  1.00279758  0.89059416  0.50489752  1
  O  O330  1  0.99343728  0.88253868  1.00288077  1
  O  O331  1  0.49077795  0.49319326  0.38239352  1
  O  O332  1  0.49596045  0.49560233  0.88135609  1
  O  O333  1  0.49648668  0.98999200  0.37919788  1
  O  O334  1  0.49362369  0.99920658  0.88366154  1
  O  O335  1  0.99271193  0.49384002  0.38623420  1
  O  O336  1  1.00833867  0.51237021  0.88129970  1
  O  O337  1  0.98566143  1.00399401  0.38007887  1
  O  O338  1  0.99645147  0.99882379  0.88595144  1
  O  O339  1  -0.00628985  0.01313749  0.11701619  1
  O  O340  1  0.00557048  0.00904382  0.61858260  1
  O  O341  1  0.00489329  0.50775687  0.12019191  1
  O  O342  1  -0.00736886  0.49400273  0.60695339  1
  O  O343  1  0.49591260  0.01530554  0.11806473  1
  O  O344  1  0.51059991  -0.00009946  0.61457921  1
  O  O345  1  0.51123294  0.49341397  0.11655951  1
  O  O346  1  0.49564999  0.50554613  0.61077811  1
  O  O347  1  0.24107476  0.38687848  0.24773508  1
  O  O348  1  0.24596708  0.38145668  0.74734158  1
  O  O349  1  0.24559184  0.88120957  0.24733962  1
  O  O350  1  0.25223286  0.88625747  0.74520417  1
  O  O351  1  0.74969546  0.38838605  0.24129985  1
  O  O352  1  0.73735169  0.38397756  0.74540314  1
  O  O353  1  0.74409643  0.88350197  0.24300262  1
  O  O354  1  0.74628178  0.87132960  0.73603111  1
  O  O355  1  0.24931495  0.11675478  0.25728559  1
  O  O356  1  0.25508702  0.11420427  0.75885705  1
  O  O357  1  0.25659509  0.61374163  0.24701344  1
  O  O358  1  0.25978589  0.62044364  0.75574704  1
  O  O359  1  0.75897055  0.11306952  0.24284554  1
  O  O360  1  0.75498485  0.12995709  0.76229993  1
  O  O361  1  0.75998353  0.61334090  0.24346560  1
  O  O362  1  0.74829375  0.61603123  0.74862381  1
  O  O363  1  0.36723163  0.12009701  0.37515408  1
  O  O364  1  0.36826325  0.12029260  0.86982531  1
  O  O365  1  0.38017792  0.61634318  0.36225796  1
  O  O366  1  0.36994392  0.62208703  0.86908290  1
  O  O367  1  0.87714161  0.12693850  0.36292755  1
  O  O368  1  0.86264887  0.12243279  0.86725790  1
  O  O369  1  0.88083441  0.61855646  0.36442496  1
  O  O370  1  0.86437783  0.63609497  0.86615168  1
  O  O371  1  0.12103443  0.38052535  0.13347974  1
  O  O372  1  0.13066641  0.36192602  0.63812846  1
  O  O373  1  0.13947548  0.86555104  0.13603689  1
  O  O374  1  0.12700300  0.88872692  0.62223940  1
  O  O375  1  0.63814104  0.38753037  0.12502729  1
  O  O376  1  0.62618575  0.37281758  0.63558475  1
  O  O377  1  0.63520089  0.86985932  0.13435493  1
  O  O378  1  0.63294762  0.88262528  0.62465262  1
  O  O379  1  0.12754128  0.26395028  0.25791112  1
  O  O380  1  0.11784398  0.24915814  0.75686824  1
  O  O381  1  0.13086004  0.76267541  0.26361464  1
  O  O382  1  0.12751439  0.75729619  0.76046666  1
  O  O383  1  0.62691630  0.25415439  0.25916052  1
  O  O384  1  0.61171018  0.25794832  0.74998220  1
  O  O385  1  0.63369826  0.75922784  0.25846008  1
  O  O386  1  0.61818769  0.74848961  0.75682553  1
  O  O387  1  0.37909718  0.24750161  0.24193132  1
  O  O388  1  0.38377494  0.24655607  0.74471725  1
  O  O389  1  0.37229945  0.73563624  0.24778056  1
  O  O390  1  0.38223469  0.73864865  0.75390382  1
  O  O391  1  0.86593008  0.24312449  0.24047336  1
  O  O392  1  0.88170342  0.23408935  0.74645289  1
  O  O393  1  0.86748140  0.74085549  0.24078356  1
  O  O394  1  0.86855175  0.73988670  0.74325065  1
  O  O395  1  0.38104826  0.49359305  0.49107449  1
  O  O396  1  0.38431755  0.50236364  0.99619292  1
  O  O397  1  0.38239511  0.99258654  0.49304874  1
  O  O398  1  0.38143672  0.99260755  0.99677127  1
  O  O399  1  0.86994474  0.50037450  0.48965583  1
  O  O400  1  0.88975026  0.50073768  0.99414342  1
  O  O401  1  0.88019801  1.00437535  0.48314357  1
  O  O402  1  0.88307417  0.99126265  1.00081532  1
  O  O403  1  0.11317350  0.00254063  0.00047435  1
  O  O404  1  0.11809333  0.00953581  0.50299322  1
  O  O405  1  0.11516212  0.50592326  0.00301988  1
  O  O406  1  0.11936166  0.49506231  0.50536057  1
  O  O407  1  0.61173713  -0.00880908  -0.00111321  1
  O  O408  1  0.62399365  0.00649298  0.50191321  1
  O  O409  1  0.62175727  0.50694037  0.00575118  1
  O  O410  1  0.61470085  0.51020095  0.48918051  1
  O  O411  1  0.37727611  0.36290356  0.12475735  1
  O  O412  1  0.37376657  0.36672580  0.61421545  1
  O  O413  1  0.36832744  0.86896791  0.12320007  1
  O  O414  1  0.37540340  0.87707012  0.61030804  1
  O  O415  1  0.86626529  0.37124169  0.12978988  1
  O  O416  1  0.86192343  0.37235979  0.63571641  1
  O  O417  1  0.87004491  0.86842158  0.11889901  1
  O  O418  1  0.86784556  0.86056766  0.62725490  1
  O  O419  1  0.12769610  0.13163299  0.37909987  1
  O  O420  1  0.13419249  0.13183593  0.87560314  1
  O  O421  1  0.12403382  0.63721607  0.36444206  1
  O  O422  1  0.13400737  0.63513016  0.87608403  1
  O  O423  1  0.62217143  0.13705719  0.38066145  1
  O  O424  1  0.63728715  0.12624022  0.87209654  1
  O  O425  1  0.61832518  0.63667290  0.38206187  1
  O  O426  1  0.62299067  0.63717136  0.88411298  1
