# generated using pymatgen
data_V85Zn86O256
_symmetry_space_group_name_H-M   'P 1'
_cell_length_a   16.92884616
_cell_length_b   16.93576722
_cell_length_c   16.93214943
_cell_angle_alpha   90.03015245
_cell_angle_beta   90.03787319
_cell_angle_gamma   90.07747087
_symmetry_Int_Tables_number   1
_chemical_formula_structural   V85Zn86O256
_chemical_formula_sum   'V85 Zn86 O256'
_cell_volume   4854.49182885
_cell_formula_units_Z   1
loop_
 _symmetry_equiv_pos_site_id
 _symmetry_equiv_pos_as_xyz
  1  'x, y, z'
loop_
 _atom_site_type_symbol
 _atom_site_label
 _atom_site_symmetry_multiplicity
 _atom_site_fract_x
 _atom_site_fract_y
 _atom_site_fract_z
 _atom_site_occupancy
  V  V0  1  0.37087375  0.24701833  0.14203461  1
  V  V1  1  0.75047432  0.87014045  0.11640680  1
  V  V2  1  0.62815668  0.13040429  0.00279104  1
  V  V3  1  0.12311299  0.12167467  0.50537891  1
  V  V4  1  0.12661371  0.87485114  0.74822974  1
  V  V5  1  0.25200522  0.12971842  0.87997503  1
  V  V6  1  0.12687878  0.87270987  0.25913055  1
  V  V7  1  0.50317350  0.75038701  0.75550020  1
  V  V8  1  0.25591017  0.12520986  0.36761925  1
  V  V9  1  0.23651421  0.62607035  0.37397945  1
  V  V10  1  0.62668057  0.23952456  0.38181242  1
  V  V11  1  0.61891417  0.36700035  0.25067712  1
  V  V12  1  0.00115591  0.87479468  0.87587313  1
  V  V13  1  0.24992891  0.50084693  0.74867706  1
  V  V14  1  0.37844683  0.50751597  0.37403821  1
  V  V15  1  0.12437917  -0.00035376  0.13034520  1
  V  V16  1  0.87264207  0.50207990  0.37553727  1
  V  V17  1  0.37594514  0.62480551  0.75215519  1
  V  V18  1  0.75097423  0.12208732  0.87197377  1
  V  V19  1  0.12796125  0.13112272  0.00356461  1
  V  V20  1  0.87605564  0.50134751  0.88282358  1
  V  V21  1  0.87504970  0.24605899  0.62181299  1
  V  V22  1  -0.00221534  -0.00118900  0.00142346  1
  V  V23  1  0.00082379  0.62695000  0.61279545  1
  V  V24  1  0.75067336  0.36062591  0.11873642  1
  V  V25  1  0.24970984  0.24905507  0.49682857  1
  V  V26  1  0.50511470  0.87393732  0.87682421  1
  V  V27  1  0.76432936  0.00362159  0.25102898  1
  V  V28  1  0.00418061  0.74621783  0.25118940  1
  V  V29  1  0.12329817  0.37081657  0.24744793  1
  V  V30  1  -0.00002216  0.24301693  0.74497314  1
  V  V31  1  0.62575015  0.00055286  0.12548612  1
  V  V32  1  0.87778787  0.62300606  0.24303781  1
  V  V33  1  0.62815871  0.49963061  0.12488288  1
  V  V34  1  0.37346456  0.74701322  0.13511569  1
  V  V35  1  0.87607485  0.74630733  0.11855058  1
  V  V36  1  0.12677312  0.25094674  0.87668572  1
  V  V37  1  0.86241750  0.75565960  0.61623825  1
  V  V38  1  -0.00940280  0.13846360  0.12712794  1
  V  V39  1  -0.00372457  0.37169791  0.36783141  1
  V  V40  1  0.74674852  0.37364267  0.61860610  1
  V  V41  1  -0.00816532  0.00656435  0.50118104  1
  V  V42  1  0.37087522  0.36093062  -0.00091463  1
  V  V43  1  0.12288244  0.37531147  0.74891961  1
  V  V44  1  0.11238841  0.50231720  0.12219145  1
  V  V45  1  0.50098403  0.37510361  0.87599878  1
  V  V46  1  0.37485780  0.87343160  0.00217049  1
  V  V47  1  0.63415582  0.25347449  0.87966156  1
  V  V48  1  0.11122399  0.62170850  0.00337074  1
  V  V49  1  0.37988852  0.00108013  0.36805393  1
  V  V50  1  0.74566661  0.63466642  0.37453095  1
  V  V51  1  0.37554829  0.74985512  0.62155059  1
  V  V52  1  0.87470513  0.62321795  0.74696491  1
  V  V53  1  0.87245468  -0.00145880  0.86646415  1
  V  V54  1  0.49697298  0.50050702  0.00047131  1
  V  V55  1  -0.00050012  0.37936956  0.87923338  1
  V  V56  1  0.00104614  0.74769298  0.74618244  1
  V  V57  1  0.62496962  0.38021263  0.74513343  1
  V  V58  1  0.37672936  0.24812087  0.62079944  1
  V  V59  1  0.50078589  0.24903093  0.74987847  1
  V  V60  1  -0.00913010  0.87716399  0.37569708  1
  V  V61  1  0.87623528  0.14007065  0.25905134  1
  V  V62  1  0.63519924  0.87446354  0.74941282  1
  V  V63  1  0.74611725  0.63609378  0.87782534  1
  V  V64  1  0.12405594  0.50423098  0.61650861  1
  V  V65  1  0.49646444  0.62425071  0.13214118  1
  V  V66  1  0.24925815  0.74659303  0.00317068  1
  V  V67  1  0.11440813  0.24598733  0.37214329  1
  V  V68  1  0.62840135  0.63500511  0.50337876  1
  V  V69  1  0.12591239  0.74778511  0.87662103  1
  V  V70  1  0.23561207  0.74529724  0.49796653  1
  V  V71  1  0.62660152  0.63848830  -0.00200151  1
  V  V72  1  0.37513925  0.00015373  0.87713004  1
  V  V73  1  0.49743629  0.12985927  0.13861400  1
  V  V74  1  0.25153805  0.00016632  0.74790766  1
  V  V75  1  0.87156900  0.36873743  0.49757129  1
  V  V76  1  0.62836504  0.87253345  0.25788133  1
  V  V77  1  0.50503631  0.74802831  0.25786690  1
  V  V78  1  0.87123705  0.36194952  -0.00041624  1
  V  V79  1  0.74838434  0.50085345  0.74669249  1
  V  V80  1  0.24857707  0.37461944  0.62216921  1
  V  V81  1  0.64035886  0.00057602  0.63275933  1
  V  V82  1  0.50886069  0.49659325  0.50499262  1
  V  V83  1  0.50008113  0.00076169  0.50615404  1
  V  V84  1  0.25582221  0.50239727  0.24570194  1
  Zn  Zn85  1  0.12300342  0.00342931  0.62506419  1
  Zn  Zn86  1  0.24905759  0.62288476  0.87695046  1
  Zn  Zn87  1  0.49510754  0.36999120  0.36981722  1
  Zn  Zn88  1  0.69130820  0.80925046  0.44096141  1
  Zn  Zn89  1  0.86332337  0.87556709  0.49780696  1
  Zn  Zn90  1  0.37304025  0.49808529  0.87667585  1
  Zn  Zn91  1  0.25009177  0.87723645  0.61813856  1
  Zn  Zn92  1  0.50649916  0.62089853  0.62838199  1
  Zn  Zn93  1  0.00259455  0.50033853  0.49605378  1
  Zn  Zn94  1  0.50273405  0.87155867  0.37967120  1
  Zn  Zn95  1  0.24954686  0.87513211  0.12886579  1
  Zn  Zn96  1  0.63416341  0.13107840  0.51059127  1
  Zn  Zn97  1  0.74894509  0.49900281  0.24878484  1
  Zn  Zn98  1  0.24721321  0.37118941  0.11882406  1
  Zn  Zn99  1  0.37616237  0.37638441  0.49608840  1
  Zn  Zn100  1  0.25467736  0.00064207  0.24952608  1
  Zn  Zn101  1  0.50305292  0.12313502  0.62633617  1
  Zn  Zn102  1  0.49804235  0.00195073  0.00269154  1
  Zn  Zn103  1  0.87043420  0.86868763  -0.00401881  1
  Zn  Zn104  1  0.37624155  0.12486290  0.75052630  1
  Zn  Zn105  1  0.87550383  0.12157930  0.74702884  1
  Zn  Zn106  1  0.37501329  0.87247153  0.49653940  1
  Zn  Zn107  1  0.18784326  0.18823676  0.18729051  1
  Zn  Zn108  1  0.18910297  0.18704946  0.68806693  1
  Zn  Zn109  1  0.18581547  0.68424538  0.18956081  1
  Zn  Zn110  1  0.18789493  0.68649550  0.68414734  1
  Zn  Zn111  1  0.68933804  0.18691429  0.19168361  1
  Zn  Zn112  1  0.69036728  0.19036359  0.69042296  1
  Zn  Zn113  1  0.68933386  0.68663781  0.18704658  1
  Zn  Zn114  1  0.68477263  0.68788361  0.68803843  1
  Zn  Zn115  1  0.30831418  0.31826040  0.31493333  1
  Zn  Zn116  1  0.31365014  0.31263974  0.81148494  1
  Zn  Zn117  1  0.31284509  0.81324738  0.31617571  1
  Zn  Zn118  1  0.31354226  0.81196799  0.81479796  1
  Zn  Zn119  1  0.80616400  0.31379950  0.30648674  1
  Zn  Zn120  1  0.81326491  0.31213549  0.81025777  1
  Zn  Zn121  1  0.81560209  0.81338638  0.30342719  1
  Zn  Zn122  1  0.81722289  0.81057846  0.80898851  1
  Zn  Zn123  1  0.18868743  0.43738379  0.43432966  1
  Zn  Zn124  1  0.18852060  0.43905267  0.93866198  1
  Zn  Zn125  1  0.18873267  0.93725524  0.43563474  1
  Zn  Zn126  1  0.18768980  0.93880351  0.93979947  1
  Zn  Zn127  1  0.68673151  0.43985008  0.43404120  1
  Zn  Zn128  1  0.68841569  0.44306736  0.93793619  1
  Zn  Zn129  1  0.71844824  0.98985521  0.45744474  1
  Zn  Zn130  1  0.68634742  0.93927678  0.93761296  1
  Zn  Zn131  1  0.31276920  0.06464369  0.06455359  1
  Zn  Zn132  1  0.31358329  0.06320205  0.55840378  1
  Zn  Zn133  1  0.31125575  0.56246762  0.06440021  1
  Zn  Zn134  1  0.31595207  0.56578660  0.55967628  1
  Zn  Zn135  1  0.81160768  0.06331359  0.05895611  1
  Zn  Zn136  1  0.81792720  0.05880347  0.57231228  1
  Zn  Zn137  1  0.81096957  0.56094684  0.06003601  1
  Zn  Zn138  1  0.81094587  0.56130532  0.56088769  1
  Zn  Zn139  1  0.43565267  0.43541623  0.18632984  1
  Zn  Zn140  1  0.43639934  0.43586724  0.68379496  1
  Zn  Zn141  1  0.44040250  0.93602951  0.18888173  1
  Zn  Zn142  1  0.43732432  0.93519680  0.68784780  1
  Zn  Zn143  1  0.93337868  0.43335105  0.18631976  1
  Zn  Zn144  1  0.93709409  0.43619416  0.68782846  1
  Zn  Zn145  1  0.93952455  0.93447577  0.18503881  1
  Zn  Zn146  1  0.94029352  0.93592829  0.68301380  1
  Zn  Zn147  1  0.05550806  0.06295242  0.31530941  1
  Zn  Zn148  1  0.06382489  0.06216566  0.81373790  1
  Zn  Zn149  1  0.06024598  0.55858170  0.30771350  1
  Zn  Zn150  1  0.06217220  0.56318470  0.81016504  1
  Zn  Zn151  1  0.56578720  0.05814423  0.31379294  1
  Zn  Zn152  1  0.56307602  0.06183020  0.81354314  1
  Zn  Zn153  1  0.56562645  0.56000179  0.31451986  1
  Zn  Zn154  1  0.56356537  0.56264690  0.81564678  1
  Zn  Zn155  1  0.44420506  0.18550860  0.43471132  1
  Zn  Zn156  1  0.44388501  0.18581846  0.93958991  1
  Zn  Zn157  1  0.43575696  0.68127858  0.43833769  1
  Zn  Zn158  1  0.43737270  0.68738368  0.93892507  1
  Zn  Zn159  1  0.80495887  0.18196957  0.43518754  1
  Zn  Zn160  1  0.94031492  0.18655163  0.93551911  1
  Zn  Zn161  1  0.93811372  0.69066683  0.43321411  1
  Zn  Zn162  1  0.93627665  0.68628118  0.93467175  1
  Zn  Zn163  1  0.06083132  0.31553907  0.05926058  1
  Zn  Zn164  1  0.05954542  0.31157775  0.55765874  1
  Zn  Zn165  1  0.06132910  0.81190100  0.06800699  1
  Zn  Zn166  1  0.05919457  0.81630919  0.56198114  1
  Zn  Zn167  1  0.55859000  0.31032606  0.06468806  1
  Zn  Zn168  1  0.56402969  0.31254668  0.55933615  1
  Zn  Zn169  1  0.56054377  0.81411988  0.06826116  1
  Zn  Zn170  1  0.55940593  0.81634215  0.57000833  1
  O  O171  1  0.11658430  0.12049647  0.12086560  1
  O  O172  1  0.12942407  0.12724926  0.60960841  1
  O  O173  1  0.12663182  0.61060397  0.11965400  1
  O  O174  1  0.11411778  0.61533261  0.63106708  1
  O  O175  1  0.61815027  0.12229400  0.12169425  1
  O  O176  1  0.62583710  0.11396380  0.63211392  1
  O  O177  1  0.61978686  0.61628029  0.11872970  1
  O  O178  1  0.62557588  0.62576064  0.60925500  1
  O  O179  1  0.37553096  0.38851772  0.37659303  1
  O  O180  1  0.38241287  0.37468548  0.88203692  1
  O  O181  1  0.38016668  0.88420876  0.37743526  1
  O  O182  1  0.38391333  0.87861613  0.88158376  1
  O  O183  1  0.87769222  0.37925486  0.37699134  1
  O  O184  1  0.87949889  0.38082738  0.87946104  1
  O  O185  1  0.88721379  0.87214729  0.37238069  1
  O  O186  1  0.88158644  0.88038509  0.87664506  1
  O  O187  1  0.26046409  0.00821163  0.37566184  1
  O  O188  1  0.25402529  0.00882174  0.86994889  1
  O  O189  1  0.25467085  0.50854242  0.36952429  1
  O  O190  1  0.25109798  0.50059328  0.86083210  1
  O  O191  1  0.74860578  0.00232944  0.34787033  1
  O  O192  1  0.76131894  0.00742440  0.88112155  1
  O  O193  1  0.76087486  0.50657546  0.37192511  1
  O  O194  1  0.75709284  0.50491792  0.86424530  1
  O  O195  1  0.24427225  0.49778919  0.13389353  1
  O  O196  1  0.24497519  0.49865563  0.63155322  1
  O  O197  1  0.23712612  1.00170763  0.12742920  1
  O  O198  1  0.24897053  0.99827549  0.63400372  1
  O  O199  1  0.73599873  0.49459106  0.12266845  1
  O  O200  1  0.75729672  0.49158479  0.63936248  1
  O  O201  1  0.74394990  0.99453143  0.12886000  1
  O  O202  1  0.73940779  0.99945770  0.63501278  1
  O  O203  1  0.00523725  0.37853840  0.25969931  1
  O  O204  1  0.00388777  0.36753440  0.75953074  1
  O  O205  1  0.00577439  0.87010503  0.25642319  1
  O  O206  1  0.00941251  0.86959651  0.75512003  1
  O  O207  1  0.51577159  0.37735300  0.24692676  1
  O  O208  1  0.50632234  0.36874296  0.75255576  1
  O  O209  1  0.51149246  0.86619925  0.24957456  1
  O  O210  1  0.50379394  0.86739166  0.75884946  1
  O  O211  1  0.50568100  0.12288626  0.23672341  1
  O  O212  1  0.49950039  0.13898082  0.75136280  1
  O  O213  1  0.50928232  0.63024866  0.23907997  1
  O  O214  1  0.49517952  0.63063087  0.75009390  1
  O  O215  1  0.98760690  0.12064450  0.23714240  1
  O  O216  1  1.00042252  0.13915692  0.75535962  1
  O  O217  1  0.98959281  0.63201512  0.25477849  1
  O  O218  1  0.99358030  0.62943773  0.74109896  1
  O  O219  1  0.38155525  0.25812594  0.00515376  1
  O  O220  1  0.37172427  0.25155544  0.50565697  1
  O  O221  1  0.36776132  0.75300103  0.00893856  1
  O  O222  1  0.37193554  0.74821072  0.50875167  1
  O  O223  1  0.87529071  0.26245605  -0.00795562  1
  O  O224  1  0.86730567  0.26125365  0.50480679  1
  O  O225  1  0.88171675  0.74828041  0.01370025  1
  O  O226  1  0.87705501  0.75095526  0.51232694  1
  O  O227  1  0.12803506  0.24294794  0.49118412  1
  O  O228  1  0.12181173  0.23896304  0.99439118  1
  O  O229  1  0.13718424  0.74883856  0.50475229  1
  O  O230  1  0.13080508  0.74293624  0.99980410  1
  O  O231  1  0.62830227  0.24743517  0.48909438  1
  O  O232  1  0.61824826  0.24389912  0.99067441  1
  O  O233  1  0.61815435  0.74028561  0.49990071  1
  O  O234  1  0.61935934  0.73746938  1.00663904  1
  O  O235  1  0.49076481  0.23735172  0.12523674  1
  O  O236  1  0.49411250  0.24973054  0.63118771  1
  O  O237  1  0.49291270  0.74212735  0.13318165  1
  O  O238  1  0.49209532  0.74726056  0.63765259  1
  O  O239  1  1.00313390  0.23650642  0.12209691  1
  O  O240  1  0.98969039  0.25989564  0.63337167  1
  O  O241  1  0.99009079  0.75535483  0.13938137  1
  O  O242  1  0.99674184  0.74203080  0.62884498  1
  O  O243  1  0.01326155  0.25840572  0.37424565  1
  O  O244  1  0.00759089  0.25735736  0.86751894  1
  O  O245  1  -0.00206098  0.75801398  0.36112613  1
  O  O246  1  0.00564006  0.75464117  0.86751488  1
  O  O247  1  0.51755455  0.25537805  0.37783609  1
  O  O248  1  0.50892346  0.25574289  0.86730583  1
  O  O249  1  0.49302146  0.74695909  0.36074082  1
  O  O250  1  0.49404061  0.75746978  0.86428909  1
  O  O251  1  0.24212030  0.13033345  0.48989474  1
  O  O252  1  0.23996252  0.11988088  0.99204930  1
  O  O253  1  0.25163803  0.63451795  0.48952628  1
  O  O254  1  0.24456451  0.63478793  0.99908567  1
  O  O255  1  0.74756824  0.10151604  0.49202945  1
  O  O256  1  0.73649929  0.12290503  0.99210989  1
  O  O257  1  0.73605000  0.61935562  0.49278114  1
  O  O258  1  0.73849890  0.61755055  0.99021701  1
  O  O259  1  0.26563105  0.38133900  0.00111840  1
  O  O260  1  0.25041389  0.36746083  0.50495473  1
  O  O261  1  0.25221191  0.86252274  0.00339490  1
  O  O262  1  0.25194362  0.85878012  0.49726179  1
  O  O263  1  0.75363035  0.37892223  0.01051921  1
  O  O264  1  0.75526423  0.38548374  0.51090237  1
  O  O265  1  0.74977592  0.87751559  0.01181019  1
  O  O266  1  0.75092116  0.88810480  0.48946866  1
  O  O267  1  0.13044476  0.49227060  0.23921714  1
  O  O268  1  0.13227350  0.49483751  0.74134077  1
  O  O269  1  0.12284348  0.99372202  0.24375491  1
  O  O270  1  0.13148609  0.99277730  0.74894436  1
  O  O271  1  0.62648302  0.48945720  0.24117467  1
  O  O272  1  0.63092364  0.48821468  0.75484062  1
  O  O273  1  0.63285979  0.99459815  0.23917170  1
  O  O274  1  0.61813698  0.98867562  0.74209708  1
  O  O275  1  0.37638259  -0.00257555  0.26287436  1
  O  O276  1  0.36743165  0.00158033  0.75728410  1
  O  O277  1  0.36412024  0.49531709  0.25478034  1
  O  O278  1  0.36828927  0.50642440  0.74865188  1
  O  O279  1  0.86795735  0.00636019  0.24101306  1
  O  O280  1  0.88573651  0.00170254  0.76205680  1
  O  O281  1  0.87323876  0.50660469  0.25553106  1
  O  O282  1  0.86762009  0.50387481  0.75749280  1
  O  O283  1  0.11722859  0.37186664  0.36650167  1
  O  O284  1  0.11823927  0.37255195  0.87167397  1
  O  O285  1  0.11733600  0.87801146  0.36298102  1
  O  O286  1  0.12196875  0.87024844  0.86675477  1
  O  O287  1  0.62642751  0.37254034  0.36032256  1
  O  O288  1  0.62159763  0.37010393  0.87019346  1
  O  O289  1  0.62537650  0.87216343  0.36113382  1
  O  O290  1  0.61256754  0.88265389  0.86662888  1
  O  O291  1  0.38614152  0.13494149  0.12272831  1
  O  O292  1  0.37461477  0.13786247  0.62780097  1
  O  O293  1  0.38582432  0.63310641  0.12111353  1
  O  O294  1  0.37759200  0.63362838  0.63564784  1
  O  O295  1  0.88833033  0.12364317  0.12241886  1
  O  O296  1  0.87161208  0.14120206  0.62875178  1
  O  O297  1  0.86796786  0.62845857  0.13476749  1
  O  O298  1  0.88156001  0.63027177  0.62782571  1
  O  O299  1  0.26587138  0.24858781  0.12608983  1
  O  O300  1  0.25696858  0.25366443  0.61892765  1
  O  O301  1  0.25725956  0.74826056  0.12062447  1
  O  O302  1  0.25601056  0.74711283  0.61205479  1
  O  O303  1  0.74340033  0.26228793  0.12070198  1
  O  O304  1  0.75967834  0.26413205  0.63293003  1
  O  O305  1  0.76117972  0.75882447  0.13151396  1
  O  O306  1  0.76427975  0.74458793  0.62728285  1
  O  O307  1  0.24228771  0.24499307  0.37970460  1
  O  O308  1  0.24421856  0.23715615  0.86729866  1
  O  O309  1  0.25343479  0.73563161  0.38363854  1
  O  O310  1  0.24353027  0.74828509  0.88453445  1
  O  O311  1  0.73592522  0.25419166  0.37451693  1
  O  O312  1  0.73877038  0.24669467  0.87308673  1
  O  O313  1  0.75353919  0.73969823  0.36997295  1
  O  O314  1  0.75842622  0.73508307  0.87263662  1
  O  O315  1  0.00628143  0.11902300  0.00860778  1
  O  O316  1  0.00893510  0.10795354  0.49468800  1
  O  O317  1  0.01188206  0.62660382  -0.00264423  1
  O  O318  1  -0.00408694  0.62202401  0.50931331  1
  O  O319  1  0.51294439  0.12183753  0.00775344  1
  O  O320  1  0.50710800  0.11311263  0.50381696  1
  O  O321  1  0.50469180  0.61829251  0.00781130  1
  O  O322  1  0.51206424  0.61634332  0.50024602  1
  O  O323  1  0.50077926  0.38730873  0.49687148  1
  O  O324  1  0.49260970  0.38229473  0.99751374  1
  O  O325  1  0.49949665  0.88555621  0.49974970  1
  O  O326  1  0.49602904  0.87596323  0.99325065  1
  O  O327  1  0.99052259  0.37576510  0.48585863  1
  O  O328  1  0.99133355  0.37337684  0.98703260  1
  O  O329  1  0.99906698  0.88083582  0.48975415  1
  O  O330  1  1.00151400  0.88272312  0.99394132  1
  O  O331  1  0.49382689  0.49864454  0.38305637  1
  O  O332  1  0.49752623  0.49327564  0.88388482  1
  O  O333  1  0.49639342  0.99878682  0.38364175  1
  O  O334  1  0.49221905  0.99294111  0.87741674  1
  O  O335  1  0.98889162  0.49308392  0.37496939  1
  O  O336  1  0.98976724  0.49074929  0.86625521  1
  O  O337  1  1.00440525  0.98995071  0.38832776  1
  O  O338  1  0.99619475  0.99589845  0.88333198  1
  O  O339  1  0.00860252  0.00557480  0.11785063  1
  O  O340  1  0.00675175  -0.00770657  0.60792676  1
  O  O341  1  0.01368637  0.49518166  0.12775496  1
  O  O342  1  0.00711923  0.50647857  0.62419084  1
  O  O343  1  0.50653973  0.01088010  0.12508553  1
  O  O344  1  0.50104366  0.00269920  0.62100089  1
  O  O345  1  0.50625500  0.50613125  0.12093639  1
  O  O346  1  0.49567039  0.50202172  0.60947758  1
  O  O347  1  0.23951023  0.38535985  0.24769983  1
  O  O348  1  0.24531948  0.38241456  0.74338661  1
  O  O349  1  0.24139950  0.87707733  0.24949186  1
  O  O350  1  0.24449329  0.88593190  0.75353817  1
  O  O351  1  0.74077325  0.37839608  0.23399241  1
  O  O352  1  0.74304409  0.38183699  0.74466451  1
  O  O353  1  0.74733367  0.88480567  0.23815705  1
  O  O354  1  0.73349785  0.87156221  0.76021852  1
  O  O355  1  0.24334832  0.12213587  0.26400829  1
  O  O356  1  0.24908218  0.11404231  0.75832810  1
  O  O357  1  0.24666759  0.61753121  0.26299138  1
  O  O358  1  0.25776667  0.61781713  0.75044001  1
  O  O359  1  0.76648715  0.11490348  0.23632074  1
  O  O360  1  0.75239259  0.12961561  0.76744350  1
  O  O361  1  0.75658462  0.62113946  0.25758597  1
  O  O362  1  0.75166774  0.61734840  0.75505656  1
  O  O363  1  0.36679473  0.11769687  0.38054827  1
  O  O364  1  0.36810637  0.12118324  0.87594586  1
  O  O365  1  0.36443300  0.61194761  0.37630743  1
  O  O366  1  0.37338849  0.62249992  0.86386435  1
  O  O367  1  0.87900666  0.13218748  0.35815789  1
  O  O368  1  0.86840682  0.11715428  0.87617677  1
  O  O369  1  0.86874330  0.61838992  0.36864463  1
  O  O370  1  0.86959438  0.61719928  0.86877061  1
  O  O371  1  0.12628082  0.38233491  0.12864750  1
  O  O372  1  0.12894726  0.38055374  0.62977723  1
  O  O373  1  0.12507247  0.88462642  0.13472130  1
  O  O374  1  0.12983006  0.87254430  0.63896087  1
  O  O375  1  0.63031523  0.37832837  0.12985827  1
  O  O376  1  0.63361567  0.37053921  0.63358865  1
  O  O377  1  0.63100343  0.88338900  0.13078403  1
  O  O378  1  0.62207477  0.88480995  0.64123955  1
  O  O379  1  0.13025188  0.26308565  0.25534155  1
  O  O380  1  0.11974368  0.25654762  0.75377073  1
  O  O381  1  0.11627336  0.75888630  0.24233279  1
  O  O382  1  0.12345944  0.75578510  0.75571906  1
  O  O383  1  0.62927698  0.26153517  0.25681001  1
  O  O384  1  0.61909494  0.26084683  0.75705445  1
  O  O385  1  0.61694448  0.75961658  0.24053540  1
  O  O386  1  0.61585485  0.76212638  0.74590041  1
  O  O387  1  0.37390812  0.25473938  0.24071501  1
  O  O388  1  0.38465577  0.25055782  0.74252735  1
  O  O389  1  0.38188796  0.75518466  0.23916990  1
  O  O390  1  0.37878669  0.74201353  0.74550973  1
  O  O391  1  0.87021151  0.23908072  0.24548552  1
  O  O392  1  0.88422044  0.25143800  0.74210958  1
  O  O393  1  0.88177634  0.74064122  0.24065453  1
  O  O394  1  0.88206514  0.74267412  0.73994690  1
  O  O395  1  0.38697013  0.50102071  0.49325333  1
  O  O396  1  0.38584997  0.49503247  1.00174622  1
  O  O397  1  0.38334980  0.99749003  0.49309429  1
  O  O398  1  0.37446051  0.99194679  0.99592494  1
  O  O399  1  0.87656165  0.48955055  0.49161233  1
  O  O400  1  0.87003123  0.49204337  0.98624602  1
  O  O401  1  0.88836768  0.99653114  0.50451919  1
  O  O402  1  0.88715115  0.99821042  0.99273372  1
  O  O403  1  0.11584493  0.00838063  0.00568554  1
  O  O404  1  0.12294700  0.00702412  0.50125092  1
  O  O405  1  0.13006397  0.50639581  0.01330721  1
  O  O406  1  0.12387776  0.49381722  0.51286573  1
  O  O407  1  0.62382021  0.00662007  0.01297862  1
  O  O408  1  0.61801800  0.00085572  0.52227520  1
  O  O409  1  0.61228940  0.50269901  0.00705828  1
  O  O410  1  0.61267803  0.50716172  0.49542082  1
  O  O411  1  0.37661659  0.35990160  0.11913389  1
  O  O412  1  0.36779992  0.36360484  0.62242724  1
  O  O413  1  0.37399723  0.86698124  0.11929792  1
  O  O414  1  0.37027926  0.86060904  0.62616896  1
  O  O415  1  0.85953566  0.37972171  0.11610280  1
  O  O416  1  0.86999104  0.36966073  0.61554638  1
  O  O417  1  0.86790456  0.86616500  0.12181544  1
  O  O418  1  0.87726355  0.85878309  0.62512172  1
  O  O419  1  0.12860125  0.13171060  0.38088724  1
  O  O420  1  0.13160298  0.12882248  0.88432860  1
  O  O421  1  0.13750571  0.61553018  0.37525212  1
  O  O422  1  0.12648171  0.62959897  0.88276428  1
  O  O423  1  0.62549947  0.13763821  0.37296905  1
  O  O424  1  0.63001353  0.13136124  0.88202264  1
  O  O425  1  0.63497333  0.62124178  0.38525642  1
  O  O426  1  0.63309833  0.62194126  0.88498282  1
