# generated using pymatgen
data_V85Zn86O256
_symmetry_space_group_name_H-M   'P 1'
_cell_length_a   17.01371075
_cell_length_b   17.00170118
_cell_length_c   16.99626413
_cell_angle_alpha   90.00051573
_cell_angle_beta   89.95222374
_cell_angle_gamma   89.97608540
_symmetry_Int_Tables_number   1
_chemical_formula_structural   V85Zn86O256
_chemical_formula_sum   'V85 Zn86 O256'
_cell_volume   4916.37166359
_cell_formula_units_Z   1
loop_
 _symmetry_equiv_pos_site_id
 _symmetry_equiv_pos_as_xyz
  1  'x, y, z'
loop_
 _atom_site_type_symbol
 _atom_site_label
 _atom_site_symmetry_multiplicity
 _atom_site_fract_x
 _atom_site_fract_y
 _atom_site_fract_z
 _atom_site_occupancy
  V  V0  1  0.86822022  0.25708515  0.62007306  1
  V  V1  1  0.75167189  0.12360854  0.37729724  1
  V  V2  1  0.36050403  -0.00175157  0.37668780  1
  V  V3  1  0.13099960  0.88603503  0.75215460  1
  V  V4  1  0.13486908  0.37122416  0.75170464  1
  V  V5  1  0.13495544  0.74437265  0.86976791  1
  V  V6  1  0.62870093  -0.01302139  0.62583069  1
  V  V7  1  0.36452784  0.37651227  0.49833279  1
  V  V8  1  0.50230803  0.25429328  0.74436238  1
  V  V9  1  -0.00605080  0.37925992  0.87467771  1
  V  V10  1  0.38734910  0.87286913  -0.00565040  1
  V  V11  1  0.75402759  0.50078981  0.25389648  1
  V  V12  1  0.63000712  0.75743623  0.87061053  1
  V  V13  1  0.49676182  -0.00052289  0.49788609  1
  V  V14  1  0.12151710  0.61690360  0.49998146  1
  V  V15  1  0.11716834  0.37136859  0.24987978  1
  V  V16  1  0.75170794  0.12231540  0.87133374  1
  V  V17  1  0.62155081  0.62508966  0.50354063  1
  V  V18  1  0.65489265  0.60046533  -0.01871872  1
  V  V19  1  -0.01370436  0.37448337  0.37419784  1
  V  V20  1  0.49814349  0.37300182  0.37435969  1
  V  V21  1  0.36953541  0.75432305  0.12607884  1
  V  V22  1  0.37286208  0.73936573  0.63304885  1
  V  V23  1  0.12453921  0.01070156  0.61460531  1
  V  V24  1  0.24715002  -0.00634823  0.23216389  1
  V  V25  1  -0.00129318  0.24632149  0.74746469  1
  V  V26  1  0.87635774  0.74386975  0.12625895  1
  V  V27  1  0.62122421  0.50020208  0.12828622  1
  V  V28  1  0.62385352  0.87476569  0.24862261  1
  V  V29  1  0.00704889  0.12208096  0.12519172  1
  V  V30  1  0.25060647  0.75382714  0.00041044  1
  V  V31  1  0.62146215  0.37284146  0.24975200  1
  V  V32  1  0.26004432  0.50595152  0.75819575  1
  V  V33  1  0.62625928  0.74738224  0.37589262  1
  V  V34  1  0.24476723  0.24302239  -0.00028484  1
  V  V35  1  0.62381207  0.12045529  0.00298241  1
  V  V36  1  0.37419085  0.50052980  0.37299993  1
  V  V37  1  0.49050072  0.49925700  -0.00669966  1
  V  V38  1  0.75331962  0.00067550  0.25192263  1
  V  V39  1  0.12247768  0.24809473  0.37377778  1
  V  V40  1  0.44416535  0.04899383  -0.05830466  1
  V  V41  1  0.86827570  0.61053331  0.76288772  1
  V  V42  1  0.00201652  0.74606681  0.75022705  1
  V  V43  1  0.49743984  0.87486721  0.37441403  1
  V  V44  1  0.36975360  0.37474496  -0.00931458  1
  V  V45  1  0.49912049  0.23959955  0.24707461  1
  V  V46  1  0.25386452  0.88763952  0.63061576  1
  V  V47  1  0.00626929  -0.00244649  0.00508646  1
  V  V48  1  0.75047287  -0.01635790  0.74486015  1
  V  V49  1  0.00277627  0.87221843  0.87464829  1
  V  V50  1  0.62914190  0.50357657  0.62984342  1
  V  V51  1  0.12283670  0.50064687  0.12317128  1
  V  V52  1  0.87554275  0.62210015  0.26052253  1
  V  V53  1  0.37607171  0.24518167  0.12725857  1
  V  V54  1  0.24749742  0.62438451  0.37493577  1
  V  V55  1  0.87218717  0.75917637  0.62495803  1
  V  V56  1  0.49965112  0.62476822  0.12177130  1
  V  V57  1  0.63562451  0.38178937  0.74977412  1
  V  V58  1  0.62447413  0.12819717  0.50057594  1
  V  V59  1  0.87775386  0.87416539  0.00125620  1
  V  V60  1  0.75116863  0.76219081  0.50501368  1
  V  V61  1  0.11963798  0.88065873  0.24363104  1
  V  V62  1  0.50002197  0.74807438  0.24894046  1
  V  V63  1  0.37148177  0.87287957  0.49960096  1
  V  V64  1  0.61247900  0.00184359  0.12289486  1
  V  V65  1  0.24634366  0.23913816  0.49927670  1
  V  V66  1  0.62562581  0.25100525  0.87371120  1
  V  V67  1  0.24851963  0.75020837  0.50229662  1
  V  V68  1  0.75012180  0.37188745  0.12614300  1
  V  V69  1  0.13118983  0.48560937  0.62561646  1
  V  V70  1  0.88012226  0.12392187  0.25081997  1
  V  V71  1  0.75015916  0.87824974  0.12620487  1
  V  V72  1  0.24689807  0.49909670  0.24560693  1
  V  V73  1  0.00047752  0.75148596  0.25902234  1
  V  V74  1  0.13035289  0.62300953  -0.00410945  1
  V  V75  1  0.87699736  0.12221008  0.74067021  1
  V  V76  1  -0.01587098  0.49090537  0.49862297  1
  V  V77  1  -0.00374142  0.61877653  0.62537236  1
  V  V78  1  0.37371831  0.62554406  0.24750608  1
  V  V79  1  0.74968132  0.75136667  -0.00087028  1
  V  V80  1  0.49994030  0.12462273  0.62845417  1
  V  V81  1  0.88056148  0.24670887  0.12621450  1
  V  V82  1  0.87623602  -0.00235619  0.87236943  1
  V  V83  1  0.75116199  0.24690410  0.00081313  1
  V  V84  1  0.37488980  0.25199358  0.62074171  1
  Zn  Zn85  1  0.49539816  0.38173323  0.86778475  1
  Zn  Zn86  1  0.31894971  0.68296657  0.81315390  1
  Zn  Zn87  1  0.12098368  0.24339128  0.87601933  1
  Zn  Zn88  1  0.89769358  -0.02899005  0.40215637  1
  Zn  Zn89  1  0.75249746  0.62012577  0.38153429  1
  Zn  Zn90  1  0.75553679  0.38800129  0.61555008  1
  Zn  Zn91  1  0.87418748  0.37656740  -0.00534401  1
  Zn  Zn92  1  0.75133495  0.25850125  0.49421124  1
  Zn  Zn93  1  0.12780385  0.11570548  -0.00188628  1
  Zn  Zn94  1  -0.00464104  0.50791709  -0.00802999  1
  Zn  Zn95  1  0.50491639  0.87914234  0.86367291  1
  Zn  Zn96  1  0.24855063  0.37250313  0.12475677  1
  Zn  Zn97  1  0.50326265  0.74778626  0.75194183  1
  Zn  Zn98  1  0.24546038  0.12242911  0.37150040  1
  Zn  Zn99  1  0.49314079  0.61852112  0.63540080  1
  Zn  Zn100  1  0.49911287  0.50045330  0.50127341  1
  Zn  Zn101  1  0.12161845  0.75161257  0.37689836  1
  Zn  Zn102  1  0.00079202  0.62542995  0.12485925  1
  Zn  Zn103  1  -0.00594012  0.05694268  0.51447399  1
  Zn  Zn104  1  0.37525473  0.11928533  0.24821884  1
  Zn  Zn105  1  0.24333698  0.10619023  0.85786941  1
  Zn  Zn106  1  0.62340316  0.24880294  0.37455718  1
  Zn  Zn107  1  0.18936735  0.18585653  0.19001362  1
  Zn  Zn108  1  0.18845617  0.19411350  0.68346453  1
  Zn  Zn109  1  0.18555568  0.68809839  0.18499627  1
  Zn  Zn110  1  0.18573557  0.68182957  0.68429843  1
  Zn  Zn111  1  0.68610780  0.18478543  0.18681278  1
  Zn  Zn112  1  0.68894728  0.18431246  0.68713704  1
  Zn  Zn113  1  0.68930569  0.68482496  0.18363140  1
  Zn  Zn114  1  0.69446789  0.68105555  0.68903375  1
  Zn  Zn115  1  0.30976000  0.31288050  0.31133725  1
  Zn  Zn116  1  0.30206907  0.27866813  0.79880692  1
  Zn  Zn117  1  0.30384881  0.81510685  0.31345706  1
  Zn  Zn118  1  0.31491841  0.93154052  0.81321508  1
  Zn  Zn119  1  0.80952228  0.30701377  0.30851674  1
  Zn  Zn120  1  0.81395129  0.31201624  0.81066772  1
  Zn  Zn121  1  0.80735643  0.80837305  0.30999057  1
  Zn  Zn122  1  0.81634643  0.80328613  0.81314747  1
  Zn  Zn123  1  0.18272991  0.43484614  0.43342864  1
  Zn  Zn124  1  0.18177509  0.42892639  0.93535909  1
  Zn  Zn125  1  0.08280979  0.92929081  0.43351218  1
  Zn  Zn126  1  0.18870129  0.93289568  0.94393260  1
  Zn  Zn127  1  0.68632390  0.43770898  0.43825409  1
  Zn  Zn128  1  0.68356939  0.43128067  0.94028316  1
  Zn  Zn129  1  0.68667103  0.93983711  0.43634721  1
  Zn  Zn130  1  0.68955053  0.93826418  0.93790324  1
  Zn  Zn131  1  0.31312565  0.06577703  0.06587460  1
  Zn  Zn132  1  0.32086748  0.07652269  0.69398076  1
  Zn  Zn133  1  0.30943109  0.55826392  -0.05823948  1
  Zn  Zn134  1  0.30701040  0.55645479  0.56414659  1
  Zn  Zn135  1  0.81414013  0.06039899  0.06289587  1
  Zn  Zn136  1  0.80811150  0.06284980  0.56268038  1
  Zn  Zn137  1  0.80924708  0.55311188  0.04837517  1
  Zn  Zn138  1  0.80961982  0.57124706  0.56444652  1
  Zn  Zn139  1  0.43224934  0.43267339  0.18371653  1
  Zn  Zn140  1  0.44173372  0.43491390  0.68331909  1
  Zn  Zn141  1  0.43315087  0.93404111  0.18753903  1
  Zn  Zn142  1  0.44715248  0.92644330  0.68703616  1
  Zn  Zn143  1  0.93531621  0.43890991  0.17945455  1
  Zn  Zn144  1  0.94211617  0.43405699  0.68848680  1
  Zn  Zn145  1  0.93720690  0.93613611  0.19000687  1
  Zn  Zn146  1  0.94697100  0.93910127  0.68233165  1
  Zn  Zn147  1  0.06233719  0.06214482  0.31245643  1
  Zn  Zn148  1  0.06141490  0.06368246  0.81423318  1
  Zn  Zn149  1  0.05700752  0.56067773  0.31505102  1
  Zn  Zn150  1  0.06505934  0.55946373  0.80963034  1
  Zn  Zn151  1  0.56315853  0.05996461  0.31370738  1
  Zn  Zn152  1  0.56997993  0.06469510  0.80377390  1
  Zn  Zn153  1  0.56205365  0.56201252  0.31444101  1
  Zn  Zn154  1  0.55684832  0.56799796  0.80986318  1
  Zn  Zn155  1  0.43421852  0.18408099  0.43528880  1
  Zn  Zn156  1  0.43606311  0.20967831  0.93432293  1
  Zn  Zn157  1  0.43692890  0.68610466  0.43947874  1
  Zn  Zn158  1  0.44864144  0.69077856  0.94168626  1
  Zn  Zn159  1  0.93552537  0.19123545  0.42868364  1
  Zn  Zn160  1  0.93823576  0.18562904  0.93511897  1
  Zn  Zn161  1  0.93622248  0.80330059  0.44192351  1
  Zn  Zn162  1  0.94292725  0.68679257  0.93758084  1
  Zn  Zn163  1  0.06149329  0.31209732  0.06334253  1
  Zn  Zn164  1  0.04015114  0.27149055  0.54173563  1
  Zn  Zn165  1  0.06396445  0.81023196  0.06646476  1
  Zn  Zn166  1  0.06987267  0.80722621  0.57231734  1
  Zn  Zn167  1  0.55915050  0.31266168  0.06249409  1
  Zn  Zn168  1  0.56708666  0.31776202  0.56046035  1
  Zn  Zn169  1  0.56605335  0.80926277  0.05924861  1
  Zn  Zn170  1  0.55681976  0.80879734  0.56233504  1
  O  O171  1  0.10897399  0.13001702  0.12551528  1
  O  O172  1  0.13714746  0.10746730  0.63233401  1
  O  O173  1  0.12535863  0.61680416  0.11599387  1
  O  O174  1  0.11511351  0.61385007  0.62053519  1
  O  O175  1  0.62778990  0.11807982  0.11107065  1
  O  O176  1  0.61983108  0.11857339  0.61629475  1
  O  O177  1  0.61997196  0.61380269  0.11876758  1
  O  O178  1  0.62218832  0.62197328  0.61926149  1
  O  O179  1  0.38053684  0.38101737  0.37784976  1
  O  O180  1  0.37789790  0.35925630  0.89001876  1
  O  O181  1  0.37763306  0.87786670  0.37964319  1
  O  O182  1  0.38236059  0.87313067  0.89059557  1
  O  O183  1  0.88777819  0.36937720  0.36419764  1
  O  O184  1  0.88881124  0.37160009  0.87426059  1
  O  O185  1  0.87434147  0.86855584  0.37279717  1
  O  O186  1  0.88349790  0.87679980  0.88035112  1
  O  O187  1  0.25990017  -0.00102519  0.36979121  1
  O  O188  1  0.25071907  -0.00331291  0.87865171  1
  O  O189  1  0.25377404  0.50498199  0.36480007  1
  O  O190  1  0.24683139  0.49530764  0.86395706  1
  O  O191  1  0.74756547  0.01107177  0.36722348  1
  O  O192  1  0.75647311  0.00277939  0.86650810  1
  O  O193  1  0.73923086  0.50216524  0.35701673  1
  O  O194  1  0.73278207  0.53104936  0.94843754  1
  O  O195  1  0.23744976  0.49714733  0.13932405  1
  O  O196  1  0.23955180  0.50089992  0.63865379  1
  O  O197  1  0.25221941  0.99674669  0.13389607  1
  O  O198  1  0.24623076  0.98927861  0.62993975  1
  O  O199  1  0.73713542  0.49276857  0.13265880  1
  O  O200  1  0.73442721  0.50479096  0.62113671  1
  O  O201  1  0.74438436  0.99499561  0.13255892  1
  O  O202  1  0.73688566  1.00152644  0.62997352  1
  O  O203  1  0.00926680  0.38679256  0.25982135  1
  O  O204  1  0.00732111  0.36817754  0.76070734  1
  O  O205  1  0.01038077  0.86870518  0.24706213  1
  O  O206  1  0.01062567  0.86597582  0.75410105  1
  O  O207  1  0.50126567  0.36868915  0.25838353  1
  O  O208  1  0.51199766  0.36945731  0.75036979  1
  O  O209  1  0.50494603  0.86671114  0.25486051  1
  O  O210  1  0.50692168  0.85981444  0.75142293  1
  O  O211  1  0.49993372  0.13690407  0.25450743  1
  O  O212  1  0.50898069  0.13485983  0.73510503  1
  O  O213  1  0.49668070  0.62939505  0.24198634  1
  O  O214  1  0.49699511  0.63573995  0.74742013  1
  O  O215  1  0.98650461  0.11515025  0.24084383  1
  O  O216  1  0.98808733  0.13274085  0.75534203  1
  O  O217  1  0.99190438  0.63052561  0.24700091  1
  O  O218  1  0.99994042  0.62838457  0.74110034  1
  O  O219  1  0.36466927  0.25465193  0.00943385  1
  O  O220  1  0.36540404  0.25581515  0.49979173  1
  O  O221  1  0.37214896  0.75694094  0.00740955  1
  O  O222  1  0.36369403  0.75207747  0.50270952  1
  O  O223  1  0.86517915  0.24844560  0.00592237  1
  O  O224  1  0.87105783  0.24573635  0.51794431  1
  O  O225  1  0.87152780  0.75517556  0.00704507  1
  O  O226  1  0.86570886  0.74536476  0.51570857  1
  O  O227  1  0.14324170  0.26661837  0.48836169  1
  O  O228  1  0.13748321  0.24852378  1.00308428  1
  O  O229  1  0.13686361  0.73510223  0.50358768  1
  O  O230  1  0.13345663  0.74572208  0.99429176  1
  O  O231  1  0.62245753  0.23683098  0.49791784  1
  O  O232  1  0.62968911  0.24176182  0.99691212  1
  O  O233  1  0.62816567  0.74524363  0.49415556  1
  O  O234  1  0.63706016  0.74244644  0.99421470  1
  O  O235  1  0.49052884  0.25660107  0.13618029  1
  O  O236  1  0.49963773  0.24405171  0.62653031  1
  O  O237  1  0.49931207  0.74115941  0.12963638  1
  O  O238  1  0.48000966  0.74714496  0.61929503  1
  O  O239  1  0.98673274  0.24044217  0.11751032  1
  O  O240  1  0.98334318  0.25718253  0.64089788  1
  O  O241  1  0.99013075  0.74883175  0.13421451  1
  O  O242  1  0.99435010  0.73739616  0.63066792  1
  O  O243  1  0.00836538  0.26742171  0.37058995  1
  O  O244  1  -0.00172111  0.25537563  0.86298323  1
  O  O245  1  0.00033520  0.74352498  0.36101505  1
  O  O246  1  0.01053458  0.75592857  0.86979343  1
  O  O247  1  0.49881330  0.25663844  0.36600066  1
  O  O248  1  0.50929489  0.25312161  0.86145755  1
  O  O249  1  0.50893892  0.75364187  0.37046361  1
  O  O250  1  0.52188624  0.75391522  0.88105680  1
  O  O251  1  0.24862574  0.14178904  0.49286232  1
  O  O252  1  0.24660423  0.13514024  1.00460266  1
  O  O253  1  0.24018538  0.62567518  0.49549184  1
  O  O254  1  0.23689433  0.63437558  0.99661852  1
  O  O255  1  0.74037942  0.12905938  0.49147258  1
  O  O256  1  0.74351763  0.13119347  0.99510032  1
  O  O257  1  0.73712804  0.63579631  0.49886335  1
  O  O258  1  0.74820436  0.64834922  1.02753126  1
  O  O259  1  0.25353198  0.36429055  0.00249976  1
  O  O260  1  0.26305672  0.37307997  0.49164308  1
  O  O261  1  0.26100365  0.85843883  -0.00148041  1
  O  O262  1  0.25505226  0.86037151  0.51306739  1
  O  O263  1  0.74955128  0.35907578  0.00656348  1
  O  O264  1  0.74161719  0.36967401  0.50351475  1
  O  O265  1  0.75723422  0.86872644  0.00739806  1
  O  O266  1  0.74313348  0.86106559  0.49606653  1
  O  O267  1  0.13022491  0.49501643  0.24610578  1
  O  O268  1  0.13562746  0.49061276  0.74602037  1
  O  O269  1  0.13391875  0.98977301  0.24979523  1
  O  O270  1  0.11973117  0.98777728  0.74676939  1
  O  O271  1  0.62573323  0.49470187  0.24079853  1
  O  O272  1  0.62099982  0.49311679  0.74411581  1
  O  O273  1  0.63514025  0.99731222  0.24325170  1
  O  O274  1  0.63511209  1.00062904  0.73440661  1
  O  O275  1  0.36268140  -0.00410697  0.25406849  1
  O  O276  1  0.37502658  -0.00736233  0.74009200  1
  O  O277  1  0.36548973  0.50498691  0.25116728  1
  O  O278  1  0.35614689  0.48558161  0.74372363  1
  O  O279  1  0.86176427  0.00548213  0.24808625  1
  O  O280  1  0.87230872  0.00499803  0.74982900  1
  O  O281  1  0.86372313  0.50941434  0.23853861  1
  O  O282  1  0.88383177  0.51220973  0.74750267  1
  O  O283  1  0.11897930  0.36894260  0.36482354  1
  O  O284  1  0.11438583  0.36461029  0.86709978  1
  O  O285  1  0.13145977  0.86519854  0.35224212  1
  O  O286  1  0.12167724  0.86494953  0.86862759  1
  O  O287  1  0.61402918  0.37315705  0.36632266  1
  O  O288  1  0.62356283  0.36840727  0.86852702  1
  O  O289  1  0.61914844  0.86836839  0.36771559  1
  O  O290  1  0.62794904  0.86118298  0.88183892  1
  O  O291  1  0.37501250  0.13949087  0.12886765  1
  O  O292  1  0.38797261  0.14122277  0.62011258  1
  O  O293  1  0.38789409  0.63870622  0.13335853  1
  O  O294  1  0.37256601  0.63664908  0.61539896  1
  O  O295  1  0.87954653  0.12952300  0.13045350  1
  O  O296  1  0.86823710  0.13522019  0.63795762  1
  O  O297  1  0.87417694  0.63849852  0.12891017  1
  O  O298  1  0.88801983  0.62958118  0.63067632  1
  O  O299  1  0.25576830  0.25055231  0.11688022  1
  O  O300  1  0.26063079  0.25145762  0.60857818  1
  O  O301  1  0.26161399  0.74171332  0.11552198  1
  O  O302  1  0.25703992  0.75002652  0.61889144  1
  O  O303  1  0.75552311  0.24947157  0.11687253  1
  O  O304  1  0.76163133  0.25066730  0.62768201  1
  O  O305  1  0.75683609  0.76276814  0.12560481  1
  O  O306  1  0.76409628  0.74665319  0.62099286  1
  O  O307  1  0.24486686  0.24965408  0.38213330  1
  O  O308  1  0.24946694  0.24479783  0.89438245  1
  O  O309  1  0.24859575  0.74056332  0.38446254  1
  O  O310  1  0.23925760  0.74630626  0.88004388  1
  O  O311  1  0.74394320  0.23649601  0.37272804  1
  O  O312  1  0.74579410  0.24418054  0.88258412  1
  O  O313  1  0.73605021  0.74627401  0.38010294  1
  O  O314  1  0.74496779  0.75235967  0.88887108  1
  O  O315  1  -0.00090326  0.11439164  0.00687502  1
  O  O316  1  0.01703939  0.16584383  0.49877743  1
  O  O317  1  0.01412756  0.62595266  0.00469301  1
  O  O318  1  0.01424865  0.60953130  0.50820166  1
  O  O319  1  0.50386807  0.11872221  -0.00920514  1
  O  O320  1  0.50518981  0.11913830  0.50662803  1
  O  O321  1  0.50415689  0.61549206  0.01357296  1
  O  O322  1  0.51215487  0.62536006  0.50090682  1
  O  O323  1  0.49398678  0.37323320  0.48457140  1
  O  O324  1  0.48957935  0.38326769  1.00059513  1
  O  O325  1  0.49278685  0.87789889  0.49232227  1
  O  O326  1  0.49067080  0.87090703  0.99807351  1
  O  O327  1  1.00029979  0.37713403  0.48419929  1
  O  O328  1  1.00161330  0.36798590  0.98172205  1
  O  O329  1  1.01500046  0.86190199  0.49470285  1
  O  O330  1  0.99571678  0.87823858  0.99746028  1
  O  O331  1  0.49125107  0.49160127  0.37405242  1
  O  O332  1  0.50602709  0.49887707  0.89089567  1
  O  O333  1  0.49308081  0.99205641  0.37743235  1
  O  O334  1  0.50595859  0.99928452  0.87577411  1
  O  O335  1  1.00457903  0.48610728  0.38668155  1
  O  O336  1  1.00769704  0.48268389  0.87539237  1
  O  O337  1  1.00839088  1.01001210  0.39508875  1
  O  O338  1  0.99375455  0.99157087  0.88226855  1
  O  O339  1  -0.01110221  0.00863999  0.11507165  1
  O  O340  1  0.01878126  0.00255585  0.62209215  1
  O  O341  1  0.01617733  0.50289190  0.12800596  1
  O  O342  1  0.00788368  0.50133967  0.61811376  1
  O  O343  1  0.51410143  -0.00324185  0.13489966  1
  O  O344  1  0.51035422  0.00769321  0.61861607  1
  O  O345  1  0.50255548  0.50679730  0.12414714  1
  O  O346  1  0.51092338  0.50191150  0.62016936  1
  O  O347  1  0.24105131  0.38475158  0.24936005  1
  O  O348  1  0.23731682  0.37082520  0.75855287  1
  O  O349  1  0.24265932  0.88746967  0.24857275  1
  O  O350  1  0.24101923  0.86921462  0.74212985  1
  O  O351  1  0.74198744  0.37985379  0.24448928  1
  O  O352  1  0.73773512  0.37250447  0.74976408  1
  O  O353  1  0.74187990  0.88282926  0.24598047  1
  O  O354  1  0.75986053  0.88554975  0.75390307  1
  O  O355  1  0.25013425  0.10720899  0.25018159  1
  O  O356  1  0.26788863  0.15742238  0.75662649  1
  O  O357  1  0.25381169  0.61889454  0.25461365  1
  O  O358  1  0.24966865  0.61091772  0.75185900  1
  O  O359  1  0.75427850  0.11655925  0.25497647  1
  O  O360  1  0.75676575  0.11578209  0.75573282  1
  O  O361  1  0.75644357  0.61632171  0.24771265  1
  O  O362  1  0.76948134  0.62230773  0.75054438  1
  O  O363  1  0.37283706  0.11169734  0.37022225  1
  O  O364  1  0.38448919  0.11215523  0.89135702  1
  O  O365  1  0.37006404  0.61924374  0.36791240  1
  O  O366  1  0.37795468  0.62659757  0.88648172  1
  O  O367  1  0.86562964  0.13048695  0.36297266  1
  O  O368  1  0.86918150  0.11621273  0.86733453  1
  O  O369  1  0.86885645  0.62646979  0.35918197  1
  O  O370  1  0.88487085  0.62672134  0.86173011  1
  O  O371  1  0.12409642  0.38135290  0.13243475  1
  O  O372  1  0.11770792  0.38455280  0.63706651  1
  O  O373  1  0.12840273  0.86449763  0.14364735  1
  O  O374  1  0.13677077  0.87933018  0.63559898  1
  O  O375  1  0.62863176  0.38016389  0.13048857  1
  O  O376  1  0.62626633  0.38530207  0.63362019  1
  O  O377  1  0.63023331  0.88104618  0.12949119  1
  O  O378  1  0.62012741  0.88932656  0.61528691  1
  O  O379  1  0.13267099  0.26555038  0.25444791  1
  O  O380  1  0.11499169  0.25621773  0.74740268  1
  O  O381  1  0.11453652  0.75184828  0.24978296  1
  O  O382  1  0.12179768  0.75183139  0.75560421  1
  O  O383  1  0.61592093  0.25511442  0.24852649  1
  O  O384  1  0.61884865  0.25642918  0.75134391  1
  O  O385  1  0.62113418  0.75232272  0.25677379  1
  O  O386  1  0.63819701  0.74122692  0.77046309  1
  O  O387  1  0.38106495  0.24924551  0.24406766  1
  O  O388  1  0.39433496  0.26242996  0.73503561  1
  O  O389  1  0.37857024  0.74737580  0.24453378  1
  O  O390  1  0.36754555  0.74983315  0.73371426  1
  O  O391  1  0.86695599  0.23484094  0.23711231  1
  O  O392  1  0.87823772  0.24047117  0.74555051  1
  O  O393  1  0.88014807  0.74262069  0.24302980  1
  O  O394  1  0.88268853  0.74013428  0.74065986  1
  O  O395  1  0.37629477  0.49258692  0.49381500  1
  O  O396  1  0.37892597  0.48823502  1.00396366  1
  O  O397  1  0.38267169  0.98719182  0.48967835  1
  O  O398  1  0.38430998  0.99215783  1.00731352  1
  O  O399  1  0.88630088  0.50496476  0.50749828  1
  O  O400  1  0.89046095  0.48439668  1.02569201  1
  O  O401  1  0.88703516  1.01901928  0.50221778  1
  O  O402  1  0.88057470  0.99208737  0.99325973  1
  O  O403  1  0.10976817  -0.00513261  0.00177910  1
  O  O404  1  0.13204921  -0.00015914  0.51521711  1
  O  O405  1  0.12560855  0.50585560  0.00674386  1
  O  O406  1  0.12624653  0.50139055  0.50979929  1
  O  O407  1  0.63149442  0.00872909  0.00927775  1
  O  O408  1  0.62000693  0.00880271  0.50691244  1
  O  O409  1  0.60733847  0.49683622  0.01546509  1
  O  O410  1  0.62113901  0.51087306  0.50491148  1
  O  O411  1  0.36988522  0.36291133  0.11683120  1
  O  O412  1  0.38740281  0.36194756  0.60878549  1
  O  O413  1  0.38300382  0.86046901  0.11595226  1
  O  O414  1  0.36775207  0.86239004  0.61670793  1
  O  O415  1  0.86619550  0.35972377  0.13030511  1
  O  O416  1  0.86970295  0.36103385  0.63568242  1
  O  O417  1  0.86997746  0.86583325  0.12179146  1
  O  O418  1  0.88414790  0.85701429  0.63142622  1
  O  O419  1  0.12675241  0.14569700  0.35964404  1
  O  O420  1  0.12757800  0.12730209  0.87970892  1
  O  O421  1  0.12897667  0.62434484  0.38460108  1
  O  O422  1  0.11733939  0.63378574  0.88211785  1
  O  O423  1  0.63091040  0.12370733  0.38370806  1
  O  O424  1  0.63194532  0.12940499  0.88322908  1
  O  O425  1  0.62446956  0.63321402  0.38197014  1
  O  O426  1  0.62319440  0.63102856  0.88862526  1
