# generated using pymatgen
data_V85Zn86O256
_symmetry_space_group_name_H-M   'P 1'
_cell_length_a   16.98767809
_cell_length_b   16.99923299
_cell_length_c   16.97513446
_cell_angle_alpha   89.96646402
_cell_angle_beta   89.94539396
_cell_angle_gamma   89.88018326
_symmetry_Int_Tables_number   1
_chemical_formula_structural   V85Zn86O256
_chemical_formula_sum   'V85 Zn86 O256'
_cell_volume   4902.02307758
_cell_formula_units_Z   1
loop_
 _symmetry_equiv_pos_site_id
 _symmetry_equiv_pos_as_xyz
  1  'x, y, z'
loop_
 _atom_site_type_symbol
 _atom_site_label
 _atom_site_symmetry_multiplicity
 _atom_site_fract_x
 _atom_site_fract_y
 _atom_site_fract_z
 _atom_site_occupancy
  V  V0  1  0.25106422  0.12424613  0.37871950  1
  V  V1  1  0.49243221  0.74146568  0.74267989  1
  V  V2  1  0.49852440  0.37627913  0.87423146  1
  V  V3  1  0.25417021  0.02408714  0.75162273  1
  V  V4  1  0.02066162  0.75425681  0.24708966  1
  V  V5  1  0.00272847  0.75333221  0.75261567  1
  V  V6  1  0.12766750  0.12244572  -0.00426059  1
  V  V7  1  0.38705812  0.36772745  0.48897787  1
  V  V8  1  -0.00514071  0.11935354  0.12351680  1
  V  V9  1  -0.00269672  0.12636592  0.62567725  1
  V  V10  1  0.50775724  0.25271791  0.25477443  1
  V  V11  1  0.36915006  0.24919915  0.62145807  1
  V  V12  1  0.62535488  0.24996984  0.87798830  1
  V  V13  1  0.62773369  0.13145152  0.50304528  1
  V  V14  1  0.49305679  0.12396208  0.62747968  1
  V  V15  1  0.87596237  0.62329307  0.74873134  1
  V  V16  1  0.12522751  0.37911505  0.73813937  1
  V  V17  1  0.75135247  0.24967173  0.00046466  1
  V  V18  1  0.75168762  0.62768842  0.37537001  1
  V  V19  1  0.13007314  -0.00414148  0.13267823  1
  V  V20  1  0.87962830  0.87075430  0.00341228  1
  V  V21  1  0.50817302  0.11749787  0.11592626  1
  V  V22  1  -0.00058240  0.24876606  0.75093603  1
  V  V23  1  0.00262516  0.37547568  0.87534459  1
  V  V24  1  0.62041932  0.62638619  0.50544542  1
  V  V25  1  0.49478338  0.87851779  0.88120301  1
  V  V26  1  0.37856034  0.12065541  0.25215096  1
  V  V27  1  0.00529350  0.61580842  0.62255872  1
  V  V28  1  0.61842487  0.50121554  0.62746787  1
  V  V29  1  0.37921760  -0.00939701  0.37538599  1
  V  V30  1  0.50002239  -0.00710554  0.49871584  1
  V  V31  1  0.74628830  -0.00009036  0.24900710  1
  V  V32  1  0.37292252  0.01505762  0.87810247  1
  V  V33  1  0.62261927  0.87218694  0.74940445  1
  V  V34  1  0.87096648  0.36784156  0.49051781  1
  V  V35  1  0.01338748  0.87223926  0.87200789  1
  V  V36  1  0.12992979  0.62555535  0.48796826  1
  V  V37  1  0.74970269  0.87545041  0.62830249  1
  V  V38  1  0.24951492  0.24785204  -0.00404880  1
  V  V39  1  0.37770380  0.24837468  0.12460916  1
  V  V40  1  0.74764910  0.12728006  0.37878090  1
  V  V41  1  0.86478538  0.24962474  0.62319140  1
  V  V42  1  0.86687493  0.12398735  0.75442721  1
  V  V43  1  0.74865743  0.74981232  0.50144003  1
  V  V44  1  0.37784522  0.51109471  0.87132929  1
  V  V45  1  0.48988465  0.24928619  0.75082337  1
  V  V46  1  0.87341020  0.87361012  0.49850568  1
  V  V47  1  0.12605578  0.25034999  0.87753547  1
  V  V48  1  0.24575601  0.50271735  0.25724175  1
  V  V49  1  0.25145009  0.49938245  0.74604888  1
  V  V50  1  0.87426345  0.49970067  0.87384577  1
  V  V51  1  0.87719742  0.00175063  0.87724346  1
  V  V52  1  0.24898479  0.75585913  -0.00768596  1
  V  V53  1  0.69142658  0.08162324  0.93524104  1
  V  V54  1  0.50450263  0.49599548  0.49144058  1
  V  V55  1  0.87870457  0.12455423  0.24932425  1
  V  V56  1  0.87628199  -0.00594237  0.37437508  1
  V  V57  1  0.75581189  0.74604654  0.00220187  1
  V  V58  1  0.62416515  0.00032588  0.62693438  1
  V  V59  1  0.74828390  0.49788123  0.74840135  1
  V  V60  1  0.61368396  0.75491778  0.37758676  1
  V  V61  1  0.50241528  0.49851855  0.01045110  1
  V  V62  1  0.62596710  0.61982418  0.00848145  1
  V  V63  1  0.12865782  0.00236174  0.63219385  1
  V  V64  1  0.87476459  0.64055141  0.24300632  1
  V  V65  1  0.37811382  0.74772587  0.12552615  1
  V  V66  1  0.87582709  0.37221428  -0.00260093  1
  V  V67  1  0.18136753  0.82879902  0.69314947  1
  V  V68  1  0.12528120  0.12377243  0.49387009  1
  V  V69  1  0.12879614  0.62835900  -0.00762456  1
  V  V70  1  0.00080850  -0.00326920  0.50132565  1
  V  V71  1  0.62210321  0.74605400  0.87608468  1
  V  V72  1  0.73441631  0.37921549  0.12199405  1
  V  V73  1  0.21635642  0.27960013  0.47444579  1
  V  V74  1  0.91874671  0.29601083  0.17946932  1
  V  V75  1  0.75200552  0.86983970  0.12770661  1
  V  V76  1  0.01856848  0.87214146  0.37337888  1
  V  V77  1  0.88158157  0.50189484  0.37364051  1
  V  V78  1  0.24700101  0.37866137  0.13008768  1
  V  V79  1  0.61506775  0.87738403  0.25357159  1
  V  V80  1  0.74419360  0.50535934  0.24166487  1
  V  V81  1  0.00390070  0.50100457  -0.00079598  1
  V  V82  1  0.35954009  0.87207444  0.51524270  1
  V  V83  1  0.37342551  0.37693851  -0.00182362  1
  V  V84  1  0.87389666  0.74849507  0.62610280  1
  Zn  Zn85  1  0.25098656  0.37518469  0.62385637  1
  Zn  Zn86  1  0.37717061  0.88143950  0.00112439  1
  Zn  Zn87  1  0.61346042  0.38953969  0.25674736  1
  Zn  Zn88  1  0.22818494  -0.01019481  0.27198471  1
  Zn  Zn89  1  0.74695145  0.37185168  0.62176358  1
  Zn  Zn90  1  0.38105789  0.49984908  0.37340857  1
  Zn  Zn91  1  0.12479819  0.50257928  0.12701010  1
  Zn  Zn92  1  0.00557967  -0.00528210  -0.00099049  1
  Zn  Zn93  1  -0.00044557  0.49639985  0.49874224  1
  Zn  Zn94  1  0.00006512  0.63739789  0.11827995  1
  Zn  Zn95  1  0.62413512  0.37326365  0.74865297  1
  Zn  Zn96  1  0.24966683  0.87362141  0.13064696  1
  Zn  Zn97  1  0.74989447  0.62394655  0.87510569  1
  Zn  Zn98  1  0.62145166  0.25869247  0.38623499  1
  Zn  Zn99  1  0.24996558  0.63089014  0.86735322  1
  Zn  Zn100  1  0.25883477  0.63966562  0.37692822  1
  Zn  Zn101  1  0.37654780  0.63041265  0.70611514  1
  Zn  Zn102  1  0.38065018  0.62518086  0.26224957  1
  Zn  Zn103  1  0.62223790  -0.00177703  0.10953223  1
  Zn  Zn104  1  0.49717474  0.75005705  0.25459806  1
  Zn  Zn105  1  0.74535042  0.00167055  0.75605654  1
  Zn  Zn106  1  0.50234684  0.62250874  0.13128871  1
  Zn  Zn107  1  0.19881137  0.17372005  0.18250261  1
  Zn  Zn108  1  0.18488122  0.19590813  0.67917661  1
  Zn  Zn109  1  0.19374000  0.68071369  0.17965480  1
  Zn  Zn110  1  0.18792113  0.66874373  0.68216189  1
  Zn  Zn111  1  0.68850330  0.18715341  0.18356579  1
  Zn  Zn112  1  0.68271920  0.18614222  0.69350466  1
  Zn  Zn113  1  0.68563091  0.69212194  0.18882827  1
  Zn  Zn114  1  0.68568150  0.68442446  0.68904954  1
  Zn  Zn115  1  0.31398019  0.31244555  0.30823053  1
  Zn  Zn116  1  0.31187384  0.31368850  0.81364706  1
  Zn  Zn117  1  0.31110374  0.81548512  0.30821938  1
  Zn  Zn118  1  0.31897091  0.81406806  0.81330219  1
  Zn  Zn119  1  0.77522750  0.33005162  0.32898971  1
  Zn  Zn120  1  0.80989681  0.31197882  0.81400475  1
  Zn  Zn121  1  0.80684888  0.81293920  0.31524335  1
  Zn  Zn122  1  0.81413709  0.81267953  0.81521711  1
  Zn  Zn123  1  0.18655346  0.45054261  0.44452228  1
  Zn  Zn124  1  0.18920394  0.43803214  0.93398003  1
  Zn  Zn125  1  0.19467835  0.80586549  0.44947348  1
  Zn  Zn126  1  0.19355687  0.94121245  0.93493415  1
  Zn  Zn127  1  0.69293008  0.44215733  0.43720690  1
  Zn  Zn128  1  0.68549072  0.43663334  0.93520223  1
  Zn  Zn129  1  0.68578925  0.94001895  0.43814620  1
  Zn  Zn130  1  0.68983696  0.91898729  0.93514979  1
  Zn  Zn131  1  0.31280707  0.06501224  0.06177355  1
  Zn  Zn132  1  0.30967407  0.05972418  0.56062987  1
  Zn  Zn133  1  0.31316182  0.56520495  0.06245757  1
  Zn  Zn134  1  0.31063351  0.55137064  0.55841070  1
  Zn  Zn135  1  0.81674698  0.05363407  0.06723394  1
  Zn  Zn136  1  0.81065881  0.05957574  0.56425811  1
  Zn  Zn137  1  0.81621254  0.56337325  0.06343308  1
  Zn  Zn138  1  0.81144101  0.55972553  0.56230471  1
  Zn  Zn139  1  0.43016547  0.43574128  0.19031763  1
  Zn  Zn140  1  0.43723988  0.43622383  0.68435786  1
  Zn  Zn141  1  0.43210517  0.93674018  0.18428790  1
  Zn  Zn142  1  0.43486970  0.93757283  0.69413321  1
  Zn  Zn143  1  0.93052172  0.45793491  0.18347497  1
  Zn  Zn144  1  0.93512513  0.43186408  0.68517590  1
  Zn  Zn145  1  0.94237183  0.93459324  0.18877898  1
  Zn  Zn146  1  0.93680553  0.93784585  0.69035902  1
  Zn  Zn147  1  0.06816800  0.19570387  0.30502422  1
  Zn  Zn148  1  0.06158508  0.06188699  0.81344827  1
  Zn  Zn149  1  0.06300928  0.56505879  0.30897408  1
  Zn  Zn150  1  0.06562830  0.56294502  0.81233868  1
  Zn  Zn151  1  0.56138010  0.06536106  0.31320941  1
  Zn  Zn152  1  0.55224598  0.06050932  0.80729419  1
  Zn  Zn153  1  0.56276539  0.57087451  0.31650653  1
  Zn  Zn154  1  0.56094723  0.56467525  0.81527680  1
  Zn  Zn155  1  0.44082218  0.18359103  0.43757674  1
  Zn  Zn156  1  0.43802664  0.18839737  0.93900506  1
  Zn  Zn157  1  0.41000643  0.66756035  0.48678800  1
  Zn  Zn158  1  0.43933360  0.68914070  0.94265989  1
  Zn  Zn159  1  0.92914254  0.18152774  0.43917247  1
  Zn  Zn160  1  0.93817376  0.18674303  0.94034442  1
  Zn  Zn161  1  0.94077570  0.69032463  0.43415585  1
  Zn  Zn162  1  0.93910018  0.68693764  0.93344713  1
  Zn  Zn163  1  0.08968135  0.28472350  0.11582572  1
  Zn  Zn164  1  0.04613608  0.31186020  0.44838488  1
  Zn  Zn165  1  0.06678871  0.81230038  0.06372840  1
  Zn  Zn166  1  0.05589306  0.80689887  0.56224904  1
  Zn  Zn167  1  0.56172929  0.30743862  0.06252085  1
  Zn  Zn168  1  0.56180075  0.31337357  0.56845654  1
  Zn  Zn169  1  0.56428778  0.81246570  0.06353244  1
  Zn  Zn170  1  0.55888168  0.81240227  0.56295098  1
  O  O171  1  0.11406174  0.11578608  0.11239771  1
  O  O172  1  0.11381647  0.12005929  0.62314908  1
  O  O173  1  0.12117616  0.62151907  0.10939926  1
  O  O174  1  0.10842324  0.62268744  0.61776224  1
  O  O175  1  0.61247058  0.11995646  0.12722412  1
  O  O176  1  0.61881706  0.11933314  0.62129208  1
  O  O177  1  0.62427265  0.63226265  0.11167821  1
  O  O178  1  0.63014009  0.61543132  0.61650119  1
  O  O179  1  0.37582085  0.37380464  0.38717399  1
  O  O180  1  0.38161370  0.38304505  0.87993749  1
  O  O181  1  0.37433954  0.89015039  0.38291327  1
  O  O182  1  0.38197125  0.88414621  0.87846355  1
  O  O183  1  0.86457566  0.38306650  0.38397693  1
  O  O184  1  0.88138785  0.38270723  0.87589566  1
  O  O185  1  0.87094753  0.87959652  0.38356073  1
  O  O186  1  0.87752102  0.88398672  0.88502274  1
  O  O187  1  0.26454318  0.01680258  0.37836155  1
  O  O188  1  0.25933640  0.00320736  0.86168508  1
  O  O189  1  0.25058509  0.49816094  0.36203255  1
  O  O190  1  0.26209261  0.50010374  0.86424308  1
  O  O191  1  0.75507858  0.00566056  0.36674429  1
  O  O192  1  0.75348982  0.00644020  0.87988317  1
  O  O193  1  0.76064870  0.51140203  0.36626556  1
  O  O194  1  0.75570179  0.50063915  0.86722430  1
  O  O195  1  0.25371426  0.49366237  0.13386289  1
  O  O196  1  0.25596990  0.49289319  0.64053702  1
  O  O197  1  0.23537013  1.00556925  0.12282526  1
  O  O198  1  0.24165545  1.00768603  0.63959000  1
  O  O199  1  0.75388618  0.49296015  0.12963732  1
  O  O200  1  0.74065706  0.49947636  0.63400564  1
  O  O201  1  0.74562861  0.98937175  0.13251168  1
  O  O202  1  0.74212121  0.99211841  0.62928592  1
  O  O203  1  -0.02401630  0.35933469  0.22970468  1
  O  O204  1  0.00585084  0.37104778  0.75572235  1
  O  O205  1  0.00003210  0.86532340  0.26213226  1
  O  O206  1  -0.00608359  0.86489199  0.75865531  1
  O  O207  1  0.50055925  0.35853922  0.24372158  1
  O  O208  1  0.50065201  0.36574696  0.75576918  1
  O  O209  1  0.51312746  0.87456395  0.24476045  1
  O  O210  1  0.50428748  0.86602563  0.76060031  1
  O  O211  1  0.49630602  0.13425560  0.24190256  1
  O  O212  1  0.50049135  0.13372462  0.73528057  1
  O  O213  1  0.49859386  0.63073055  0.24723109  1
  O  O214  1  0.49676909  0.63786526  0.75355751  1
  O  O215  1  0.98417082  0.12688330  0.24160114  1
  O  O216  1  0.98884500  0.12634158  0.74457717  1
  O  O217  1  0.99269289  0.64181169  0.25067501  1
  O  O218  1  0.99861361  0.63073899  0.74082600  1
  O  O219  1  0.36847686  0.25580049  0.00298500  1
  O  O220  1  0.38458707  0.25966974  0.50506796  1
  O  O221  1  0.36585781  0.75215582  0.00623684  1
  O  O222  1  0.38407900  0.77732002  0.49600002  1
  O  O223  1  0.86309827  0.25964213  -0.01121040  1
  O  O224  1  0.87266058  0.25936423  0.50764135  1
  O  O225  1  0.86391871  0.75501168  -0.00694510  1
  O  O226  1  0.86918961  0.75426554  0.50597827  1
  O  O227  1  0.12330702  0.23294857  0.51209369  1
  O  O228  1  0.13297422  0.24274041  1.00286449  1
  O  O229  1  0.12211946  0.73391832  0.50648302  1
  O  O230  1  0.14085814  0.74485884  1.00426448  1
  O  O231  1  0.61927512  0.23594452  0.50323428  1
  O  O232  1  0.62957826  0.25046873  0.98644888  1
  O  O233  1  0.62837548  0.74412310  0.49815408  1
  O  O234  1  0.63502493  0.74527748  0.99284465  1
  O  O235  1  0.49572631  0.24068040  0.13263532  1
  O  O236  1  0.49312427  0.24364547  0.63356131  1
  O  O237  1  0.48860772  0.74861659  0.12097937  1
  O  O238  1  0.50897924  0.75301769  0.64534314  1
  O  O239  1  0.98219104  0.24078412  0.11694447  1
  O  O240  1  0.98391057  0.23370218  0.63358232  1
  O  O241  1  1.00186710  0.75618263  0.14252192  1
  O  O242  1  0.99229588  0.74185071  0.63616420  1
  O  O243  1  -0.00175746  0.24198820  0.37741724  1
  O  O244  1  0.00450676  0.25619768  0.86997158  1
  O  O245  1  -0.00249310  0.76414036  0.36402354  1
  O  O246  1  -0.00296612  0.75561896  0.86053820  1
  O  O247  1  0.50493088  0.24283032  0.35915128  1
  O  O248  1  0.50277291  0.25424960  0.86841630  1
  O  O249  1  0.51503999  0.75051070  0.37680117  1
  O  O250  1  0.50700330  0.75513627  0.87031153  1
  O  O251  1  0.23902658  0.12665093  0.49372430  1
  O  O252  1  0.24049082  0.13648251  1.00447467  1
  O  O253  1  0.23287351  0.61442042  0.49604712  1
  O  O254  1  0.24487172  0.63475308  0.99651984  1
  O  O255  1  0.73945157  0.11430867  0.49196817  1
  O  O256  1  0.75629924  0.13200102  1.00232913  1
  O  O257  1  0.74190176  0.63004059  0.49677998  1
  O  O258  1  0.74631888  0.63107779  0.99888317  1
  O  O259  1  0.25810356  0.37078376  0.00383224  1
  O  O260  1  0.26771606  0.37548469  0.50409029  1
  O  O261  1  0.25090691  0.86408042  0.00225806  1
  O  O262  1  0.25910597  0.88055728  0.50675843  1
  O  O263  1  0.75423783  0.37097138  0.00517299  1
  O  O264  1  0.76646592  0.38249059  0.50624900  1
  O  O265  1  0.75838348  0.86476304  0.00779335  1
  O  O266  1  0.75306363  0.87048786  0.50842916  1
  O  O267  1  0.13856631  0.50403279  0.24613771  1
  O  O268  1  0.13703291  0.49116124  0.75746703  1
  O  O269  1  0.12116687  1.00993239  0.23099800  1
  O  O270  1  0.13623968  1.00805593  0.74221535  1
  O  O271  1  0.64012346  0.50556237  0.25514673  1
  O  O272  1  0.63009549  0.50132276  0.74457302  1
  O  O273  1  0.63566036  0.99441645  0.25396747  1
  O  O274  1  0.62469767  0.99298906  0.74456725  1
  O  O275  1  0.38824846  0.01227355  0.26006749  1
  O  O276  1  0.35981341  0.00175516  0.75689625  1
  O  O277  1  0.36545583  0.50244650  0.25481631  1
  O  O278  1  0.37354417  0.50311476  0.75571657  1
  O  O279  1  0.86613395  0.00446907  0.25331065  1
  O  O280  1  0.86997556  0.00502485  0.76034616  1
  O  O281  1  0.86482301  0.51481127  0.25558337  1
  O  O282  1  0.86748822  0.50335121  0.75318991  1
  O  O283  1  0.14993266  0.34682144  0.41767726  1
  O  O284  1  0.11783828  0.36829925  0.87056657  1
  O  O285  1  0.11519630  0.87627067  0.38486507  1
  O  O286  1  0.11171507  0.88071929  0.87974693  1
  O  O287  1  0.65925024  0.36384137  0.36225756  1
  O  O288  1  0.61605766  0.36645599  0.87234805  1
  O  O289  1  0.63342942  0.86759786  0.36577199  1
  O  O290  1  0.61837774  0.86392616  0.86763231  1
  O  O291  1  0.38240586  0.12804016  0.13384259  1
  O  O292  1  0.38151784  0.13797901  0.61473919  1
  O  O293  1  0.37946803  0.63916470  0.12198183  1
  O  O294  1  0.38042285  0.62872839  0.59425637  1
  O  O295  1  0.88571761  0.11614623  0.13237018  1
  O  O296  1  0.87824831  0.12628740  0.63270934  1
  O  O297  1  0.88124952  0.62289607  0.13857150  1
  O  O298  1  0.88132079  0.63053386  0.62981805  1
  O  O299  1  0.26009785  0.25648028  0.11507120  1
  O  O300  1  0.25663544  0.25414047  0.60939948  1
  O  O301  1  0.26187986  0.75079041  0.11482478  1
  O  O302  1  0.23748522  0.76607805  0.64080464  1
  O  O303  1  0.74247141  0.25859244  0.10892332  1
  O  O304  1  0.76135514  0.24732310  0.63395178  1
  O  O305  1  0.74760640  0.76186644  0.11739058  1
  O  O306  1  0.75411209  0.75486749  0.62189830  1
  O  O307  1  0.26320596  0.23946007  0.38512498  1
  O  O308  1  0.24352622  0.25661115  0.88838881  1
  O  O309  1  0.25013833  0.75068135  0.37210010  1
  O  O310  1  0.25851960  0.74852752  0.88883288  1
  O  O311  1  0.75040562  0.22868780  0.37350659  1
  O  O312  1  0.73860565  0.25257037  0.88495405  1
  O  O313  1  0.74415389  0.74497808  0.38529869  1
  O  O314  1  0.74111174  0.74932195  0.88344421  1
  O  O315  1  0.00457903  0.12131145  0.00888245  1
  O  O316  1  0.00078929  0.11569114  0.50899037  1
  O  O317  1  0.00684765  0.62038128  -0.00217137  1
  O  O318  1  0.00020052  0.62675940  0.51214456  1
  O  O319  1  0.49709454  0.13040119  0.01777138  1
  O  O320  1  0.50747339  0.11778583  0.51148910  1
  O  O321  1  0.50955022  0.61527134  0.00116554  1
  O  O322  1  0.51649373  0.61369467  0.49743525  1
  O  O323  1  0.49484336  0.37799327  0.49975362  1
  O  O324  1  0.49516083  0.38008198  0.99509148  1
  O  O325  1  0.50268209  0.89155305  0.50452913  1
  O  O326  1  0.50377215  0.87326097  0.98473116  1
  O  O327  1  0.97669245  0.38118532  0.50486051  1
  O  O328  1  0.99222331  0.38594468  0.98911441  1
  O  O329  1  0.99376416  0.87538783  0.49135607  1
  O  O330  1  0.99283620  0.86973712  0.99231638  1
  O  O331  1  0.50880921  0.49600016  0.38792009  1
  O  O332  1  0.49432967  0.49415902  0.88117171  1
  O  O333  1  0.49185662  1.01055052  0.38799079  1
  O  O334  1  0.48245509  0.99257778  0.86559678  1
  O  O335  1  0.98500782  0.50302477  0.36880782  1
  O  O336  1  0.99441947  0.49717276  0.88108216  1
  O  O337  1  0.99099054  0.98105377  0.38192161  1
  O  O338  1  0.99212799  0.98998071  0.87520150  1
  O  O339  1  0.00788054  0.00504019  0.12152207  1
  O  O340  1  0.00399071  0.00830718  0.62570090  1
  O  O341  1  0.00135814  0.50329006  0.10842154  1
  O  O342  1  -0.00962889  0.51502461  0.62675136  1
  O  O343  1  0.50242690  0.01294571  0.12647747  1
  O  O344  1  0.50371185  0.00852628  0.62374258  1
  O  O345  1  0.49440463  0.49828157  0.11289487  1
  O  O346  1  0.51392377  0.49290917  0.61526045  1
  O  O347  1  0.25665725  0.38613955  0.24109185  1
  O  O348  1  0.24188825  0.38006057  0.75035855  1
  O  O349  1  0.26483278  0.89065237  0.24118229  1
  O  O350  1  0.24272770  0.88086313  0.75540583  1
  O  O351  1  0.75522751  0.38982357  0.23345625  1
  O  O352  1  0.74801660  0.38739860  0.74959945  1
  O  O353  1  0.74536247  0.88120459  0.24244341  1
  O  O354  1  0.74217586  0.87523857  0.74655747  1
  O  O355  1  0.26313902  0.11897596  0.25898877  1
  O  O356  1  0.24804262  0.12222570  0.74870653  1
  O  O357  1  0.25585559  0.61230867  0.25089315  1
  O  O358  1  0.26043082  0.61628687  0.74978292  1
  O  O359  1  0.75626037  0.11596344  0.25186352  1
  O  O360  1  0.76299505  0.12311117  0.75001360  1
  O  O361  1  0.75833231  0.62523308  0.25160981  1
  O  O362  1  0.75541464  0.61392411  0.75237351  1
  O  O363  1  0.37266551  0.12086862  0.36904893  1
  O  O364  1  0.38098242  0.11367267  0.87394903  1
  O  O365  1  0.37442046  0.61737414  0.38505138  1
  O  O366  1  0.37583161  0.61312993  0.88110038  1
  O  O367  1  0.86761286  0.11263591  0.36744387  1
  O  O368  1  0.88260760  0.11060086  0.86930107  1
  O  O369  1  0.87090788  0.62210103  0.36656576  1
  O  O370  1  0.87387597  0.61642064  0.86636106  1
  O  O371  1  0.14442009  0.38374907  0.11347890  1
  O  O372  1  0.12681028  0.37217644  0.63968012  1
  O  O373  1  0.12677379  0.89250925  0.11942628  1
  O  O374  1  0.11956754  0.88487757  0.62744325  1
  O  O375  1  0.63251597  0.37470941  0.12832191  1
  O  O376  1  0.62949820  0.38282452  0.62917053  1
  O  O377  1  0.63361042  0.87907289  0.13110198  1
  O  O378  1  0.62888463  0.88010593  0.63148314  1
  O  O379  1  0.12093992  0.24332466  0.21972486  1
  O  O380  1  0.11762472  0.25594739  0.75535268  1
  O  O381  1  0.11819606  0.74475310  0.24582588  1
  O  O382  1  0.12026139  0.75720034  0.74173830  1
  O  O383  1  0.61247635  0.24830362  0.24834155  1
  O  O384  1  0.61396559  0.24999099  0.76147370  1
  O  O385  1  0.62601751  0.76058388  0.25999786  1
  O  O386  1  0.61974966  0.75019230  0.76139490  1
  O  O387  1  0.38484502  0.24023553  0.24560812  1
  O  O388  1  0.38281351  0.25384689  0.74213106  1
  O  O389  1  0.37876691  0.74881570  0.23600815  1
  O  O390  1  0.38847452  0.74586124  0.75201904  1
  O  O391  1  0.86064549  0.24104529  0.24386013  1
  O  O392  1  0.87910744  0.24192522  0.74799807  1
  O  O393  1  0.87326777  0.74139412  0.25334817  1
  O  O394  1  0.88160722  0.74286725  0.74673454  1
  O  O395  1  0.38824772  0.48242245  0.49882889  1
  O  O396  1  0.38246218  0.49519397  0.99274163  1
  O  O397  1  0.38270800  0.99585382  0.49492728  1
  O  O398  1  0.36537361  1.00001543  0.98279310  1
  O  O399  1  0.87628481  0.49558317  0.48964344  1
  O  O400  1  0.88156301  0.49566184  0.99242880  1
  O  O401  1  0.88145667  0.99322797  0.49690562  1
  O  O402  1  0.87910378  0.99002432  0.99228520  1
  O  O403  1  0.12505314  0.00875007  0.00218612  1
  O  O404  1  0.11592818  0.01314132  0.51732422  1
  O  O405  1  0.11762466  0.50709045  -0.00350971  1
  O  O406  1  0.11271542  0.51670966  0.49899145  1
  O  O407  1  0.63976827  0.00850314  -0.00895224  1
  O  O408  1  0.61821395  0.00778840  0.50779287  1
  O  O409  1  0.61604946  0.50889327  -0.00646697  1
  O  O410  1  0.62345377  0.50517640  0.50695999  1
  O  O411  1  0.36777447  0.36787463  0.11690605  1
  O  O412  1  0.37787271  0.36201046  0.61554618  1
  O  O413  1  0.37658562  0.86388443  0.11711619  1
  O  O414  1  0.37703729  0.88483757  0.61413767  1
  O  O415  1  0.86731047  0.36820279  0.11903119  1
  O  O416  1  0.87060353  0.36341647  0.61918875  1
  O  O417  1  0.86904063  0.88109954  0.11159013  1
  O  O418  1  0.87047196  0.86872096  0.62016505  1
  O  O419  1  0.13663345  0.12752719  0.38298006  1
  O  O420  1  0.11534414  0.13347562  0.88821133  1
  O  O421  1  0.12150264  0.62735975  0.38653563  1
  O  O422  1  0.12956988  0.62325155  0.88641044  1
  O  O423  1  0.63171146  0.12426704  0.38570848  1
  O  O424  1  0.62229279  0.12986794  0.87153554  1
  O  O425  1  0.63412322  0.63512055  0.38440310  1
  O  O426  1  0.62657560  0.63393308  0.88521755  1
