# generated using pymatgen
data_V85Zn86O256
_symmetry_space_group_name_H-M   'P 1'
_cell_length_a   16.95991439
_cell_length_b   16.95726804
_cell_length_c   16.94949704
_cell_angle_alpha   90.01085429
_cell_angle_beta   89.97754398
_cell_angle_gamma   90.09335572
_symmetry_Int_Tables_number   1
_chemical_formula_structural   V85Zn86O256
_chemical_formula_sum   'V85 Zn86 O256'
_cell_volume   4874.56356951
_cell_formula_units_Z   1
loop_
 _symmetry_equiv_pos_site_id
 _symmetry_equiv_pos_as_xyz
  1  'x, y, z'
loop_
 _atom_site_type_symbol
 _atom_site_label
 _atom_site_symmetry_multiplicity
 _atom_site_fract_x
 _atom_site_fract_y
 _atom_site_fract_z
 _atom_site_occupancy
  V  V0  1  -0.01098818  0.00525225  0.00108619  1
  V  V1  1  0.62577023  0.13960665  -0.00049741  1
  V  V2  1  0.76358436  0.00962888  0.75199689  1
  V  V3  1  0.49987629  0.49540114  0.49354023  1
  V  V4  1  0.49642559  0.87872345  0.36532352  1
  V  V5  1  0.24871390  0.62468508  0.87265483  1
  V  V6  1  0.62523145  0.62493808  0.49859553  1
  V  V7  1  0.50011971  0.62475471  0.62555066  1
  V  V8  1  0.00962485  0.25140601  0.74581039  1
  V  V9  1  0.12291641  -0.00055733  0.62295814  1
  V  V10  1  0.12692397  0.62102277  0.49292449  1
  V  V11  1  0.75773827  0.37905042  0.12994585  1
  V  V12  1  -0.00697249  0.88425000  0.86773009  1
  V  V13  1  0.76987143  0.26028351  0.00251226  1
  V  V14  1  -0.05652245  0.20416414  0.19126439  1
  V  V15  1  0.12502937  0.12662132  0.00569253  1
  V  V16  1  0.74724833  0.87372556  0.63462985  1
  V  V17  1  -0.01037373  0.49181148  0.50228158  1
  V  V18  1  0.75168429  0.61717256  0.36915332  1
  V  V19  1  0.49732013  0.24638706  0.75374241  1
  V  V20  1  0.37408946  0.74765452  0.62526675  1
  V  V21  1  0.88862947  0.87726066  0.49731776  1
  V  V22  1  0.36073836  0.00629377  0.37717461  1
  V  V23  1  0.62181520  0.61675199  -0.00422976  1
  V  V24  1  0.37645806  0.49978111  0.87699945  1
  V  V25  1  0.68484684  0.93009249  0.29793097  1
  V  V26  1  0.50175137  0.75492951  0.74969069  1
  V  V27  1  0.50836153  0.88144161  0.87411054  1
  V  V28  1  0.25129101  0.75648582  -0.00333779  1
  V  V29  1  0.37500258  0.87317032  0.49969181  1
  V  V30  1  0.62626940  0.49861653  0.12681534  1
  V  V31  1  0.50363370  0.75073599  0.24818495  1
  V  V32  1  0.49339891  0.13253931  0.12949775  1
  V  V33  1  0.37843177  0.74964362  0.12030330  1
  V  V34  1  0.49608228  0.12217135  0.63219157  1
  V  V35  1  0.50678303  0.00309155  0.01348664  1
  V  V36  1  0.37447970  0.62390620  0.25633829  1
  V  V37  1  0.37768270  0.37722145  0.00372856  1
  V  V38  1  0.00043154  0.62193522  0.62333535  1
  V  V39  1  0.87502732  0.24510836  0.62476215  1
  V  V40  1  0.87281397  0.74707076  0.12357462  1
  V  V41  1  0.50200801  0.37988393  0.87980875  1
  V  V42  1  0.24679285  0.37154951  0.63171709  1
  V  V43  1  0.12097370  0.50194556  0.12835818  1
  V  V44  1  0.12627285  0.24836093  0.36992411  1
  V  V45  1  0.11686389  0.62802898  -0.00176566  1
  V  V46  1  0.75192567  0.62160282  0.87511666  1
  V  V47  1  0.74012679  0.87151994  0.11972635  1
  V  V48  1  0.37507798  0.87997166  -0.00149204  1
  V  V49  1  0.87631850  0.74805073  0.62570815  1
  V  V50  1  -0.01009136  0.36678756  0.37546065  1
  V  V51  1  0.37782074  0.37044718  0.49622476  1
  V  V52  1  0.49985068  -0.00153160  0.50211876  1
  V  V53  1  0.87200922  0.61480461  0.24268654  1
  V  V54  1  0.24890182  0.74302484  0.49061007  1
  V  V55  1  0.25443901  0.12759056  0.87165640  1
  V  V56  1  0.66394506  0.03488851  0.14600714  1
  V  V57  1  0.37530029  0.24645705  0.62781931  1
  V  V58  1  0.35958576  0.12597893  0.25439239  1
  V  V59  1  0.25957752  0.00357363  0.74950294  1
  V  V60  1  0.62797839  0.74973865  0.36961170  1
  V  V61  1  0.75104228  0.74804346  0.50011078  1
  V  V62  1  0.62431485  -0.00400544  0.63863916  1
  V  V63  1  0.62765918  0.75168924  0.87140166  1
  V  V64  1  0.62599014  0.12550602  0.49431976  1
  V  V65  1  0.01017702  0.87126341  0.35575587  1
  V  V66  1  0.62321643  0.49826004  0.62474829  1
  V  V67  1  0.49862090  0.61891577  0.11851977  1
  V  V68  1  0.87433158  0.48283702  0.87623400  1
  V  V69  1  0.62616518  0.37428598  0.74828799  1
  V  V70  1  0.24960363  0.87232442  0.62620034  1
  V  V71  1  0.36450668  0.50147024  0.37920662  1
  V  V72  1  0.61753616  0.37925856  0.25827109  1
  V  V73  1  0.01494946  0.37595445  0.86891741  1
  V  V74  1  0.75681212  0.37322689  0.62349244  1
  V  V75  1  -0.00118873  0.12108365  0.62585849  1
  V  V76  1  0.13342866  -0.01890588  0.11923666  1
  V  V77  1  0.12391459  0.49432835  0.63098667  1
  V  V78  1  0.87592523  0.62157359  0.75296304  1
  V  V79  1  0.24976508  0.24273002  0.49711315  1
  V  V80  1  0.12403204  0.11951658  0.49111757  1
  V  V81  1  -0.00447104  0.49492538  0.00208269  1
  V  V82  1  0.04289673  0.68707291  0.18478248  1
  V  V83  1  0.75340780  0.24996588  0.49236398  1
  V  V84  1  0.24725044  0.37587474  0.12809797  1
  Zn  Zn85  1  0.75138743  0.74878969  -0.00336346  1
  Zn  Zn86  1  0.24747568  0.25226827  -0.00043835  1
  Zn  Zn87  1  0.12318174  0.75381258  0.87011450  1
  Zn  Zn88  1  0.76675479  0.10728010  0.89436963  1
  Zn  Zn89  1  0.12302073  0.37262109  0.25135450  1
  Zn  Zn90  1  0.37408378  0.62258632  0.75022456  1
  Zn  Zn91  1  0.24541589  0.50314836  0.25691814  1
  Zn  Zn92  1  0.38387548  0.01036827  0.87276407  1
  Zn  Zn93  1  0.62011793  0.25175450  0.37737011  1
  Zn  Zn94  1  0.00319867  0.75092799  0.75150438  1
  Zn  Zn95  1  0.63154131  0.25084968  0.87397820  1
  Zn  Zn96  1  0.86936025  0.87997997  -0.00450698  1
  Zn  Zn97  1  0.12250047  0.74504362  0.36133184  1
  Zn  Zn98  1  0.24608226  0.49358900  0.75359814  1
  Zn  Zn99  1  0.22734601  -0.01201161  0.25675698  1
  Zn  Zn100  1  0.87127879  0.49419303  0.37345692  1
  Zn  Zn101  1  0.12819762  0.25077124  0.87065215  1
  Zn  Zn102  1  0.74926045  0.49627515  0.75071663  1
  Zn  Zn103  1  0.49093758  0.25609761  0.26603634  1
  Zn  Zn104  1  -0.11946010  0.00586616  0.36317592  1
  Zn  Zn105  1  0.12721107  0.87349076  0.75115823  1
  Zn  Zn106  1  0.36949866  0.25256672  0.12959593  1
  Zn  Zn107  1  0.18455818  0.18407655  0.18630239  1
  Zn  Zn108  1  0.18753045  0.18316391  0.68672640  1
  Zn  Zn109  1  0.20599284  0.68639171  0.18071789  1
  Zn  Zn110  1  0.18567106  0.68574321  0.68619381  1
  Zn  Zn111  1  0.68961099  0.20502946  0.18937540  1
  Zn  Zn112  1  0.68508690  0.18600581  0.68373067  1
  Zn  Zn113  1  0.68833290  0.68593922  0.18688549  1
  Zn  Zn114  1  0.68834794  0.68593767  0.69014715  1
  Zn  Zn115  1  0.30966972  0.31441864  0.31461036  1
  Zn  Zn116  1  0.31436738  0.31021161  0.81374651  1
  Zn  Zn117  1  0.30859591  0.81172364  0.31290827  1
  Zn  Zn118  1  0.31699955  0.81575165  0.81389476  1
  Zn  Zn119  1  0.80845172  0.31145347  0.30748754  1
  Zn  Zn120  1  0.83475630  0.27106286  0.82942764  1
  Zn  Zn121  1  0.82647335  0.80043708  0.31237725  1
  Zn  Zn122  1  0.81453290  0.81309609  0.81148068  1
  Zn  Zn123  1  0.18428384  0.43070616  0.44505357  1
  Zn  Zn124  1  0.18907444  0.44110300  0.94339775  1
  Zn  Zn125  1  0.18046230  0.93070450  0.43978880  1
  Zn  Zn126  1  0.18502640  0.94108003  0.93176124  1
  Zn  Zn127  1  0.69020727  0.43610818  0.44113121  1
  Zn  Zn128  1  0.68891833  0.43395825  0.93987581  1
  Zn  Zn129  1  0.69411704  0.94022721  0.46383435  1
  Zn  Zn130  1  0.68636641  0.94303669  0.94222139  1
  Zn  Zn131  1  0.31090070  0.06246032  0.06098150  1
  Zn  Zn132  1  0.31191972  0.06226196  0.56358902  1
  Zn  Zn133  1  0.30946988  0.56190917  0.05931150  1
  Zn  Zn134  1  0.31074317  0.56064805  0.56468262  1
  Zn  Zn135  1  0.83246171  0.07207533  0.18176784  1
  Zn  Zn136  1  0.83487860  0.08359921  0.52202055  1
  Zn  Zn137  1  0.81066696  0.55956879  0.06022208  1
  Zn  Zn138  1  0.81001511  0.56103003  0.56308012  1
  Zn  Zn139  1  0.43863887  0.44108431  0.18923166  1
  Zn  Zn140  1  0.43556454  0.43569606  0.68829335  1
  Zn  Zn141  1  0.38762058  0.92150628  0.20285873  1
  Zn  Zn142  1  0.43675214  0.93447372  0.68996029  1
  Zn  Zn143  1  0.94393763  0.43023826  0.19034345  1
  Zn  Zn144  1  0.93702991  0.43292476  0.69153089  1
  Zn  Zn145  1  0.93929426  0.92695895  0.17776565  1
  Zn  Zn146  1  0.93635908  0.93926863  0.68383953  1
  Zn  Zn147  1  0.02068374  0.04370907  0.27683960  1
  Zn  Zn148  1  0.06739084  0.06343731  0.80960331  1
  Zn  Zn149  1  0.05985685  0.55322840  0.31840797  1
  Zn  Zn150  1  0.06127197  0.56285946  0.81276168  1
  Zn  Zn151  1  0.55098261  0.06859735  0.31364736  1
  Zn  Zn152  1  0.57042549  0.06710732  0.81756447  1
  Zn  Zn153  1  0.56013468  0.56050089  0.31142464  1
  Zn  Zn154  1  0.56021320  0.56200071  0.81068164  1
  Zn  Zn155  1  0.44013906  0.18502178  0.43766998  1
  Zn  Zn156  1  0.43640026  0.19290794  0.94005275  1
  Zn  Zn157  1  0.43966252  0.68737151  0.43662596  1
  Zn  Zn158  1  0.43898370  0.68759724  0.93473352  1
  Zn  Zn159  1  0.93994998  0.18459854  0.43369186  1
  Zn  Zn160  1  0.93973162  0.18580791  0.93935117  1
  Zn  Zn161  1  0.94053594  0.68656008  0.43415379  1
  Zn  Zn162  1  0.93815233  0.69058234  0.93561109  1
  Zn  Zn163  1  0.05952206  0.31293567  0.06115037  1
  Zn  Zn164  1  0.06297983  0.31029613  0.55872594  1
  Zn  Zn165  1  0.06043795  0.81849079  0.04733884  1
  Zn  Zn166  1  0.06562428  0.80743490  0.56397122  1
  Zn  Zn167  1  0.55755914  0.31689293  0.06781120  1
  Zn  Zn168  1  0.56201570  0.31004458  0.56130164  1
  Zn  Zn169  1  0.56461061  0.80982448  0.05884425  1
  Zn  Zn170  1  0.56364821  0.81313457  0.56018799  1
  O  O171  1  0.12697081  0.12183645  0.10783873  1
  O  O172  1  0.12156634  0.11583452  0.61805573  1
  O  O173  1  0.11607808  0.62527391  0.12094818  1
  O  O174  1  0.11819496  0.61586831  0.61698985  1
  O  O175  1  0.61286621  0.13208989  0.11925839  1
  O  O176  1  0.61171104  0.11634812  0.62161655  1
  O  O177  1  0.61947356  0.61930663  0.11671683  1
  O  O178  1  0.62075793  0.61944984  0.61935279  1
  O  O179  1  0.37139166  0.38217941  0.38997901  1
  O  O180  1  0.38057309  0.38136241  0.88158973  1
  O  O181  1  0.38255625  0.88049105  0.38336269  1
  O  O182  1  0.39223620  0.87712911  0.88354796  1
  O  O183  1  0.88574584  0.37314541  0.37221967  1
  O  O184  1  0.88581288  0.38186664  0.86774227  1
  O  O185  1  0.88308926  0.87090583  0.38620797  1
  O  O186  1  0.88787976  0.87315580  0.87607740  1
  O  O187  1  0.25811600  -0.00695675  0.37652232  1
  O  O188  1  0.25430568  0.00727036  0.86546612  1
  O  O189  1  0.26090313  0.49591199  0.38063960  1
  O  O190  1  0.25550077  0.50714208  0.87358256  1
  O  O191  1  0.74227840  -0.01894308  0.36363554  1
  O  O192  1  0.74469334  -0.00203987  0.85836292  1
  O  O193  1  0.75362548  0.51315575  0.38413602  1
  O  O194  1  0.75906201  0.50169124  0.87440306  1
  O  O195  1  0.23572090  0.49818612  0.12389550  1
  O  O196  1  0.24222470  0.48985574  0.62659307  1
  O  O197  1  0.23537792  0.99887618  0.11979221  1
  O  O198  1  0.24777264  0.99232922  0.63084982  1
  O  O199  1  0.73481510  0.49322969  0.12011999  1
  O  O200  1  0.74176850  0.49097929  0.62502610  1
  O  O201  1  0.75401460  0.98757832  0.11953130  1
  O  O202  1  0.74018325  0.98970965  0.63683909  1
  O  O203  1  0.00619622  0.38058935  0.27248387  1
  O  O204  1  0.00328159  0.36806691  0.75739734  1
  O  O205  1  -0.00189556  0.86412449  0.25717478  1
  O  O206  1  -0.00012596  0.87724200  0.75839351  1
  O  O207  1  0.51246496  0.37403051  0.24509231  1
  O  O208  1  0.50852281  0.36916628  0.75463503  1
  O  O209  1  0.48755081  0.86977374  0.26077704  1
  O  O210  1  0.49938592  0.86358260  0.75796218  1
  O  O211  1  0.49056851  0.13226000  0.24186082  1
  O  O212  1  0.50527501  0.13401712  0.74601310  1
  O  O213  1  0.49180040  0.62904154  0.24178851  1
  O  O214  1  0.49843151  0.63676241  0.74447710  1
  O  O215  1  1.01115388  0.15139611  0.24746062  1
  O  O216  1  1.00717926  0.13302725  0.73560437  1
  O  O217  1  0.99314415  0.62247936  0.25053169  1
  O  O218  1  0.98816400  0.62404019  0.74435044  1
  O  O219  1  0.37092901  0.26672818  0.00271905  1
  O  O220  1  0.36918214  0.25423681  0.50646936  1
  O  O221  1  0.37097047  0.75737398  -0.00135990  1
  O  O222  1  0.36861684  0.75210434  0.50378491  1
  O  O223  1  0.86789404  0.26076908  0.00184137  1
  O  O224  1  0.86463930  0.25085068  0.51238355  1
  O  O225  1  0.87207342  0.74655020  0.01094631  1
  O  O226  1  0.87109597  0.75209515  0.51048689  1
  O  O227  1  0.13440255  0.24225264  0.49549406  1
  O  O228  1  0.12216080  0.23839567  0.99641903  1
  O  O229  1  0.13472875  0.73765861  0.50325024  1
  O  O230  1  0.13378296  0.74340416  0.99565703  1
  O  O231  1  0.63104713  0.24086644  0.50281437  1
  O  O232  1  0.61615957  0.24493718  0.99910838  1
  O  O233  1  0.63039460  0.74489784  0.49118485  1
  O  O234  1  0.62461648  0.73799114  0.98606148  1
  O  O235  1  0.49081929  0.24105986  0.12635913  1
  O  O236  1  0.49648886  0.24049762  0.63266315  1
  O  O237  1  0.49850745  0.73965717  0.12834239  1
  O  O238  1  0.49697817  0.74716403  0.63156785  1
  O  O239  1  0.98902238  0.28319232  0.14235610  1
  O  O240  1  0.99544078  0.24583131  0.62752714  1
  O  O241  1  0.99397225  0.75056253  0.11660947  1
  O  O242  1  0.99126522  0.74078761  0.62667349  1
  O  O243  1  0.00893304  0.26160390  0.38687344  1
  O  O244  1  0.00493935  0.25992728  0.86507242  1
  O  O245  1  0.00473195  0.76432544  0.38218134  1
  O  O246  1  0.00131717  0.76445446  0.87307039  1
  O  O247  1  0.50614420  0.25096088  0.37950191  1
  O  O248  1  0.50097148  0.26183806  0.86837042  1
  O  O249  1  0.50780413  0.75950710  0.37108103  1
  O  O250  1  0.50696010  0.75668733  0.86751854  1
  O  O251  1  0.24182567  0.13512440  0.50817822  1
  O  O252  1  0.23953193  0.12753792  0.99349942  1
  O  O253  1  0.24090520  0.63177743  0.50651038  1
  O  O254  1  0.24099232  0.63051992  0.98961209  1
  O  O255  1  0.73415939  0.13865766  0.51669744  1
  O  O256  1  0.74138036  0.15260593  1.00384646  1
  O  O257  1  0.74384107  0.63042932  0.49499054  1
  O  O258  1  0.74013785  0.62565041  0.99102041  1
  O  O259  1  0.25612677  0.37664696  0.01197028  1
  O  O260  1  0.25788508  0.36510189  0.51164285  1
  O  O261  1  0.26289566  0.86827778  -0.01430942  1
  O  O262  1  0.25499333  0.86406093  0.50682148  1
  O  O263  1  0.74316375  0.37118813  0.01806189  1
  O  O264  1  0.74025193  0.36376573  0.51382898  1
  O  O265  1  0.75101035  0.87052652  0.00464902  1
  O  O266  1  0.76075851  0.86353897  0.51257657  1
  O  O267  1  0.12687648  0.50015027  0.24246339  1
  O  O268  1  0.12563640  0.50513097  0.73527173  1
  O  O269  1  0.11653519  1.00073582  0.22318722  1
  O  O270  1  0.13841463  0.99811048  0.73796780  1
  O  O271  1  0.61982588  0.49227418  0.24024028  1
  O  O272  1  0.62432971  0.49318108  0.74188862  1
  O  O273  1  0.61887593  0.99319538  0.24447552  1
  O  O274  1  0.62319355  0.99810669  0.74057712  1
  O  O275  1  0.38630421  0.01529861  0.26692854  1
  O  O276  1  0.36495913  -0.00315935  0.75301532  1
  O  O277  1  0.37672745  0.50529314  0.26371664  1
  O  O278  1  0.37176511  0.50050854  0.76246096  1
  O  O279  1  0.90062700  0.00856604  0.24775041  1
  O  O280  1  0.86194967  0.00232432  0.74504494  1
  O  O281  1  0.88138863  0.51145235  0.25275005  1
  O  O282  1  0.87271546  0.50548747  0.75820348  1
  O  O283  1  0.11748852  0.36512942  0.37762326  1
  O  O284  1  0.11846277  0.37734364  0.87687479  1
  O  O285  1  0.11605277  0.86685161  0.37110200  1
  O  O286  1  0.11181241  0.87457347  0.87217545  1
  O  O287  1  0.62779837  0.38469220  0.36005348  1
  O  O288  1  0.61578854  0.37881643  0.86652800  1
  O  O289  1  0.62357868  0.87570036  0.36802097  1
  O  O290  1  0.61567516  0.86661732  0.88238224  1
  O  O291  1  0.37753884  0.12635239  0.13378862  1
  O  O292  1  0.38858665  0.12880130  0.62169811  1
  O  O293  1  0.38293491  0.62726891  0.12678924  1
  O  O294  1  0.38195155  0.62980319  0.62680088  1
  O  O295  1  0.90117147  0.14023781  0.12336071  1
  O  O296  1  0.88685772  0.13192662  0.61640405  1
  O  O297  1  0.86860993  0.62896542  0.13129576  1
  O  O298  1  0.87801582  0.62882188  0.63163209  1
  O  O299  1  0.24891261  0.26173572  0.12284808  1
  O  O300  1  0.25594650  0.25329927  0.62008853  1
  O  O301  1  0.26296033  0.74646480  0.10452062  1
  O  O302  1  0.25697098  0.75335060  0.61868984  1
  O  O303  1  0.74705736  0.26939295  0.11492036  1
  O  O304  1  0.75667577  0.25596769  0.62360985  1
  O  O305  1  0.75515009  0.75458202  0.12161410  1
  O  O306  1  0.75616265  0.75366393  0.62290587  1
  O  O307  1  0.24295622  0.25618897  0.38996614  1
  O  O308  1  0.24676106  0.24406558  0.87662239  1
  O  O309  1  0.24581195  0.75053807  0.38648367  1
  O  O310  1  0.25215078  0.74269771  0.88201337  1
  O  O311  1  0.74239895  0.25797913  0.38955282  1
  O  O312  1  0.74345236  0.27900877  0.89910798  1
  O  O313  1  0.74628011  0.74131050  0.37937301  1
  O  O314  1  0.74296550  0.74273565  0.87234097  1
  O  O315  1  0.01377251  0.11284975  -0.01322028  1
  O  O316  1  0.01432547  0.13065984  0.51512131  1
  O  O317  1  0.01216253  0.61544994  -0.00975117  1
  O  O318  1  0.00603347  0.61562356  0.50601457  1
  O  O319  1  0.50546868  0.12180013  0.00443969  1
  O  O320  1  0.50591803  0.11615002  0.51121794  1
  O  O321  1  0.50754173  0.62923304  0.00737719  1
  O  O322  1  0.50663029  0.61928780  0.50623675  1
  O  O323  1  0.49018866  0.38419960  0.50903016  1
  O  O324  1  0.49151216  0.37569466  0.99125758  1
  O  O325  1  0.49568903  0.87892533  0.49008501  1
  O  O326  1  0.50108779  0.88576407  0.99386764  1
  O  O327  1  1.00249546  0.38242064  0.49094979  1
  O  O328  1  1.00608286  0.38955469  0.98848667  1
  O  O329  1  0.98933930  0.86901855  0.50324945  1
  O  O330  1  0.99468645  0.88812097  0.98540465  1
  O  O331  1  0.49126806  0.50429064  0.38994620  1
  O  O332  1  0.49155717  0.48881952  0.86966011  1
  O  O333  1  0.49472371  0.99239951  0.38329244  1
  O  O334  1  0.50532745  0.99543861  0.88429201  1
  O  O335  1  0.99646402  0.48677312  0.38712344  1
  O  O336  1  0.99473568  0.49310283  0.87890448  1
  O  O337  1  1.00004510  0.97682873  0.37164830  1
  O  O338  1  1.00509838  0.99109045  0.87975741  1
  O  O339  1  0.01008453  -0.01013239  0.10389008  1
  O  O340  1  0.01187125  0.00670389  0.62933284  1
  O  O341  1  0.01128182  0.49334199  0.11634189  1
  O  O342  1  0.00465922  0.49988255  0.61994543  1
  O  O343  1  0.50020091  0.01510135  0.11559444  1
  O  O344  1  0.50346080  0.00277061  0.62332321  1
  O  O345  1  0.50791775  0.51252395  0.12615546  1
  O  O346  1  0.50287648  0.50570251  0.61799870  1
  O  O347  1  0.25072329  0.38276600  0.23880577  1
  O  O348  1  0.25548470  0.37318150  0.73604512  1
  O  O349  1  0.28214103  0.88923997  0.23997663  1
  O  O350  1  0.25190861  0.88097720  0.74281084  1
  O  O351  1  0.73585047  0.37367747  0.23791788  1
  O  O352  1  0.73383857  0.37427986  0.74151212  1
  O  O353  1  0.74959306  0.86927773  0.24601684  1
  O  O354  1  0.75423061  0.87986651  0.73903892  1
  O  O355  1  0.25791198  0.11309591  0.24577121  1
  O  O356  1  0.24954387  0.11668051  0.75742411  1
  O  O357  1  0.26924194  0.61967297  0.24649525  1
  O  O358  1  0.25148039  0.62400659  0.76310280  1
  O  O359  1  0.72593177  0.10068412  0.21221661  1
  O  O360  1  0.74377224  0.10946476  0.74579727  1
  O  O361  1  0.75760410  0.62661070  0.25869881  1
  O  O362  1  0.76087040  0.62003765  0.75443276  1
  O  O363  1  0.37320551  0.11628996  0.37133803  1
  O  O364  1  0.36064942  0.12630791  0.88421709  1
  O  O365  1  0.38113177  0.61572400  0.36794828  1
  O  O366  1  0.36817767  0.61659137  0.87620694  1
  O  O367  1  0.86675313  0.10590439  0.41304975  1
  O  O368  1  0.85877443  0.16309088  0.86738468  1
  O  O369  1  0.86696355  0.62587067  0.36620600  1
  O  O370  1  0.87230462  0.61812179  0.86691114  1
  O  O371  1  0.13207783  0.38470418  0.12652944  1
  O  O372  1  0.13483970  0.38201462  0.61720377  1
  O  O373  1  0.13017224  0.88201757  0.11227366  1
  O  O374  1  0.13256909  0.88161279  0.62454615  1
  O  O375  1  0.62606459  0.38457711  0.13280345  1
  O  O376  1  0.62738809  0.37944743  0.63178863  1
  O  O377  1  0.63803061  0.87230084  0.12287661  1
  O  O378  1  0.63545132  0.88261440  0.61806209  1
  O  O379  1  0.14023506  0.25192804  0.26758560  1
  O  O380  1  0.11450891  0.24919594  0.74706784  1
  O  O381  1  0.12065347  0.73173859  0.24203867  1
  O  O382  1  0.12160913  0.75335797  0.75041274  1
  O  O383  1  0.62046756  0.26652243  0.25492437  1
  O  O384  1  0.61560626  0.25705164  0.75114129  1
  O  O385  1  0.61533328  0.74406897  0.25647266  1
  O  O386  1  0.61823988  0.74443585  0.76279793  1
  O  O387  1  0.37160863  0.24134228  0.25158351  1
  O  O388  1  0.38990644  0.25623628  0.74347750  1
  O  O389  1  0.38311091  0.74078163  0.24476528  1
  O  O390  1  0.38449211  0.74791431  0.74471326  1
  O  O391  1  0.86511568  0.23277187  0.25192498  1
  O  O392  1  0.89070752  0.25703105  0.73091222  1
  O  O393  1  0.87867346  0.73610697  0.23353150  1
  O  O394  1  0.87552256  0.74098825  0.73934604  1
  O  O395  1  0.38022439  0.49322482  0.49710171  1
  O  O396  1  0.36963263  0.49120861  0.98728141  1
  O  O397  1  0.37921054  0.99436160  0.49460038  1
  O  O398  1  0.38608463  0.99454987  0.99801524  1
  O  O399  1  0.88688208  0.50394518  0.49982944  1
  O  O400  1  0.88565307  0.50617659  0.98913524  1
  O  O401  1  0.87076408  0.97499515  0.50698390  1
  O  O402  1  0.89087726  1.00536507  0.99895523  1
  O  O403  1  0.12150840  0.00864139  0.00431109  1
  O  O404  1  0.13424899  0.00669564  0.51244255  1
  O  O405  1  0.11955391  0.51117134  0.00796080  1
  O  O406  1  0.11791445  0.50482284  0.50981452  1
  O  O407  1  0.62568996  0.01824277  0.01549802  1
  O  O408  1  0.61942959  0.00722796  0.51384451  1
  O  O409  1  0.62448802  0.51096135  0.00481837  1
  O  O410  1  0.61644615  0.50341272  0.50510883  1
  O  O411  1  0.36826118  0.38130978  0.11861336  1
  O  O412  1  0.36951134  0.36859499  0.61581695  1
  O  O413  1  0.38983663  0.86464923  0.10437487  1
  O  O414  1  0.37109895  0.86743205  0.61816767  1
  O  O415  1  0.85558904  0.39080626  0.13123739  1
  O  O416  1  0.86069237  0.37228856  0.62807829  1
  O  O417  1  0.86341159  0.86322072  0.11993828  1
  O  O418  1  0.87115855  0.86350573  0.62013690  1
  O  O419  1  0.12028765  0.13205771  0.38985832  1
  O  O420  1  0.13793755  0.12434148  0.88219704  1
  O  O421  1  0.11970731  0.62410572  0.38914531  1
  O  O422  1  0.13218824  0.62630159  0.88140717  1
  O  O423  1  0.62124786  0.11993655  0.39106482  1
  O  O424  1  0.63619728  0.13093250  0.88657886  1
  O  O425  1  0.63156936  0.62779420  0.37881982  1
  O  O426  1  0.62877435  0.62783058  0.87902431  1
