# generated using pymatgen
data_V85Zn86O256
_symmetry_space_group_name_H-M   'P 1'
_cell_length_a   16.93163698
_cell_length_b   16.93632789
_cell_length_c   16.92571050
_cell_angle_alpha   90.04121955
_cell_angle_beta   90.02991069
_cell_angle_gamma   90.02813569
_symmetry_Int_Tables_number   1
_chemical_formula_structural   V85Zn86O256
_chemical_formula_sum   'V85 Zn86 O256'
_cell_volume   4853.61010450
_cell_formula_units_Z   1
loop_
 _symmetry_equiv_pos_site_id
 _symmetry_equiv_pos_as_xyz
  1  'x, y, z'
loop_
 _atom_site_type_symbol
 _atom_site_label
 _atom_site_symmetry_multiplicity
 _atom_site_fract_x
 _atom_site_fract_y
 _atom_site_fract_z
 _atom_site_occupancy
  V  V0  1  0.87073246  0.74991479  0.62456945  1
  V  V1  1  0.37389672  0.62331439  0.25299824  1
  V  V2  1  0.01082077  0.62317091  0.12053525  1
  V  V3  1  0.89459523  0.87337023  0.49574971  1
  V  V4  1  0.75094187  0.63156507  0.37793153  1
  V  V5  1  0.75197696  0.37427925  0.11992964  1
  V  V6  1  0.62933320  0.62449802  0.50764480  1
  V  V7  1  0.62121039  0.36964677  0.25801460  1
  V  V8  1  0.75191957  0.62621097  0.88157578  1
  V  V9  1  0.00121457  0.62670008  0.62996633  1
  V  V10  1  0.37508859  0.12465746  0.75103353  1
  V  V11  1  0.62297903  0.00311234  0.61837694  1
  V  V12  1  0.24698938  0.74984096  0.49345930  1
  V  V13  1  0.12738345  0.12864190  -0.00599312  1
  V  V14  1  0.62581148  0.62715775  0.00233584  1
  V  V15  1  0.12003566  -0.00221953  0.62212106  1
  V  V16  1  0.25238213  -0.00105810  0.75247000  1
  V  V17  1  0.12126658  0.62618639  0.49747112  1
  V  V18  1  0.49486251  0.74781753  0.74935667  1
  V  V19  1  0.87718382  0.62528564  0.24894010  1
  V  V20  1  0.75233202  0.86897816  0.12140290  1
  V  V21  1  0.62093522  0.12269368  -0.00197661  1
  V  V22  1  0.88108324  0.12808346  0.25156029  1
  V  V23  1  0.50075113  0.62404680  0.12658789  1
  V  V24  1  0.87310321  0.27074234  0.62058161  1
  V  V25  1  0.49155393  0.37767890  0.87827896  1
  V  V26  1  0.49906337  0.12374686  0.61984079  1
  V  V27  1  0.00006191  0.37092810  0.88183147  1
  V  V28  1  0.88702418  -0.00167318  0.37939470  1
  V  V29  1  0.74807904  0.87190506  0.61015686  1
  V  V30  1  0.50174099  0.25222848  0.74825644  1
  V  V31  1  0.11562362  0.24925274  0.36913085  1
  V  V32  1  0.62672107  0.25089666  0.87162119  1
  V  V33  1  0.37745348  0.87887713  0.00158866  1
  V  V34  1  0.38441684  0.00062462  0.88014731  1
  V  V35  1  0.50530904  0.49514898  0.49634852  1
  V  V36  1  0.24919067  0.87445125  0.62386386  1
  V  V37  1  0.62612272  0.87499307  0.24991525  1
  V  V38  1  0.12145970  0.73518668  0.87816483  1
  V  V39  1  0.12075042  -0.00307687  0.12474316  1
  V  V40  1  0.00723892  0.24994732  0.75377426  1
  V  V41  1  0.13103469  0.38267021  0.75127418  1
  V  V42  1  0.37252842  0.75141428  0.12497452  1
  V  V43  1  0.49661780  0.87765457  0.37462560  1
  V  V44  1  0.12074546  0.87379607  0.26341313  1
  V  V45  1  0.25400429  -0.00251992  0.25074107  1
  V  V46  1  0.37644670  0.12441666  0.24917422  1
  V  V47  1  0.32180099  0.56989903  0.80288994  1
  V  V48  1  0.87281460  0.12653328  0.74680228  1
  V  V49  1  0.62802229  0.74961002  0.87856175  1
  V  V50  1  0.24777868  0.25098824  0.49904171  1
  V  V51  1  -0.00175393  0.12360696  0.61915699  1
  V  V52  1  0.25070916  0.12102677  0.37421512  1
  V  V53  1  0.75160064  0.12485335  0.87124421  1
  V  V54  1  0.75581788  0.25346605  -0.00367862  1
  V  V55  1  0.62438240  0.38323786  0.74631859  1
  V  V56  1  -0.00154927  -0.00400001  -0.00827782  1
  V  V57  1  0.75004684  0.50062967  0.24613319  1
  V  V58  1  -0.00572999  0.37721685  0.37718948  1
  V  V59  1  0.87553493  0.86746572  -0.00793498  1
  V  V60  1  0.24906136  0.49229644  0.24561223  1
  V  V61  1  0.74027596  0.12984743  0.38520031  1
  V  V62  1  0.00336562  0.75318801  0.26234633  1
  V  V63  1  0.36539981  0.25666895  0.11849742  1
  V  V64  1  0.49699646  0.00462572  0.49252515  1
  V  V65  1  0.49139015  0.49819264  -0.00159179  1
  V  V66  1  0.49847299  0.74976533  0.25220921  1
  V  V67  1  0.12147293  0.12341680  0.50021941  1
  V  V68  1  0.62613258  0.75190695  0.38261306  1
  V  V69  1  0.50204473  0.25140372  0.25645464  1
  V  V70  1  0.87323820  0.49170817  0.88293679  1
  V  V71  1  0.37273116  0.25142950  0.62236741  1
  V  V72  1  0.74822596  0.50151232  0.74735187  1
  V  V73  1  0.37716579  0.37451372  0.48953756  1
  V  V74  1  0.75256727  0.00142437  0.25126722  1
  V  V75  1  0.24433786  0.62365719  0.37359134  1
  V  V76  1  0.74985987  0.00106195  0.74645955  1
  V  V77  1  0.61949675  -0.00022660  0.12001293  1
  V  V78  1  0.49475591  0.62152035  0.62486638  1
  V  V79  1  0.24715900  0.73880096  -0.00454516  1
  V  V80  1  0.11924387  0.87717943  0.76394847  1
  V  V81  1  0.87854816  0.25097101  0.12661561  1
  V  V82  1  0.12245182  0.37149556  0.24307584  1
  V  V83  1  0.37340272  0.87746168  0.49471282  1
  V  V84  1  0.62554813  0.87404477  0.74939638  1
  Zn  Zn85  1  -0.00053638  0.49938790  0.00176640  1
  Zn  Zn86  1  0.24544685  0.87254437  0.12462375  1
  Zn  Zn87  1  -0.00473915  0.75614770  0.75780266  1
  Zn  Zn88  1  0.87021172  0.49293905  0.38084489  1
  Zn  Zn89  1  0.13784296  0.49292797  0.10954478  1
  Zn  Zn90  1  0.49838312  0.12570497  0.12088475  1
  Zn  Zn91  1  0.62297857  0.49619970  0.12346891  1
  Zn  Zn92  1  0.36984022  0.74735994  0.62993842  1
  Zn  Zn93  1  0.13161350  0.50547135  0.62749356  1
  Zn  Zn94  1  0.87609117  0.62795292  0.75467071  1
  Zn  Zn95  1  0.87659370  0.75027704  0.12392503  1
  Zn  Zn96  1  0.74380270  0.27063350  0.49441126  1
  Zn  Zn97  1  0.25220535  0.12750570  0.88133184  1
  Zn  Zn98  1  0.25273955  0.38610414  0.62654208  1
  Zn  Zn99  1  -0.00471858  0.49355381  0.50704663  1
  Zn  Zn100  1  0.87814171  -0.00528658  0.87001083  1
  Zn  Zn101  1  -0.00131752  0.12622743  0.12527577  1
  Zn  Zn102  1  0.50444222  0.87784657  0.88127487  1
  Zn  Zn103  1  0.18913974  0.29669373  0.93279600  1
  Zn  Zn104  1  0.37948778  0.49532522  0.37229284  1
  Zn  Zn105  1  0.69241192  0.43446594  0.58329417  1
  Zn  Zn106  1  0.34892362  0.37720731  0.00064208  1
  Zn  Zn107  1  0.18485651  0.18501462  0.18512524  1
  Zn  Zn108  1  0.18941922  0.18851875  0.69231005  1
  Zn  Zn109  1  0.18660313  0.68977160  0.18924257  1
  Zn  Zn110  1  0.18871572  0.68774302  0.68970120  1
  Zn  Zn111  1  0.69108031  0.18671145  0.18791480  1
  Zn  Zn112  1  0.67307740  0.20802950  0.65182104  1
  Zn  Zn113  1  0.68653705  0.68916150  0.18933096  1
  Zn  Zn114  1  0.68865959  0.68719783  0.69036324  1
  Zn  Zn115  1  0.30888364  0.30705746  0.30907019  1
  Zn  Zn116  1  0.31396002  0.31380653  0.81113246  1
  Zn  Zn117  1  0.30996527  0.81274904  0.31424543  1
  Zn  Zn118  1  0.31011908  0.81159514  0.81699961  1
  Zn  Zn119  1  0.80963377  0.30928740  0.31139435  1
  Zn  Zn120  1  0.81350345  0.31365816  0.80337448  1
  Zn  Zn121  1  0.81624968  0.81274123  0.31349767  1
  Zn  Zn122  1  0.80762447  0.81158086  0.80993823  1
  Zn  Zn123  1  0.18541884  0.43891724  0.43726802  1
  Zn  Zn124  1  0.18893955  0.46733864  0.93244780  1
  Zn  Zn125  1  0.18514703  0.94025041  0.43837746  1
  Zn  Zn126  1  0.19481040  0.93901182  0.94096453  1
  Zn  Zn127  1  0.68627779  0.44202293  0.42407828  1
  Zn  Zn128  1  0.68219729  0.43871465  0.93617768  1
  Zn  Zn129  1  0.68700313  0.94403071  0.43468639  1
  Zn  Zn130  1  0.69241358  0.93834045  0.93711473  1
  Zn  Zn131  1  0.31055028  0.06208214  0.06622794  1
  Zn  Zn132  1  0.31178834  0.06076705  0.56180020  1
  Zn  Zn133  1  0.31427063  0.56274477  0.06309589  1
  Zn  Zn134  1  0.31398327  0.56006994  0.56410316  1
  Zn  Zn135  1  0.81093421  0.06066647  0.06158778  1
  Zn  Zn136  1  0.81605435  0.05892380  0.56117862  1
  Zn  Zn137  1  0.81558878  0.56372534  0.06250399  1
  Zn  Zn138  1  0.81814962  0.56427782  0.55994934  1
  Zn  Zn139  1  0.43637219  0.43583856  0.18478621  1
  Zn  Zn140  1  0.43874304  0.43813524  0.68098877  1
  Zn  Zn141  1  0.43732070  0.93831794  0.18641099  1
  Zn  Zn142  1  0.43727307  0.93363325  0.68558430  1
  Zn  Zn143  1  0.93874337  0.43611238  0.19231993  1
  Zn  Zn144  1  0.94139960  0.44414319  0.69728589  1
  Zn  Zn145  1  0.93798990  0.93662903  0.18563332  1
  Zn  Zn146  1  0.93807690  0.93643300  0.68530991  1
  Zn  Zn147  1  0.06241081  0.06160244  0.31094629  1
  Zn  Zn148  1  0.06053341  0.06123110  0.81132648  1
  Zn  Zn149  1  0.06435799  0.55878709  0.30972787  1
  Zn  Zn150  1  0.05842854  0.56104562  0.81435321  1
  Zn  Zn151  1  0.56227824  0.06333318  0.31027349  1
  Zn  Zn152  1  0.56292482  0.06371500  0.80886556  1
  Zn  Zn153  1  0.56476855  0.56065050  0.31389540  1
  Zn  Zn154  1  0.55474399  0.56320487  0.81351789  1
  Zn  Zn155  1  0.43686005  0.18638888  0.43310696  1
  Zn  Zn156  1  0.43721640  0.19036674  0.93757559  1
  Zn  Zn157  1  0.43571798  0.68642062  0.44024579  1
  Zn  Zn158  1  0.43723919  0.68955897  0.93670845  1
  Zn  Zn159  1  0.93092682  0.19092419  0.44019839  1
  Zn  Zn160  1  0.93982639  0.18508797  0.93745878  1
  Zn  Zn161  1  0.93449309  0.68592323  0.44089264  1
  Zn  Zn162  1  0.93804557  0.68945348  0.93781916  1
  Zn  Zn163  1  0.05996279  0.31252026  0.06389344  1
  Zn  Zn164  1  0.06150212  0.31209402  0.56442026  1
  Zn  Zn165  1  0.06010212  0.80984963  0.06489330  1
  Zn  Zn166  1  0.06551298  0.80666550  0.56657031  1
  Zn  Zn167  1  0.56201563  0.30906692  0.06723281  1
  Zn  Zn168  1  0.56164308  0.30933534  0.55261441  1
  Zn  Zn169  1  0.56132002  0.81179037  0.06271644  1
  Zn  Zn170  1  0.55951137  0.81250531  0.56280635  1
  O  O171  1  0.12113393  0.11322740  0.11852728  1
  O  O172  1  0.11812106  0.11844352  0.62204082  1
  O  O173  1  0.11222616  0.62150104  0.13271371  1
  O  O174  1  0.11670564  0.62943861  0.61918198  1
  O  O175  1  0.62910357  0.11673236  0.11611953  1
  O  O176  1  0.61565832  0.10715333  0.63586430  1
  O  O177  1  0.61967875  0.62561827  0.11882908  1
  O  O178  1  0.62028183  0.63568739  0.61124978  1
  O  O179  1  0.37140797  0.37038127  0.38597058  1
  O  O180  1  0.38837489  0.36674313  0.88258586  1
  O  O181  1  0.37961449  0.87270366  0.38582328  1
  O  O182  1  0.37711275  0.88305586  0.88330106  1
  O  O183  1  0.89046540  0.37114421  0.36694564  1
  O  O184  1  0.88349515  0.38190844  0.86723844  1
  O  O185  1  0.87215656  0.87993330  0.38944684  1
  O  O186  1  0.86675117  0.87524716  0.88797112  1
  O  O187  1  0.24350869  0.01305410  0.36719995  1
  O  O188  1  0.26193809  0.00321024  0.86684295  1
  O  O189  1  0.25300802  0.50779411  0.36604973  1
  O  O190  1  0.25378739  0.51506607  0.85535414  1
  O  O191  1  0.75765745  0.00474949  0.36496433  1
  O  O192  1  0.75171527  0.00755260  0.86396587  1
  O  O193  1  0.74873912  0.51476624  0.35981058  1
  O  O194  1  0.75450329  0.50670582  0.87128611  1
  O  O195  1  0.25166335  0.50592544  0.14051129  1
  O  O196  1  0.24519825  0.49916486  0.62281524  1
  O  O197  1  0.24029179  0.99695503  0.13488333  1
  O  O198  1  0.24279026  0.99422186  0.63177589  1
  O  O199  1  0.75053231  0.49427962  0.13294868  1
  O  O200  1  0.75124166  0.51388723  0.64214496  1
  O  O201  1  0.74351103  0.99281879  0.13533285  1
  O  O202  1  0.74133843  0.99297682  0.62712157  1
  O  O203  1  0.01055095  0.37527742  0.26257984  1
  O  O204  1  0.00763995  0.36685710  0.75758921  1
  O  O205  1  0.00444011  0.86147506  0.24668064  1
  O  O206  1  0.01351900  0.87397381  0.74546937  1
  O  O207  1  0.51421980  0.36897494  0.24160663  1
  O  O208  1  0.50292908  0.37157451  0.75852440  1
  O  O209  1  0.50502131  0.87114668  0.25556351  1
  O  O210  1  0.51384330  0.86992292  0.74929490  1
  O  O211  1  0.49143871  0.12901011  0.24731564  1
  O  O212  1  0.49357355  0.13152518  0.74219881  1
  O  O213  1  0.49526714  0.62923798  0.24732758  1
  O  O214  1  0.51107108  0.63568479  0.73673008  1
  O  O215  1  0.98558356  0.12066949  0.24680172  1
  O  O216  1  0.99558817  0.13061848  0.74200918  1
  O  O217  1  0.99440516  0.63214310  0.24626805  1
  O  O218  1  0.99779766  0.63245612  0.74408831  1
  O  O219  1  0.37644810  0.24918184  0.01423114  1
  O  O220  1  0.37025275  0.25346352  0.50420304  1
  O  O221  1  0.36513585  0.75525449  0.00367144  1
  O  O222  1  0.36687444  0.75969811  0.50134247  1
  O  O223  1  0.86123205  0.24109157  0.00566657  1
  O  O224  1  0.86663439  0.24808565  0.51761586  1
  O  O225  1  0.87543494  0.76399713  0.00270783  1
  O  O226  1  0.87647600  0.76446817  0.50719916  1
  O  O227  1  0.13048222  0.24238180  0.49466212  1
  O  O228  1  0.11959956  0.23261656  1.00453515  1
  O  O229  1  0.13389200  0.73914580  0.50153917  1
  O  O230  1  0.13619570  0.75649695  0.99026672  1
  O  O231  1  0.64479146  0.23921688  0.54294965  1
  O  O232  1  0.63645549  0.24284028  0.99444664  1
  O  O233  1  0.62024933  0.74552553  0.48782502  1
  O  O234  1  0.61900778  0.73770825  0.99325232  1
  O  O235  1  0.49160415  0.24500949  0.13446186  1
  O  O236  1  0.48787049  0.24405355  0.62688040  1
  O  O237  1  0.49411508  0.74409099  0.13258374  1
  O  O238  1  0.49903895  0.74431475  0.63285959  1
  O  O239  1  0.98211739  0.24769818  0.11913805  1
  O  O240  1  0.99061594  0.24232186  0.63108493  1
  O  O241  1  0.99905386  0.73743655  0.13461448  1
  O  O242  1  0.98996169  0.74326834  0.62842192  1
  O  O243  1  0.00951916  0.25525117  0.37963153  1
  O  O244  1  -0.00546997  0.25631200  0.86525383  1
  O  O245  1  -0.00184167  0.74434341  0.36081272  1
  O  O246  1  0.01643316  0.75042635  0.87802495  1
  O  O247  1  0.49795845  0.24533111  0.35733177  1
  O  O248  1  0.50743797  0.25523113  0.86805766  1
  O  O249  1  0.50591659  0.75574512  0.37100829  1
  O  O250  1  0.51241118  0.75196852  0.86761840  1
  O  O251  1  0.24566204  0.12896057  0.49154763  1
  O  O252  1  0.23164930  0.11625108  1.00113312  1
  O  O253  1  0.24588003  0.63210381  0.49223596  1
  O  O254  1  0.25473763  0.63995054  1.00227534  1
  O  O255  1  0.75295192  0.11628551  0.48515595  1
  O  O256  1  0.74301544  0.13023960  0.99075016  1
  O  O257  1  0.74235449  0.62366308  0.48867761  1
  O  O258  1  0.74155036  0.62089923  0.99085744  1
  O  O259  1  0.23735304  0.38075606  -0.01112043  1
  O  O260  1  0.25590551  0.36664036  0.50043246  1
  O  O261  1  0.26185062  0.86740926  0.00375971  1
  O  O262  1  0.25437322  0.86989637  0.50069795  1
  O  O263  1  0.74433749  0.36665890  0.00692426  1
  O  O264  1  0.74470774  0.38461162  0.49891694  1
  O  O265  1  0.76370289  0.88237799  0.00932771  1
  O  O266  1  0.74853804  0.87712330  0.50895588  1
  O  O267  1  0.13366623  0.48934106  0.24739255  1
  O  O268  1  0.11717190  0.48523716  0.74871462  1
  O  O269  1  0.13078529  0.99494099  0.24359110  1
  O  O270  1  0.13260682  0.99498149  0.74461680  1
  O  O271  1  0.63115077  0.49032601  0.24656120  1
  O  O272  1  0.63332439  0.49409626  0.75964266  1
  O  O273  1  0.63353242  0.99371398  0.24387745  1
  O  O274  1  0.62857891  0.99082911  0.74298240  1
  O  O275  1  0.36216533  0.00610760  0.24457118  1
  O  O276  1  0.36956195  0.00164915  0.75514851  1
  O  O277  1  0.37009785  0.50417884  0.25277761  1
  O  O278  1  0.38064979  0.50657307  0.74774586  1
  O  O279  1  0.86827200  0.00307619  0.25619708  1
  O  O280  1  0.86908834  0.00585038  0.74849619  1
  O  O281  1  0.86655897  0.50780502  0.25566317  1
  O  O282  1  0.86508693  0.50507204  0.76232026  1
  O  O283  1  0.11877798  0.36601773  0.36798895  1
  O  O284  1  0.11634055  0.37316112  0.86285020  1
  O  O285  1  0.12342926  0.88175010  0.36287566  1
  O  O286  1  0.13159994  0.87661815  0.86578067  1
  O  O287  1  0.62331740  0.37323261  0.35717682  1
  O  O288  1  0.61758472  0.36761088  0.86602210  1
  O  O289  1  0.62077117  0.86866271  0.37056916  1
  O  O290  1  0.62670831  0.86869872  0.86901850  1
  O  O291  1  0.37619614  0.12975028  0.13450773  1
  O  O292  1  0.37957751  0.12981692  0.62996778  1
  O  O293  1  0.38108241  0.63242867  0.13311077  1
  O  O294  1  0.39172343  0.63201553  0.61169597  1
  O  O295  1  0.87083149  0.13104483  0.13356131  1
  O  O296  1  0.88254861  0.12280969  0.63363400  1
  O  O297  1  0.87655625  0.62868584  0.13784563  1
  O  O298  1  0.88020345  0.63688132  0.62840157  1
  O  O299  1  0.26683436  0.24517052  0.13166008  1
  O  O300  1  0.26166714  0.24761330  0.61971523  1
  O  O301  1  0.25303941  0.75139220  0.11517467  1
  O  O302  1  0.24956276  0.75826129  0.61292430  1
  O  O303  1  0.75568919  0.25599096  0.11584493  1
  O  O304  1  0.77546663  0.25859943  0.64583904  1
  O  O305  1  0.75040073  0.76567391  0.13178313  1
  O  O306  1  0.76044238  0.75831099  0.62954006  1
  O  O307  1  0.23929235  0.23812050  0.37810766  1
  O  O308  1  0.24883492  0.23749000  0.86034825  1
  O  O309  1  0.25184900  0.74229641  0.38574256  1
  O  O310  1  0.24019294  0.75342978  0.88784160  1
  O  O311  1  0.75380243  0.23507365  0.37978322  1
  O  O312  1  0.74705533  0.24612979  0.87773383  1
  O  O313  1  0.74035195  0.73994093  0.36594711  1
  O  O314  1  0.73646028  0.74229662  0.87146047  1
  O  O315  1  0.00849338  0.11471197  0.00257177  1
  O  O316  1  0.00242696  0.12961285  0.51260090  1
  O  O317  1  -0.00788602  0.62801041  0.01902775  1
  O  O318  1  0.00897309  0.63080752  0.50849387  1
  O  O319  1  0.51694496  0.12991231  -0.00056980  1
  O  O320  1  0.49225761  0.11406039  0.50394623  1
  O  O321  1  0.50460378  0.61884063  0.00623558  1
  O  O322  1  0.51010046  0.62066270  0.50483602  1
  O  O323  1  0.49289166  0.38274535  0.50253006  1
  O  O324  1  0.50913495  0.38360131  0.99306308  1
  O  O325  1  0.49132364  0.88122424  0.49530938  1
  O  O326  1  0.48438596  0.86802897  0.99923409  1
  O  O327  1  1.00904883  0.37526121  0.48267235  1
  O  O328  1  1.00175248  0.37271150  0.98559376  1
  O  O329  1  0.99289533  0.87366345  0.50363228  1
  O  O330  1  0.98449806  0.88065591  1.00650758  1
  O  O331  1  0.49879857  0.50657781  0.39021789  1
  O  O332  1  0.50598125  0.48910968  0.88583840  1
  O  O333  1  0.50450918  0.99367104  0.38336703  1
  O  O334  1  0.48872943  0.99736484  0.86872643  1
  O  O335  1  1.00072160  0.48524024  0.37367764  1
  O  O336  1  0.98906434  0.49016370  0.87335622  1
  O  O337  1  0.98646850  1.00215414  0.37267012  1
  O  O338  1  0.99789141  0.99941726  0.88688785  1
  O  O339  1  0.00575800  0.00172759  0.11614187  1
  O  O340  1  0.01115109  0.00901201  0.63090976  1
  O  O341  1  -0.00586368  0.51517112  0.12843723  1
  O  O342  1  0.00157641  0.51601485  0.62705069  1
  O  O343  1  0.51562008  0.00279864  0.13000246  1
  O  O344  1  0.50501961  0.00161175  0.61610072  1
  O  O345  1  0.50261401  0.50769395  0.11942652  1
  O  O346  1  0.49963910  0.51048051  0.61108043  1
  O  O347  1  0.23930827  0.38265542  0.25773901  1
  O  O348  1  0.23386253  0.36767326  0.74649718  1
  O  O349  1  0.24219465  0.88211671  0.25025638  1
  O  O350  1  0.24585217  0.88420208  0.74544896  1
  O  O351  1  0.74081442  0.38176508  0.24632548  1
  O  O352  1  0.73865721  0.38829390  0.75488430  1
  O  O353  1  0.74654138  0.88292674  0.24572410  1
  O  O354  1  0.74005860  0.88006766  0.74027660  1
  O  O355  1  0.25407555  0.11685044  0.25500624  1
  O  O356  1  0.25657409  0.11013148  0.74595036  1
  O  O357  1  0.25353888  0.62120867  0.25755882  1
  O  O358  1  0.27315904  0.63957965  0.74392632  1
  O  O359  1  0.75810513  0.11678292  0.25702621  1
  O  O360  1  0.75931556  0.12068651  0.75107846  1
  O  O361  1  0.75555144  0.61920205  0.25236623  1
  O  O362  1  0.74737512  0.61947512  0.76551411  1
  O  O363  1  0.36387289  0.12990341  0.35967355  1
  O  O364  1  0.37697743  0.11782304  0.86890898  1
  O  O365  1  0.36433052  0.62502379  0.36865708  1
  O  O366  1  0.38445092  0.62009774  0.86757012  1
  O  O367  1  0.86936976  0.11749151  0.36961613  1
  O  O368  1  0.87239024  0.12356982  0.86077751  1
  O  O369  1  0.86586667  0.63074315  0.36334028  1
  O  O370  1  0.86605359  0.62151945  0.87650334  1
  O  O371  1  0.11806452  0.37539547  0.13839143  1
  O  O372  1  0.12281322  0.37594374  0.63827874  1
  O  O373  1  0.12351390  0.88499722  0.13233632  1
  O  O374  1  0.13082219  0.88178326  0.63144964  1
  O  O375  1  0.63851225  0.37547992  0.13109891  1
  O  O376  1  0.61116376  0.37967248  0.64212369  1
  O  O377  1  0.63136776  0.88085944  0.12737562  1
  O  O378  1  0.63029218  0.88020668  0.62988345  1
  O  O379  1  0.12896210  0.25577002  0.25837926  1
  O  O380  1  0.11172118  0.25498989  0.74327525  1
  O  O381  1  0.11338389  0.75919701  0.24828361  1
  O  O382  1  0.12819466  0.75896983  0.76555555  1
  O  O383  1  0.61999000  0.26125915  0.24262947  1
  O  O384  1  0.61773362  0.25720279  0.74963481  1
  O  O385  1  0.61804317  0.75597127  0.25938082  1
  O  O386  1  0.61945669  0.75754349  0.75639083  1
  O  O387  1  0.38151933  0.24371716  0.24222415  1
  O  O388  1  0.38234487  0.24684486  0.73981151  1
  O  O389  1  0.37847008  0.74531179  0.24529755  1
  O  O390  1  0.39193143  0.76444162  0.74993679  1
  O  O391  1  0.86598103  0.23873005  0.23970467  1
  O  O392  1  0.88804369  0.24278173  0.74284219  1
  O  O393  1  0.88626792  0.74560147  0.24772289  1
  O  O394  1  0.87632172  0.75205547  0.74092167  1
  O  O395  1  0.38372605  0.48988622  0.49575918  1
  O  O396  1  0.38734237  0.49390548  1.00701904  1
  O  O397  1  0.38323980  0.99043168  0.50262327  1
  O  O398  1  0.37072287  0.99337817  0.99284549  1
  O  O399  1  0.88439330  0.51184685  0.49021462  1
  O  O400  1  0.87701880  0.50147003  0.98767296  1
  O  O401  1  0.87346321  0.98388177  0.49378149  1
  O  O402  1  0.88229972  0.99257444  0.99764842  1
  O  O403  1  0.11763020  0.00088822  0.00713277  1
  O  O404  1  0.12970226  0.00728354  0.51337296  1
  O  O405  1  0.11262255  0.50892458  0.00167395  1
  O  O406  1  0.11999876  0.51439117  0.50077902  1
  O  O407  1  0.63283585  0.00817126  0.00822886  1
  O  O408  1  0.61246084  -0.00687101  0.50860169  1
  O  O409  1  0.61703091  0.51287003  0.00194976  1
  O  O410  1  0.62151345  0.50828940  0.50133708  1
  O  O411  1  0.37588720  0.36126722  0.12122474  1
  O  O412  1  0.37408367  0.36511658  0.61382780  1
  O  O413  1  0.37292653  0.86788872  0.12056142  1
  O  O414  1  0.36691545  0.87373207  0.61379579  1
  O  O415  1  0.86138566  0.36702778  0.13476282  1
  O  O416  1  0.88834045  0.36893331  0.62697106  1
  O  O417  1  0.86721617  0.87459356  0.11687828  1
  O  O418  1  0.86856480  0.87203972  0.61362780  1
  O  O419  1  0.12786668  0.13048393  0.37896519  1
  O  O420  1  0.12468211  0.11592678  0.89092755  1
  O  O421  1  0.13597721  0.62162849  0.38021586  1
  O  O422  1  0.12496617  0.63690021  0.87186531  1
  O  O423  1  0.64199755  0.11939677  0.37066500  1
  O  O424  1  0.63083852  0.13044814  0.87800633  1
  O  O425  1  0.63077527  0.63328804  0.38212594  1
  O  O426  1  0.62877970  0.63157353  0.88323598  1
