# generated using pymatgen
data_V85Zn86O256
_symmetry_space_group_name_H-M   'P 1'
_cell_length_a   16.93238157
_cell_length_b   16.92918852
_cell_length_c   16.92448241
_cell_angle_alpha   89.98492303
_cell_angle_beta   89.97858265
_cell_angle_gamma   89.98007323
_symmetry_Int_Tables_number   1
_chemical_formula_structural   V85Zn86O256
_chemical_formula_sum   'V85 Zn86 O256'
_cell_volume   4851.42712643
_cell_formula_units_Z   1
loop_
 _symmetry_equiv_pos_site_id
 _symmetry_equiv_pos_as_xyz
  1  'x, y, z'
loop_
 _atom_site_type_symbol
 _atom_site_label
 _atom_site_symmetry_multiplicity
 _atom_site_fract_x
 _atom_site_fract_y
 _atom_site_fract_z
 _atom_site_occupancy
  V  V0  1  0.74509184  0.37499422  0.12365915  1
  V  V1  1  0.62536197  0.87640116  0.25097513  1
  V  V2  1  0.62386686  0.11654311  -0.00275399  1
  V  V3  1  0.25652843  0.49885279  0.75233541  1
  V  V4  1  0.38083971  0.62220333  0.24102222  1
  V  V5  1  0.12835773  0.87243930  0.74675207  1
  V  V6  1  0.24920312  0.12398948  0.37793052  1
  V  V7  1  0.87401761  0.50248481  0.87411138  1
  V  V8  1  0.25187936  0.49842419  0.24411635  1
  V  V9  1  0.87204020  0.63285499  0.74623318  1
  V  V10  1  0.87430556  -0.00243048  0.38114933  1
  V  V11  1  0.37337511  -0.00270992  0.37615377  1
  V  V12  1  0.00340927  -0.00456096  0.50009228  1
  V  V13  1  0.37630695  0.12665249  0.75293832  1
  V  V14  1  0.49291058  0.12366931  0.11813035  1
  V  V15  1  0.50113544  0.12941168  0.62600878  1
  V  V16  1  0.13556782  0.24872211  0.88500659  1
  V  V17  1  0.24547180  0.87208068  0.13037136  1
  V  V18  1  0.87302311  0.62909338  0.24822861  1
  V  V19  1  -0.00378191  0.63175221  0.62296252  1
  V  V20  1  0.87950006  0.75217923  0.12424227  1
  V  V21  1  0.37361932  0.13015586  0.24867791  1
  V  V22  1  0.74669628  0.12340655  0.39164540  1
  V  V23  1  0.87235590  0.12469865  0.25085895  1
  V  V24  1  0.48846516  0.50495292  0.00468576  1
  V  V25  1  0.87254328  0.37656234  0.00079704  1
  V  V26  1  0.12449421  0.62793762  -0.00926609  1
  V  V27  1  0.13253762  0.37306735  0.74796989  1
  V  V28  1  0.62076339  0.24524395  0.38183301  1
  V  V29  1  0.62886551  0.00521571  0.62333825  1
  V  V30  1  0.75295944  0.86739512  0.62642871  1
  V  V31  1  0.37407370  0.87087720  0.51557944  1
  V  V32  1  0.11989307  0.37896674  0.25482856  1
  V  V33  1  0.00248773  0.62802971  0.12488837  1
  V  V34  1  0.48900260  0.75199018  0.74969867  1
  V  V35  1  0.00211173  0.89377076  0.87663972  1
  V  V36  1  0.00028799  0.50043537  0.00005673  1
  V  V37  1  0.37659649  0.49167021  0.38118391  1
  V  V38  1  0.49507615  0.88826974  0.87890370  1
  V  V39  1  0.25404006  0.26704907  0.50513174  1
  V  V40  1  0.37758772  0.26144629  0.62581802  1
  V  V41  1  0.37338037  0.35988438  0.00351087  1
  V  V42  1  0.00083206  0.12543552  0.62467865  1
  V  V43  1  0.25195851  0.35754032  0.12333322  1
  V  V44  1  0.87880321  0.88806206  -0.00511666  1
  V  V45  1  0.49550460  0.37722520  0.87048668  1
  V  V46  1  0.25359100  0.62940729  0.37365844  1
  V  V47  1  0.37491638  0.88867888  -0.00148565  1
  V  V48  1  -0.00030435  0.25055368  0.74945633  1
  V  V49  1  0.62487454  0.74728131  0.37598743  1
  V  V50  1  0.25711524  -0.00387551  0.75192238  1
  V  V51  1  0.00385090  0.74795426  0.76232728  1
  V  V52  1  0.50393692  0.00334120  0.49977247  1
  V  V53  1  0.49871121  0.87351153  0.37568804  1
  V  V54  1  0.74891637  0.24263970  -0.00754745  1
  V  V55  1  0.62401257  0.49776367  0.62697920  1
  V  V56  1  -0.00041286  0.48874865  0.49652295  1
  V  V57  1  0.62565796  0.87621307  0.74992882  1
  V  V58  1  0.12969219  0.49659479  0.62498743  1
  V  V59  1  0.49188402  0.62910688  0.62559791  1
  V  V60  1  0.50028882  0.74631048  0.24191427  1
  V  V61  1  0.25832924  0.62389069  0.87511393  1
  V  V62  1  0.88446210  0.49165754  0.37520968  1
  V  V63  1  0.61977411  0.62465050  0.01034271  1
  V  V64  1  0.87826857  0.86267591  0.50361377  1
  V  V65  1  0.87413980  0.24983807  0.12730869  1
  V  V66  1  0.74980459  0.49768641  0.75145876  1
  V  V67  1  0.13163441  0.12367198  0.50068870  1
  V  V68  1  0.25488258  0.75271269  0.51396206  1
  V  V69  1  0.62031200  0.37103836  0.25057759  1
  V  V70  1  -0.00147021  0.25444787  0.26059403  1
  V  V71  1  0.62345295  0.24892310  0.86824387  1
  V  V72  1  0.74939467  0.75047465  0.00025425  1
  V  V73  1  0.75166802  0.88301859  0.12567692  1
  V  V74  1  0.00448717  0.86715343  0.36072763  1
  V  V75  1  0.75134396  0.62227831  0.37617083  1
  V  V76  1  0.24045150  -0.00426743  0.25238564  1
  V  V77  1  0.24787864  0.75244153  -0.00575358  1
  V  V78  1  0.00287988  0.37661649  0.87584912  1
  V  V79  1  0.12062835  -0.00405830  0.11726118  1
  V  V80  1  -0.00144732  0.12227864  0.12105203  1
  V  V81  1  0.62006699  0.74811537  0.87572124  1
  V  V82  1  0.62225157  0.62333000  0.50099519  1
  V  V83  1  0.12683045  0.62786918  0.50071995  1
  V  V84  1  0.75818258  0.26214964  0.49887880  1
  Zn  Zn85  1  0.62282133  0.37126322  0.74827202  1
  Zn  Zn86  1  0.75953835  0.38059303  0.62027557  1
  Zn  Zn87  1  0.12944892  0.75952408  0.36253533  1
  Zn  Zn88  1  0.75552422  0.00608025  0.76976451  1
  Zn  Zn89  1  0.12648815  0.49827820  0.12165299  1
  Zn  Zn90  1  0.12166267  0.25565980  0.38022776  1
  Zn  Zn91  1  0.74730019  0.62617304  0.87572325  1
  Zn  Zn92  1  0.61946978  -0.00074783  0.12377599  1
  Zn  Zn93  1  0.87466241  0.12019168  0.77276865  1
  Zn  Zn94  1  0.75510340  0.74396568  0.50614001  1
  Zn  Zn95  1  0.61915834  0.50111974  0.12755395  1
  Zn  Zn96  1  0.49501384  0.24904990  0.24741589  1
  Zn  Zn97  1  0.88343614  0.26129886  0.61821526  1
  Zn  Zn98  1  0.49373617  0.36636414  0.37965861  1
  Zn  Zn99  1  0.13072151  0.12615201  0.00339373  1
  Zn  Zn100  1  0.49267066  0.49259650  0.50527247  1
  Zn  Zn101  1  0.37316787  0.62577490  0.74937802  1
  Zn  Zn102  1  0.13351656  -0.00577598  0.62341442  1
  Zn  Zn103  1  0.74789189  0.49796144  0.24987535  1
  Zn  Zn104  1  0.37674080  0.74798140  0.12169827  1
  Zn  Zn105  1  0.26221602  0.12215782  0.88465562  1
  Zn  Zn106  1  0.74722423  0.00254162  0.25510248  1
  Zn  Zn107  1  0.18218572  0.18453477  0.19216939  1
  Zn  Zn108  1  0.19174064  0.18536850  0.68799188  1
  Zn  Zn109  1  0.18718862  0.68917721  0.18488558  1
  Zn  Zn110  1  0.18455541  0.68751433  0.69057329  1
  Zn  Zn111  1  0.68527124  0.18670302  0.18657718  1
  Zn  Zn112  1  0.68799539  0.18886873  0.68352715  1
  Zn  Zn113  1  0.69072850  0.69108588  0.18752710  1
  Zn  Zn114  1  0.68235198  0.68655252  0.68942936  1
  Zn  Zn115  1  0.30549228  0.31091495  0.31383076  1
  Zn  Zn116  1  0.31711798  0.31323942  0.81112900  1
  Zn  Zn117  1  0.31521479  0.81127937  0.31410142  1
  Zn  Zn118  1  0.30994499  0.81388163  0.81648839  1
  Zn  Zn119  1  0.80800500  0.31247434  0.31289610  1
  Zn  Zn120  1  0.81448989  0.31220974  0.81080982  1
  Zn  Zn121  1  0.81372466  0.80959356  0.31398468  1
  Zn  Zn122  1  0.81284246  0.81699209  0.81417351  1
  Zn  Zn123  1  0.18665199  0.44355397  0.43335239  1
  Zn  Zn124  1  0.19167959  0.43729381  0.93737870  1
  Zn  Zn125  1  0.18767289  0.93234703  0.43869131  1
  Zn  Zn126  1  0.18693888  0.93920546  0.93298882  1
  Zn  Zn127  1  0.68205355  0.43875816  0.43393114  1
  Zn  Zn128  1  0.68225049  0.43817979  0.93771568  1
  Zn  Zn129  1  0.68956214  0.93475915  0.44281410  1
  Zn  Zn130  1  0.68316440  0.93207730  0.93919196  1
  Zn  Zn131  1  0.30669177  0.06710473  0.06483021  1
  Zn  Zn132  1  0.31623513  0.05947330  0.56881002  1
  Zn  Zn133  1  0.31235837  0.56046708  0.06124380  1
  Zn  Zn134  1  0.31023190  0.56295034  0.56408400  1
  Zn  Zn135  1  0.81448119  0.06277653  -0.05631012  1
  Zn  Zn136  1  0.81610704  0.06347417  0.62658875  1
  Zn  Zn137  1  0.80765059  0.56237405  0.06166492  1
  Zn  Zn138  1  0.81438695  0.55877307  0.56138731  1
  Zn  Zn139  1  0.43740053  0.43327484  0.18517675  1
  Zn  Zn140  1  0.43822494  0.43932302  0.68689763  1
  Zn  Zn141  1  0.43317849  0.94169004  0.18546463  1
  Zn  Zn142  1  0.43990003  0.94148676  0.69110114  1
  Zn  Zn143  1  0.93588012  0.44095837  0.18919724  1
  Zn  Zn144  1  0.94021615  0.43957890  0.68483227  1
  Zn  Zn145  1  0.93394843  0.94141073  0.18689873  1
  Zn  Zn146  1  0.93988276  0.93384900  0.68652903  1
  Zn  Zn147  1  0.06140944  0.06266848  0.31308938  1
  Zn  Zn148  1  0.06974860  0.06509924  0.80868734  1
  Zn  Zn149  1  0.07692151  0.59188305  0.29825766  1
  Zn  Zn150  1  0.06490329  0.56290210  0.81168778  1
  Zn  Zn151  1  0.56063267  0.06396460  0.31140164  1
  Zn  Zn152  1  0.56579905  0.06580431  0.80769770  1
  Zn  Zn153  1  0.56137498  0.55901741  0.31087636  1
  Zn  Zn154  1  0.55894520  0.56186659  0.81629482  1
  Zn  Zn155  1  0.43488557  0.18658404  0.44039994  1
  Zn  Zn156  1  0.44336676  0.18851972  0.93626077  1
  Zn  Zn157  1  0.43667798  0.68636073  0.43591415  1
  Zn  Zn158  1  0.43449414  0.69096732  0.93866377  1
  Zn  Zn159  1  0.93676976  0.18400761  0.44022755  1
  Zn  Zn160  1  0.94625953  0.19442162  0.94139282  1
  Zn  Zn161  1  0.94116619  0.68419851  0.43482328  1
  Zn  Zn162  1  0.93372568  0.68947957  0.93772150  1
  Zn  Zn163  1  0.06151229  0.31359374  0.06953091  1
  Zn  Zn164  1  0.06873635  0.31331391  0.56371670  1
  Zn  Zn165  1  0.06377206  0.81428563  0.05836897  1
  Zn  Zn166  1  0.06494364  0.80876849  0.56353677  1
  Zn  Zn167  1  0.55914392  0.30654521  0.06080568  1
  Zn  Zn168  1  0.56219088  0.31446803  0.55815369  1
  Zn  Zn169  1  0.56000871  0.81622529  0.06209369  1
  Zn  Zn170  1  0.56211813  0.81243545  0.56388338  1
  O  O171  1  0.11603710  0.11491121  0.12907486  1
  O  O172  1  0.11814476  0.12335696  0.61687340  1
  O  O173  1  0.11623671  0.62226482  0.11133261  1
  O  O174  1  0.11990105  0.61942359  0.61599149  1
  O  O175  1  0.61728536  0.12194729  0.11729353  1
  O  O176  1  0.61534638  0.11628826  0.62562791  1
  O  O177  1  0.62746032  0.62657254  0.11412911  1
  O  O178  1  0.61754731  0.61715950  0.61891217  1
  O  O179  1  0.37224434  0.38897815  0.36779198  1
  O  O180  1  0.38622847  0.37086442  0.88590376  1
  O  O181  1  0.38227468  0.88121518  0.37947478  1
  O  O182  1  0.38011104  0.87282641  0.88937395  1
  O  O183  1  0.87308821  0.39360582  0.36536213  1
  O  O184  1  0.88227921  0.38207464  0.88011351  1
  O  O185  1  0.88280283  0.87919347  0.38056508  1
  O  O186  1  0.89041114  0.87045653  0.88160848  1
  O  O187  1  0.25284997  0.00248772  0.36986914  1
  O  O188  1  0.24421649  0.00534704  0.85855167  1
  O  O189  1  0.26036476  0.50523382  0.36399839  1
  O  O190  1  0.24265325  0.51035242  0.86440024  1
  O  O191  1  0.75745265  0.00533377  0.37824680  1
  O  O192  1  0.75506798  -0.00878362  0.88044159  1
  O  O193  1  0.75904237  0.51041367  0.37582253  1
  O  O194  1  0.75296393  0.50302967  0.86809819  1
  O  O195  1  0.25088312  0.49516082  0.13555052  1
  O  O196  1  0.23693888  0.50769561  0.63355132  1
  O  O197  1  0.24156474  0.99176164  0.13399181  1
  O  O198  1  0.24903933  1.00330275  0.64322752  1
  O  O199  1  0.74575170  0.48648317  0.12457113  1
  O  O200  1  0.74174155  0.50139821  0.63214014  1
  O  O201  1  0.74798749  0.98472142  0.13320217  1
  O  O202  1  0.73434805  0.98531298  0.60723293  1
  O  O203  1  0.00814818  0.36833093  0.24293573  1
  O  O204  1  0.01266787  0.37136241  0.75574005  1
  O  O205  1  -0.00644147  0.87570586  0.26276419  1
  O  O206  1  0.00266355  0.86750370  0.75965607  1
  O  O207  1  0.50579446  0.36904725  0.25341861  1
  O  O208  1  0.50083116  0.38341188  0.76678444  1
  O  O209  1  0.50529444  0.86947432  0.25514235  1
  O  O210  1  0.50501179  0.86928964  0.75741952  1
  O  O211  1  0.48937922  0.12512101  0.24305400  1
  O  O212  1  0.49236535  0.11899723  0.73475943  1
  O  O213  1  0.49331901  0.63361048  0.25489811  1
  O  O214  1  0.49791834  0.63263257  0.74524013  1
  O  O215  1  0.98964873  0.13181758  0.24896688  1
  O  O216  1  1.00112391  0.13309256  0.74029879  1
  O  O217  1  0.98604601  0.61593252  0.23050724  1
  O  O218  1  0.99466020  0.62978265  0.74395156  1
  O  O219  1  0.37831770  0.26144725  0.00117002  1
  O  O220  1  0.36142838  0.24625168  0.50973777  1
  O  O221  1  0.36250175  0.75543243  0.00360926  1
  O  O222  1  0.36804657  0.75880113  0.49486057  1
  O  O223  1  0.86789626  0.25894916  0.00771843  1
  O  O224  1  0.86130451  0.25401339  0.49200223  1
  O  O225  1  0.86829224  0.75580144  0.00726950  1
  O  O226  1  0.87697023  0.75870949  0.49662095  1
  O  O227  1  0.13776281  0.24286097  0.50081340  1
  O  O228  1  0.12140392  0.25622713  0.98689598  1
  O  O229  1  0.13311991  0.74220810  0.49426991  1
  O  O230  1  0.13793578  0.74255758  1.00460350  1
  O  O231  1  0.63532123  0.25209763  0.48644099  1
  O  O232  1  0.63184680  0.24279076  0.99205366  1
  O  O233  1  0.62449063  0.73737962  0.49480092  1
  O  O234  1  0.62579480  0.74492954  0.99539528  1
  O  O235  1  0.50402610  0.23070296  0.12981954  1
  O  O236  1  0.48794253  0.24237985  0.61629310  1
  O  O237  1  0.49783091  0.75468005  0.13817080  1
  O  O238  1  0.50903234  0.74085057  0.63742802  1
  O  O239  1  0.99446736  0.24385668  0.13777067  1
  O  O240  1  1.00700308  0.24484921  0.63315778  1
  O  O241  1  0.98814734  0.74352882  0.11703637  1
  O  O242  1  1.00413810  0.73590098  0.63325724  1
  O  O243  1  -0.00009904  0.24686941  0.36463914  1
  O  O244  1  0.01172502  0.25959280  0.86758836  1
  O  O245  1  0.00073607  0.76469367  0.37734677  1
  O  O246  1  -0.00014470  0.74876230  0.86412958  1
  O  O247  1  0.50703171  0.24475774  0.37214508  1
  O  O248  1  0.50974726  0.26692855  0.88143573  1
  O  O249  1  0.50652131  0.75334026  0.36616338  1
  O  O250  1  0.50408874  0.75626148  0.86927277  1
  O  O251  1  0.24159286  0.12124976  0.49841753  1
  O  O252  1  0.24425693  0.12477832  0.99594920  1
  O  O253  1  0.24776897  0.63249549  0.49375084  1
  O  O254  1  0.24389302  0.62937955  0.99451582  1
  O  O255  1  0.75203988  0.13593250  0.49112574  1
  O  O256  1  0.74108091  0.13724287  1.00385268  1
  O  O257  1  0.74352567  0.62571795  0.49408111  1
  O  O258  1  0.73921270  0.63190438  0.99789016  1
  O  O259  1  0.26507188  0.38072079  0.00713860  1
  O  O260  1  0.24540117  0.36506410  0.49836877  1
  O  O261  1  0.25577281  0.86967383  0.00331004  1
  O  O262  1  0.26077395  0.86544505  0.49656345  1
  O  O263  1  0.75247951  0.36964169  0.00642706  1
  O  O264  1  0.74691573  0.36515775  0.49599551  1
  O  O265  1  0.75646127  0.86771796  0.00917196  1
  O  O266  1  0.76065798  0.86681020  0.50424157  1
  O  O267  1  0.13436856  0.49733715  0.24695138  1
  O  O268  1  0.13057651  0.49337056  0.74351076  1
  O  O269  1  0.13642789  1.00336826  0.24569602  1
  O  O270  1  0.13384047  0.99227236  0.74612095  1
  O  O271  1  0.62566341  0.48720522  0.24784207  1
  O  O272  1  0.63304139  0.50307721  0.74396607  1
  O  O273  1  0.62653893  0.98613463  0.25250856  1
  O  O274  1  0.63020515  0.99394420  0.73973388  1
  O  O275  1  0.36324961  0.00743157  0.25620210  1
  O  O276  1  0.36567148  0.00758115  0.74856245  1
  O  O277  1  0.37115068  0.50496615  0.25501245  1
  O  O278  1  0.36008754  0.50170019  0.74461453  1
  O  O279  1  0.87311558  0.00720743  0.26344180  1
  O  O280  1  0.86882161  0.01125650  0.72400582  1
  O  O281  1  0.87145144  0.51093528  0.25849729  1
  O  O282  1  0.86914426  0.51026479  0.75494516  1
  O  O283  1  0.13164514  0.37497109  0.35938073  1
  O  O284  1  0.12272507  0.36740616  0.86974675  1
  O  O285  1  0.11006369  0.87557514  0.37369871  1
  O  O286  1  0.10974654  0.87862394  0.86591944  1
  O  O287  1  0.62422910  0.36606826  0.36504958  1
  O  O288  1  0.61348434  0.36895675  0.87532742  1
  O  O289  1  0.62128343  0.86786643  0.36966739  1
  O  O290  1  0.61434194  0.86350826  0.87442674  1
  O  O291  1  0.38424036  0.11934845  0.13301020  1
  O  O292  1  0.38207762  0.13221853  0.63284141  1
  O  O293  1  0.37118039  0.62595355  0.13737495  1
  O  O294  1  0.38814128  0.62229364  0.62578021  1
  O  O295  1  0.88275955  0.13318870  0.13814717  1
  O  O296  1  0.89793004  0.13985695  0.60416678  1
  O  O297  1  0.87746699  0.63190412  0.12779513  1
  O  O298  1  0.88433449  0.61872213  0.63317297  1
  O  O299  1  0.24528177  0.25858459  0.13062376  1
  O  O300  1  0.25966461  0.24707893  0.61261389  1
  O  O301  1  0.25161606  0.75735935  0.11994516  1
  O  O302  1  0.24868678  0.74363022  0.61326180  1
  O  O303  1  0.75336206  0.25868895  0.11782135  1
  O  O304  1  0.74850944  0.25463369  0.60609982  1
  O  O305  1  0.76067264  0.75812859  0.12113881  1
  O  O306  1  0.74135973  0.76252480  0.62466700  1
  O  O307  1  0.24948505  0.24294746  0.39069549  1
  O  O308  1  0.23703136  0.24998142  0.86914602  1
  O  O309  1  0.24904957  0.74038476  0.37929693  1
  O  O310  1  0.24937936  0.74058718  0.88346077  1
  O  O311  1  0.74481462  0.24401505  0.38258112  1
  O  O312  1  0.74122112  0.26072463  0.88551794  1
  O  O313  1  0.74421056  0.73664083  0.37643892  1
  O  O314  1  0.73886174  0.75145620  0.88118499  1
  O  O315  1  0.00724005  0.13338991  0.01859454  1
  O  O316  1  0.01442919  0.11735873  0.49959184  1
  O  O317  1  0.00490783  0.62216777  0.00470763  1
  O  O318  1  0.00943314  0.62074046  0.50540956  1
  O  O319  1  0.50552716  0.12597001  0.01056887  1
  O  O320  1  0.49173475  0.11289649  0.51109540  1
  O  O321  1  0.50267456  0.61306430  -0.00516195  1
  O  O322  1  0.50611834  0.62176020  0.50680309  1
  O  O323  1  0.50405800  0.38156050  0.49149332  1
  O  O324  1  0.48924768  0.38193156  0.99762566  1
  O  O325  1  0.49371522  0.87871979  0.49405896  1
  O  O326  1  0.48390527  0.87213872  0.99555513  1
  O  O327  1  1.01008031  0.38937495  0.49943266  1
  O  O328  1  0.99342702  0.38088081  0.99789728  1
  O  O329  1  0.99589487  0.87986595  0.49743662  1
  O  O330  1  0.99508793  0.87215955  0.98448277  1
  O  O331  1  0.48242252  0.50229921  0.37466956  1
  O  O332  1  0.50531857  0.48662041  0.88958697  1
  O  O333  1  0.49496285  0.99596936  0.38269582  1
  O  O334  1  0.50607760  0.98658525  0.86956455  1
  O  O335  1  0.98898042  0.50966613  0.38023031  1
  O  O336  1  0.99596227  0.49596420  0.88045341  1
  O  O337  1  0.99555541  0.99125612  0.38280374  1
  O  O338  1  0.99976924  0.99232920  0.86943845  1
  O  O339  1  0.00887012  0.00902530  0.13508942  1
  O  O340  1  0.00380202  0.00628625  0.61155697  1
  O  O341  1  -0.00158342  0.50860155  0.11480446  1
  O  O342  1  0.01047310  0.51070095  0.61838534  1
  O  O343  1  0.50282523  0.01592754  0.13163396  1
  O  O344  1  0.51004391  0.00418526  0.61852089  1
  O  O345  1  0.50103685  0.49631895  0.10946570  1
  O  O346  1  0.50775229  0.50900584  0.62611696  1
  O  O347  1  0.24530255  0.38079938  0.24176900  1
  O  O348  1  0.24022906  0.38291081  0.75632173  1
  O  O349  1  0.25531607  0.88106168  0.24170810  1
  O  O350  1  0.24305938  0.88410762  0.75574955  1
  O  O351  1  0.74108901  0.37496852  0.24064911  1
  O  O352  1  0.74826308  0.38881042  0.74990095  1
  O  O353  1  0.74177429  0.87183202  0.24580076  1
  O  O354  1  0.74465367  0.87724280  0.74187349  1
  O  O355  1  0.25377808  0.11697149  0.25689428  1
  O  O356  1  0.25849101  0.11666271  0.75413464  1
  O  O357  1  0.26039082  0.61643174  0.25601814  1
  O  O358  1  0.24910162  0.61942843  0.75853654  1
  O  O359  1  0.76168088  0.12597445  0.25703176  1
  O  O360  1  0.76420984  0.11665073  0.72225950  1
  O  O361  1  0.75462508  0.62127291  0.25639000  1
  O  O362  1  0.75613193  0.61743273  0.75024800  1
  O  O363  1  0.36813650  0.11602253  0.37075252  1
  O  O364  1  0.38039412  0.13601619  0.85777155  1
  O  O365  1  0.36700632  0.61739436  0.36693922  1
  O  O366  1  0.36235058  0.62556994  0.87413459  1
  O  O367  1  0.86892336  0.11532246  0.37274136  1
  O  O368  1  0.87522300  0.13432487  0.88337692  1
  O  O369  1  0.86925496  0.62241898  0.36586142  1
  O  O370  1  0.87187109  0.61900153  0.86722318  1
  O  O371  1  0.13377116  0.37813823  0.13389122  1
  O  O372  1  0.12379550  0.38473692  0.63554818  1
  O  O373  1  0.13523435  0.87911550  0.12390582  1
  O  O374  1  0.11736436  0.87564780  0.64123015  1
  O  O375  1  0.62945191  0.37146121  0.13089013  1
  O  O376  1  0.62641687  0.38775031  0.62825064  1
  O  O377  1  0.63233490  0.87474982  0.13260315  1
  O  O378  1  0.62901422  0.88144837  0.63066924  1
  O  O379  1  0.11527686  0.25865100  0.25401980  1
  O  O380  1  0.12029416  0.25635120  0.75530577  1
  O  O381  1  0.11585855  0.70040311  0.26768356  1
  O  O382  1  0.11597038  0.75759763  0.74957048  1
  O  O383  1  0.62605132  0.25778387  0.25981928  1
  O  O384  1  0.63228487  0.25174525  0.76301772  1
  O  O385  1  0.61927511  0.75759888  0.25434940  1
  O  O386  1  0.61695225  0.75499651  0.75999526  1
  O  O387  1  0.37045877  0.23382729  0.25714954  1
  O  O388  1  0.36789642  0.24411411  0.73298526  1
  O  O389  1  0.38368737  0.74064645  0.25000144  1
  O  O390  1  0.38573858  0.75032109  0.75397713  1
  O  O391  1  0.87926530  0.24510992  0.24883567  1
  O  O392  1  0.89178841  0.25095491  0.74966219  1
  O  O393  1  0.87088293  0.73755909  0.24147912  1
  O  O394  1  0.88010457  0.73771499  0.75390480  1
  O  O395  1  0.37031260  0.50435302  0.48424542  1
  O  O396  1  0.38594805  0.49548469  0.99983514  1
  O  O397  1  0.38282498  0.99126760  0.49674166  1
  O  O398  1  0.36868779  0.98671919  1.00301963  1
  O  O399  1  0.88476311  0.50653612  0.48519592  1
  O  O400  1  0.87881065  0.49675135  0.99390948  1
  O  O401  1  0.88553032  0.98917725  0.48944495  1
  O  O402  1  0.87506992  0.98600363  1.00963006  1
  O  O403  1  0.12605341  -0.00162933  0.01405530  1
  O  O404  1  0.12058268  0.00429799  0.50165366  1
  O  O405  1  0.11828346  0.50681436  0.00037254  1
  O  O406  1  0.12211504  0.50538656  0.50798180  1
  O  O407  1  0.62843961  0.01306943  0.00220505  1
  O  O408  1  0.61048298  -0.00732236  0.50440965  1
  O  O409  1  0.61527366  0.50957740  0.00280413  1
  O  O410  1  0.62564168  0.51103369  0.50723840  1
  O  O411  1  0.36779362  0.37455500  0.11328819  1
  O  O412  1  0.37969100  0.36078983  0.62723242  1
  O  O413  1  0.36428341  0.87425456  0.11562269  1
  O  O414  1  0.38335455  0.87616833  0.61455343  1
  O  O415  1  0.86609764  0.37073247  0.12218381  1
  O  O416  1  0.87368404  0.37406627  0.62608818  1
  O  O417  1  0.87130186  0.86824522  0.12050085  1
  O  O418  1  0.86662581  0.87605775  0.61458788  1
  O  O419  1  0.13136668  0.12760287  0.38305749  1
  O  O420  1  0.12100781  0.14211268  0.87767630  1
  O  O421  1  0.14203491  0.60871189  0.39326297  1
  O  O422  1  0.13047007  0.62350606  0.88627004  1
  O  O423  1  0.63574648  0.13204666  0.36748327  1
  O  O424  1  0.61526553  0.13557739  0.88419224  1
  O  O425  1  0.63154860  0.62411128  0.38169032  1
  O  O426  1  0.62239058  0.63616575  0.88410870  1
