# generated using pymatgen
data_V85Zn86O256
_symmetry_space_group_name_H-M   'P 1'
_cell_length_a   16.92871849
_cell_length_b   16.93381086
_cell_length_c   16.93823736
_cell_angle_alpha   89.94027172
_cell_angle_beta   90.01043237
_cell_angle_gamma   90.07434188
_symmetry_Int_Tables_number   1
_chemical_formula_structural   V85Zn86O256
_chemical_formula_sum   'V85 Zn86 O256'
_cell_volume   4855.63902778
_cell_formula_units_Z   1
loop_
 _symmetry_equiv_pos_site_id
 _symmetry_equiv_pos_as_xyz
  1  'x, y, z'
loop_
 _atom_site_type_symbol
 _atom_site_label
 _atom_site_symmetry_multiplicity
 _atom_site_fract_x
 _atom_site_fract_y
 _atom_site_fract_z
 _atom_site_occupancy
  V  V0  1  0.87477391  0.49994674  0.37622135  1
  V  V1  1  0.74660562  0.25221731  0.50248486  1
  V  V2  1  0.74935525  0.63104179  0.86901000  1
  V  V3  1  0.37078127  0.38121424  0.48867211  1
  V  V4  1  0.88474891  0.74485453  0.62359554  1
  V  V5  1  0.62371289  -0.00088866  0.12547389  1
  V  V6  1  0.75016778  0.87255592  0.12601159  1
  V  V7  1  0.25796094  0.74975856  0.49761462  1
  V  V8  1  0.49846448  0.62397416  0.12286094  1
  V  V9  1  -0.00814284  0.12386053  0.63583950  1
  V  V10  1  0.74625291  0.62282563  0.37688307  1
  V  V11  1  0.37283036  -0.01371877  0.87697074  1
  V  V12  1  0.12876626  0.87116742  0.75388658  1
  V  V13  1  0.74676487  0.74382304  0.50139101  1
  V  V14  1  0.25254075  0.13336260  0.87782357  1
  V  V15  1  0.74545480  0.37368763  0.64332286  1
  V  V16  1  -0.00344086  0.25616648  0.76210244  1
  V  V17  1  0.12919520  0.13296884  0.00023857  1
  V  V18  1  0.12557012  0.00292807  0.12743798  1
  V  V19  1  0.12306038  0.13618487  0.49942764  1
  V  V20  1  0.37352920  0.74811483  0.62917978  1
  V  V21  1  0.87650930  0.00004168  0.86398224  1
  V  V22  1  0.00180645  0.74984017  0.25110387  1
  V  V23  1  0.74842767  0.12587916  0.37720296  1
  V  V24  1  0.50816834  0.49280680  0.49467486  1
  V  V25  1  0.74782886  0.37312801  0.11804582  1
  V  V26  1  0.48400598  0.87873024  0.37987363  1
  V  V27  1  0.52212170  0.86896056  0.87245840  1
  V  V28  1  0.62239640  0.73800140  0.37791055  1
  V  V29  1  0.50606105  0.62270942  0.61781822  1
  V  V30  1  0.00286915  0.49666003  -0.00491065  1
  V  V31  1  0.12669309  -0.00434102  0.62232511  1
  V  V32  1  0.12434259  0.63493196  -0.01329113  1
  V  V33  1  0.50316232  0.12565316  0.62403044  1
  V  V34  1  0.31144121  0.91940005  0.56646078  1
  V  V35  1  0.62624483  0.63203725  -0.00612703  1
  V  V36  1  0.87238710  0.37413500  0.50182339  1
  V  V37  1  0.00138203  0.50218086  0.51587267  1
  V  V38  1  0.25284162  0.60966285  0.37075265  1
  V  V39  1  0.62408649  0.87323701  0.25700091  1
  V  V40  1  0.49406306  0.37949800  0.87251465  1
  V  V41  1  0.36790016  0.24204617  0.11382991  1
  V  V42  1  0.87824387  0.61885760  0.74520091  1
  V  V43  1  0.62758159  0.12832321  -0.00022550  1
  V  V44  1  0.12448130  0.88045159  0.25235379  1
  V  V45  1  0.86997441  0.25033413  0.12220486  1
  V  V46  1  0.48973232  0.24121511  0.25036668  1
  V  V47  1  0.24974688  0.50139133  0.74121972  1
  V  V48  1  -0.00026087  0.25445868  0.25231244  1
  V  V49  1  0.49462057  0.50137005  -0.00656031  1
  V  V50  1  0.51762349  0.75105332  0.74807439  1
  V  V51  1  0.49576680  -0.00598422  -0.00140865  1
  V  V52  1  0.25288567  -0.00420701  0.74786579  1
  V  V53  1  0.00280531  0.74702766  0.75800174  1
  V  V54  1  0.87437897  0.12691939  0.25051304  1
  V  V55  1  0.62944741  0.25947665  0.87729623  1
  V  V56  1  0.74459003  0.49791601  0.25037501  1
  V  V57  1  0.74973993  0.00060103  0.25148831  1
  V  V58  1  0.36701195  0.26002618  0.62484226  1
  V  V59  1  0.26702729  0.62564323  0.87362737  1
  V  V60  1  0.26141875  0.13174331  0.37850995  1
  V  V61  1  0.61937599  0.25296881  0.37446118  1
  V  V62  1  0.00202914  0.62443877  0.12435245  1
  V  V63  1  -0.00261394  0.00120597  0.00009423  1
  V  V64  1  0.37573421  0.12752711  0.75293961  1
  V  V65  1  0.87334565  0.62280127  0.24944397  1
  V  V66  1  0.49437125  0.74468559  0.24955764  1
  V  V67  1  0.12223359  0.62196915  0.51221834  1
  V  V68  1  0.62925408  0.49692494  0.63815533  1
  V  V69  1  0.26413515  0.00845449  0.25641232  1
  V  V70  1  0.13063231  0.74924626  0.37554707  1
  V  V71  1  0.87025481  0.49794726  0.87296783  1
  V  V72  1  0.74277946  0.87114435  0.63100366  1
  V  V73  1  -0.00005986  0.37890021  0.37671284  1
  V  V74  1  0.61767821  0.37143834  0.24735639  1
  V  V75  1  0.87408026  0.87291644  0.50079474  1
  V  V76  1  -0.00145241  0.00074742  0.50080460  1
  V  V77  1  0.87460991  0.74911634  0.12322167  1
  V  V78  1  0.13418814  0.38215361  0.25001150  1
  V  V79  1  0.50672290  0.25781913  0.74933936  1
  V  V80  1  0.87690634  0.37265062  -0.00390764  1
  V  V81  1  0.73844441  -0.00170149  0.75086887  1
  V  V82  1  0.87384928  -0.00090337  0.37597357  1
  V  V83  1  0.13794537  0.50440152  0.12503646  1
  V  V84  1  0.75278858  0.12800755  0.87258124  1
  Zn  Zn85  1  0.23833663  0.38167406  0.61986629  1
  Zn  Zn86  1  0.25404845  0.76477721  -0.01048627  1
  Zn  Zn87  1  0.00139036  0.87274861  0.87714845  1
  Zn  Zn88  1  0.35977701  0.60347969  0.24383893  1
  Zn  Zn89  1  0.38364664  0.62009538  0.75142499  1
  Zn  Zn90  1  0.25709456  0.87667790  0.11552886  1
  Zn  Zn91  1  0.62055512  0.12118211  0.49964202  1
  Zn  Zn92  1  0.49205980  -0.00213398  0.49904090  1
  Zn  Zn93  1  0.62524993  0.49858110  0.11923405  1
  Zn  Zn94  1  -0.00012223  0.12747564  0.12607975  1
  Zn  Zn95  1  0.74636469  0.75335488  -0.00534048  1
  Zn  Zn96  1  0.12889875  0.25376609  0.37712016  1
  Zn  Zn97  1  0.87016198  0.24408492  0.63130295  1
  Zn  Zn98  1  0.36525829  0.37702134  -0.00514821  1
  Zn  Zn99  1  0.37189430  0.75268951  0.11320018  1
  Zn  Zn100  1  0.87611619  0.87563326  -0.00102110  1
  Zn  Zn101  1  0.61967850  -0.00654873  0.62292634  1
  Zn  Zn102  1  -0.00129962  0.87370664  0.37810138  1
  Zn  Zn103  1  0.49534277  0.11962234  0.12694616  1
  Zn  Zn104  1  0.24955764  0.37192816  0.11771197  1
  Zn  Zn105  1  0.12657667  0.26397045  0.87967629  1
  Zn  Zn106  1  0.11839861  0.38630777  0.75066174  1
  Zn  Zn107  1  0.18759822  0.18823353  0.19195227  1
  Zn  Zn108  1  0.18298066  0.18734932  0.69139123  1
  Zn  Zn109  1  0.19068797  0.68937991  0.18513639  1
  Zn  Zn110  1  0.19195927  0.68922735  0.69091259  1
  Zn  Zn111  1  0.68580405  0.18713617  0.18605800  1
  Zn  Zn112  1  0.68687001  0.18592425  0.69250963  1
  Zn  Zn113  1  0.68176583  0.68503051  0.18683233  1
  Zn  Zn114  1  0.69236703  0.67836475  0.68366773  1
  Zn  Zn115  1  0.31258102  0.31292326  0.31059308  1
  Zn  Zn116  1  0.31226392  0.31746198  0.80901695  1
  Zn  Zn117  1  0.32235848  0.82033734  0.27919146  1
  Zn  Zn118  1  0.31283889  0.80625838  0.81060833  1
  Zn  Zn119  1  0.80863601  0.31424416  0.31228973  1
  Zn  Zn120  1  0.81969567  0.30473577  0.81530568  1
  Zn  Zn121  1  0.81222633  0.81052102  0.31321877  1
  Zn  Zn122  1  0.81571112  0.81269454  0.81070894  1
  Zn  Zn123  1  0.18447704  0.43687096  0.44292795  1
  Zn  Zn124  1  0.18951424  0.43840576  0.92953766  1
  Zn  Zn125  1  0.18498562  0.94280538  0.43094886  1
  Zn  Zn126  1  0.18485792  0.94341016  0.93518650  1
  Zn  Zn127  1  0.68091684  0.43593675  0.43866453  1
  Zn  Zn128  1  0.68660291  0.44327756  0.93618389  1
  Zn  Zn129  1  0.68296245  0.93495551  0.44244550  1
  Zn  Zn130  1  0.69076025  0.94183760  0.94171465  1
  Zn  Zn131  1  0.31143898  0.06130071  0.06241538  1
  Zn  Zn132  1  0.31405596  0.08517119  0.56002841  1
  Zn  Zn133  1  0.31388233  0.56755278  0.05489367  1
  Zn  Zn134  1  0.31667382  0.56336221  0.55967616  1
  Zn  Zn135  1  0.81203149  0.06284995  0.06024604  1
  Zn  Zn136  1  0.80801099  0.06023194  0.56374575  1
  Zn  Zn137  1  0.80973235  0.56102100  0.05978529  1
  Zn  Zn138  1  0.80962560  0.56000799  0.56480809  1
  Zn  Zn139  1  0.43306744  0.43190122  0.17926112  1
  Zn  Zn140  1  0.43472556  0.44135195  0.69101867  1
  Zn  Zn141  1  0.43829456  0.93585656  0.18912384  1
  Zn  Zn142  1  0.44633950  0.93882104  0.69722442  1
  Zn  Zn143  1  0.93960286  0.43893499  0.18487309  1
  Zn  Zn144  1  0.93108826  0.43232679  0.68838928  1
  Zn  Zn145  1  0.93920357  0.93789344  0.18752973  1
  Zn  Zn146  1  0.93667237  0.93289894  0.68773456  1
  Zn  Zn147  1  0.06124338  0.06703456  0.31588317  1
  Zn  Zn148  1  0.06770288  0.06245754  0.81393117  1
  Zn  Zn149  1  0.06516889  0.56295951  0.31575197  1
  Zn  Zn150  1  0.06010016  0.55808853  0.80951290  1
  Zn  Zn151  1  0.55940456  0.06224099  0.31658266  1
  Zn  Zn152  1  0.56186849  0.06583887  0.81390380  1
  Zn  Zn153  1  0.52358368  0.53437460  0.28948617  1
  Zn  Zn154  1  0.56463433  0.56484776  0.81051138  1
  Zn  Zn155  1  0.43856355  0.19627635  0.44245605  1
  Zn  Zn156  1  0.44215336  0.18506559  0.93692768  1
  Zn  Zn157  1  0.43601601  0.68235142  0.43744730  1
  Zn  Zn158  1  0.44086155  0.69702302  0.93775097  1
  Zn  Zn159  1  0.93692401  0.18855953  0.44059812  1
  Zn  Zn160  1  0.93518582  0.18360629  0.94079658  1
  Zn  Zn161  1  0.94019917  0.68493599  0.43744792  1
  Zn  Zn162  1  0.93564427  0.68540808  0.93668560  1
  Zn  Zn163  1  0.06176744  0.31577876  0.06490429  1
  Zn  Zn164  1  0.06027055  0.31432367  0.57189273  1
  Zn  Zn165  1  0.06770871  0.81628891  0.06362012  1
  Zn  Zn166  1  0.06565431  0.81206365  0.56414337  1
  Zn  Zn167  1  0.55589885  0.31054882  0.06139832  1
  Zn  Zn168  1  0.56193085  0.31621084  0.56432044  1
  Zn  Zn169  1  0.56039674  0.81169664  0.06127891  1
  Zn  Zn170  1  0.56127237  0.81054378  0.55822284  1
  O  O171  1  0.12466825  0.11757074  0.12128027  1
  O  O172  1  0.11807657  0.11504145  0.61846195  1
  O  O173  1  0.11871073  0.61996672  0.11926058  1
  O  O174  1  0.12817238  0.63375187  0.60975826  1
  O  O175  1  0.62419055  0.11660872  0.11756179  1
  O  O176  1  0.61136906  0.12756146  0.62536063  1
  O  O177  1  0.61787715  0.62350700  0.11273921  1
  O  O178  1  0.62181170  0.60879862  0.62339052  1
  O  O179  1  0.37343085  0.36899169  0.39038262  1
  O  O180  1  0.39039916  0.36702409  0.87781080  1
  O  O181  1  0.38664173  0.86692865  0.36740385  1
  O  O182  1  0.38056518  0.88540000  0.86741287  1
  O  O183  1  0.87816045  0.38018162  0.38169612  1
  O  O184  1  0.86779552  0.38051856  0.88880370  1
  O  O185  1  0.87605161  0.87922172  0.38159332  1
  O  O186  1  0.87800816  0.88518424  0.87933320  1
  O  O187  1  0.24608932  0.01396240  0.36435035  1
  O  O188  1  0.25909233  0.00934432  0.86870392  1
  O  O189  1  0.24286449  0.51131596  0.37617960  1
  O  O190  1  0.24626138  0.52113326  0.86484059  1
  O  O191  1  0.75348533  0.00439024  0.37100124  1
  O  O192  1  0.75546241  0.00356047  0.86785133  1
  O  O193  1  0.75235416  0.50297283  0.37117583  1
  O  O194  1  0.76349893  0.51067233  0.88050623  1
  O  O195  1  0.23992664  0.50846509  0.12539406  1
  O  O196  1  0.25194772  0.50639686  0.63639501  1
  O  O197  1  0.24294092  1.00209368  0.14007876  1
  O  O198  1  0.24843340  0.99554319  0.62332204  1
  O  O199  1  0.74799010  0.49176827  0.13251697  1
  O  O200  1  0.73754988  0.48913029  0.62072025  1
  O  O201  1  0.74628503  0.99159494  0.13215585  1
  O  O202  1  0.74871204  0.99027160  0.63376518  1
  O  O203  1  0.00360613  0.37081308  0.25620186  1
  O  O204  1  -0.00444414  0.35906163  0.74899488  1
  O  O205  1  0.00927496  0.86961916  0.25227923  1
  O  O206  1  0.00655900  0.86550881  0.74987103  1
  O  O207  1  0.51335336  0.35867971  0.24122406  1
  O  O208  1  0.49854072  0.36670714  0.75629591  1
  O  O209  1  0.50826859  0.86532333  0.26052500  1
  O  O210  1  0.50614437  0.86795064  0.76329880  1
  O  O211  1  0.50489090  0.13691851  0.24697607  1
  O  O212  1  0.49377514  0.13427620  0.74621166  1
  O  O213  1  0.52114578  0.63584905  0.23361560  1
  O  O214  1  0.50237574  0.63234083  0.73853509  1
  O  O215  1  0.99240776  0.13613737  0.24954169  1
  O  O216  1  1.00246122  0.12270484  0.73784315  1
  O  O217  1  0.99406459  0.63065723  0.24583826  1
  O  O218  1  0.98891204  0.63196306  0.75260078  1
  O  O219  1  0.38156242  0.24958313  0.01155277  1
  O  O220  1  0.38204317  0.26615306  0.51607284  1
  O  O221  1  0.36885441  0.75018927  0.00004272  1
  O  O222  1  0.36352522  0.74750254  0.50473910  1
  O  O223  1  0.88053369  0.25884421  0.01056783  1
  O  O224  1  0.86491795  0.25552833  0.50359841  1
  O  O225  1  0.87518145  0.75216389  0.01361235  1
  O  O226  1  0.87131687  0.75277062  0.50493566  1
  O  O227  1  0.11508838  0.23903741  0.49992447  1
  O  O228  1  0.11541594  0.23694722  1.00030914  1
  O  O229  1  0.13209880  0.74308841  0.49481599  1
  O  O230  1  0.12308344  0.73660233  1.00246899  1
  O  O231  1  0.62840537  0.25009971  0.49151083  1
  O  O232  1  0.61803317  0.23887259  0.99191691  1
  O  O233  1  0.63521884  0.75156145  0.49085569  1
  O  O234  1  0.62667624  0.73738623  1.00190349  1
  O  O235  1  0.49151815  0.24389992  0.13440027  1
  O  O236  1  0.49466886  0.24754321  0.63347868  1
  O  O237  1  0.49818031  0.74481512  0.13291837  1
  O  O238  1  0.49557707  0.74303184  0.62637902  1
  O  O239  1  0.98828001  0.25257018  0.13713972  1
  O  O240  1  0.99572209  0.23433696  0.63235032  1
  O  O241  1  0.99402980  0.74627559  0.13126345  1
  O  O242  1  0.98837802  0.75341935  0.62966194  1
  O  O243  1  -0.00246499  0.25802639  0.36536730  1
  O  O244  1  -0.00124564  0.24076861  0.86418502  1
  O  O245  1  0.01171121  0.74875960  0.36923823  1
  O  O246  1  -0.00596415  0.75268889  0.86216113  1
  O  O247  1  0.50619451  0.24651466  0.36234248  1
  O  O248  1  0.50868596  0.25575920  0.86805185  1
  O  O249  1  0.50711206  0.75344499  0.37206415  1
  O  O250  1  0.50465627  0.76201399  0.86512062  1
  O  O251  1  0.23776264  0.12401937  0.48702035  1
  O  O252  1  0.24117999  0.11923391  0.99078396  1
  O  O253  1  0.24044375  0.63080932  0.49245524  1
  O  O254  1  0.23891078  0.62491064  0.98631920  1
  O  O255  1  0.74730952  0.13659871  0.49784719  1
  O  O256  1  0.73513541  0.11528169  0.99135938  1
  O  O257  1  0.75592188  0.63643117  0.49400612  1
  O  O258  1  0.74303660  0.62735124  0.99252852  1
  O  O259  1  0.25263972  0.38719364  0.00468279  1
  O  O260  1  0.26467097  0.38262084  0.50423419  1
  O  O261  1  0.24103051  0.87887746  0.00327943  1
  O  O262  1  0.24572531  0.86803006  0.49962856  1
  O  O263  1  0.75672686  0.38198289  0.01250682  1
  O  O264  1  0.75173687  0.36312869  0.50222950  1
  O  O265  1  0.75035615  0.87368322  0.01445990  1
  O  O266  1  0.75657667  0.86288193  0.50456916  1
  O  O267  1  0.11383372  0.49263135  0.23779091  1
  O  O268  1  0.14159580  0.50759679  0.75067685  1
  O  O269  1  0.12147246  0.99707124  0.24384448  1
  O  O270  1  0.13367615  0.99745835  0.73934400  1
  O  O271  1  0.62485263  0.48622545  0.24596159  1
  O  O272  1  0.62576216  0.49875934  0.73750976  1
  O  O273  1  0.62912751  0.99181962  0.24723780  1
  O  O274  1  0.63499706  1.00170134  0.74797480  1
  O  O275  1  0.36215001  0.00468837  0.25053292  1
  O  O276  1  0.37183850  0.00647268  0.75790792  1
  O  O277  1  0.41582791  0.50770410  0.25684343  1
  O  O278  1  0.36094086  0.50574254  0.74909788  1
  O  O279  1  0.86975902  0.00568875  0.25516565  1
  O  O280  1  0.86927761  -0.00315613  0.76077766  1
  O  O281  1  0.86807675  0.50346985  0.25582731  1
  O  O282  1  0.88139123  0.50586674  0.76071986  1
  O  O283  1  0.11820721  0.37489799  0.36911429  1
  O  O284  1  0.12239816  0.37617639  0.86561545  1
  O  O285  1  0.11934136  0.86860911  0.37020623  1
  O  O286  1  0.11843998  0.88754792  0.85714567  1
  O  O287  1  0.63156678  0.36034113  0.36351725  1
  O  O288  1  0.62149059  0.36320211  0.88199649  1
  O  O289  1  0.62436379  0.86581195  0.36566450  1
  O  O290  1  0.62029093  0.87675677  0.87573012  1
  O  O291  1  0.37735689  0.13619687  0.12143726  1
  O  O292  1  0.38518500  0.13888748  0.63130386  1
  O  O293  1  0.38821278  0.62534048  0.12645372  1
  O  O294  1  0.38635975  0.63341137  0.62459264  1
  O  O295  1  0.87374816  0.13388536  0.13022918  1
  O  O296  1  0.88904869  0.12124784  0.62051252  1
  O  O297  1  0.87891784  0.63105917  0.12940909  1
  O  O298  1  0.86961970  0.63213798  0.63277036  1
  O  O299  1  0.26503031  0.24807768  0.13112043  1
  O  O300  1  0.26553422  0.24682112  0.63152152  1
  O  O301  1  0.25075479  0.75518820  0.11957773  1
  O  O302  1  0.26485645  0.74755451  0.61721679  1
  O  O303  1  0.76159525  0.25758183  0.13027813  1
  O  O304  1  0.74751470  0.25515055  0.61965954  1
  O  O305  1  0.75727378  0.75663336  0.12712683  1
  O  O306  1  0.75832858  0.75301977  0.61813933  1
  O  O307  1  0.24584289  0.23610563  0.36652773  1
  O  O308  1  0.25009898  0.23665327  0.86576190  1
  O  O309  1  0.23934554  0.74928027  0.38100626  1
  O  O310  1  0.24753692  0.73199954  0.87086859  1
  O  O311  1  0.74353836  0.24481179  0.38254006  1
  O  O312  1  0.74240980  0.23970272  0.87155484  1
  O  O313  1  0.74390495  0.74499684  0.38192439  1
  O  O314  1  0.76142701  0.73658331  0.87817984  1
  O  O315  1  0.00569995  0.11491433  0.00425235  1
  O  O316  1  0.00460927  0.11884888  0.50894174  1
  O  O317  1  0.00832992  0.62131510  0.00393951  1
  O  O318  1  0.01323746  0.61810712  0.49664965  1
  O  O319  1  0.51169901  0.11224471  -0.00147522  1
  O  O320  1  0.49741835  0.12246768  0.50960902  1
  O  O321  1  0.50799303  0.62175405  0.00134866  1
  O  O322  1  0.49619000  0.61199439  0.51086925  1
  O  O323  1  0.48963799  0.38579946  0.50661728  1
  O  O324  1  0.50032408  0.38515173  0.99116631  1
  O  O325  1  0.49906507  0.87357713  0.48379985  1
  O  O326  1  0.50584824  0.88066760  0.98517662  1
  O  O327  1  0.99353389  0.38169107  0.49634188  1
  O  O328  1  0.98932351  0.38529340  1.00663265  1
  O  O329  1  0.99276987  0.88185258  0.50161104  1
  O  O330  1  1.00237155  0.88858169  0.99911997  1
  O  O331  1  0.51772722  0.49965479  0.39690602  1
  O  O332  1  0.50886940  0.48962821  0.87845188  1
  O  O333  1  0.49861922  0.98361470  0.37474530  1
  O  O334  1  0.49687898  0.98894655  0.87897228  1
  O  O335  1  0.99325343  0.49496663  0.38183172  1
  O  O336  1  0.98807969  0.50620784  0.88851216  1
  O  O337  1  0.99078114  1.00019598  0.38264344  1
  O  O338  1  0.99159343  1.00391295  0.88161404  1
  O  O339  1  0.00659897  0.00380739  0.11919418  1
  O  O340  1  0.00586958  0.00739592  0.62243321  1
  O  O341  1  0.00208403  0.50846007  0.11365068  1
  O  O342  1  -0.00887087  0.49826823  0.61461237  1
  O  O343  1  0.50366383  -0.00343556  0.11733711  1
  O  O344  1  0.50038481  0.01061310  0.62629805  1
  O  O345  1  0.50553140  0.50796840  0.11205233  1
  O  O346  1  0.51015854  0.50468795  0.62308206  1
  O  O347  1  0.23708931  0.37373827  0.24690842  1
  O  O348  1  0.25186152  0.39222082  0.74834583  1
  O  O349  1  0.23382064  0.89416594  0.26062909  1
  O  O350  1  0.24263276  0.88162915  0.75248742  1
  O  O351  1  0.74105655  0.37803622  0.23993599  1
  O  O352  1  0.75614261  0.36822578  0.74178408  1
  O  O353  1  0.74404169  0.87785033  0.24333111  1
  O  O354  1  0.75519139  0.88226336  0.74109470  1
  O  O355  1  0.24402395  0.11540965  0.26326267  1
  O  O356  1  0.25639211  0.11651056  0.75416499  1
  O  O357  1  0.24637500  0.62576072  0.26531804  1
  O  O358  1  0.25609292  0.62257297  0.75835841  1
  O  O359  1  0.75482667  0.12011294  0.25581375  1
  O  O360  1  0.74856702  0.11403485  0.76022527  1
  O  O361  1  0.75287273  0.61744895  0.25438518  1
  O  O362  1  0.76552053  0.62752121  0.75671591  1
  O  O363  1  0.36047392  0.12993840  0.38654339  1
  O  O364  1  0.37155910  0.11775172  0.87101006  1
  O  O365  1  0.35467289  0.62428413  0.38039742  1
  O  O366  1  0.36928789  0.62617260  0.87421486  1
  O  O367  1  0.86792165  0.12061922  0.37110548  1
  O  O368  1  0.85986418  0.11582038  0.88444025  1
  O  O369  1  0.86791228  0.62047726  0.36846584  1
  O  O370  1  0.86983847  0.61652530  0.86900376  1
  O  O371  1  0.12524856  0.38621747  0.13221217  1
  O  O372  1  0.12759584  0.37148963  0.63650267  1
  O  O373  1  0.12487243  0.88929077  0.13533213  1
  O  O374  1  0.12042280  0.88940429  0.63227531  1
  O  O375  1  0.63286609  0.37092740  0.12834066  1
  O  O376  1  0.63304846  0.38346222  0.62673089  1
  O  O377  1  0.63045634  0.87714694  0.13654175  1
  O  O378  1  0.63903935  0.87204665  0.61923829  1
  O  O379  1  0.11381770  0.26055392  0.24904492  1
  O  O380  1  0.10604139  0.24240089  0.75412261  1
  O  O381  1  0.12296626  0.76000310  0.25736405  1
  O  O382  1  0.11570007  0.75970986  0.73998167  1
  O  O383  1  0.61832762  0.25226820  0.25543505  1
  O  O384  1  0.61490201  0.24517192  0.76165709  1
  O  O385  1  0.62018528  0.75757201  0.25742573  1
  O  O386  1  0.61674904  0.74588264  0.73886303  1
  O  O387  1  0.38738306  0.25322054  0.24338443  1
  O  O388  1  0.38406888  0.24877471  0.74137843  1
  O  O389  1  0.39228061  0.72788465  0.25976755  1
  O  O390  1  0.38716679  0.74703517  0.74043243  1
  O  O391  1  0.87931307  0.24760757  0.24509528  1
  O  O392  1  0.88974972  0.24270898  0.74836859  1
  O  O393  1  0.87910812  0.74475564  0.24114660  1
  O  O394  1  0.88388652  0.74347050  0.74124075  1
  O  O395  1  0.38794724  0.48809618  0.50576453  1
  O  O396  1  0.39106963  0.50250032  0.99954420  1
  O  O397  1  0.36793639  0.99073304  0.51440594  1
  O  O398  1  0.38780681  1.00331907  0.99264820  1
  O  O399  1  0.87969155  0.49555117  0.49446649  1
  O  O400  1  0.88147251  0.49300897  0.99572071  1
  O  O401  1  0.87708893  0.99307465  0.49578430  1
  O  O402  1  0.88279181  0.99845593  0.99401315  1
  O  O403  1  0.11712649  0.01126706  0.00877042  1
  O  O404  1  0.11799366  0.00648551  0.50578275  1
  O  O405  1  0.11695406  0.51128705  0.00696277  1
  O  O406  1  0.11654344  0.51340718  0.49941095  1
  O  O407  1  0.61568698  0.00326253  0.00682662  1
  O  O408  1  0.61822886  0.00319950  0.50434241  1
  O  O409  1  0.61719489  0.51234973  -0.00100959  1
  O  O410  1  0.61363028  0.49052551  0.51407995  1
  O  O411  1  0.37303386  0.35943138  0.11924118  1
  O  O412  1  0.37102752  0.36680364  0.62427358  1
  O  O413  1  0.36149319  0.85783572  0.16833704  1
  O  O414  1  0.37894309  0.86818279  0.62936113  1
  O  O415  1  0.86792365  0.36979609  0.11850463  1
  O  O416  1  0.86189037  0.37156372  0.61734704  1
  O  O417  1  0.86706169  0.86733511  0.12698513  1
  O  O418  1  0.86585053  0.86606836  0.61913709  1
  O  O419  1  0.12751679  0.12948444  0.38564300  1
  O  O420  1  0.13542093  0.12474297  0.88435110  1
  O  O421  1  0.13289244  0.63282209  0.38227865  1
  O  O422  1  0.12071534  0.62509737  0.88694548  1
  O  O423  1  0.63083130  0.13553852  0.37562009  1
  O  O424  1  0.63225118  0.13142732  0.88156215  1
  O  O425  1  0.63127505  0.63615905  0.36977857  1
  O  O426  1  0.63801793  0.62176473  0.87905151  1
