# generated using pymatgen
data_V85Zn86O256
_symmetry_space_group_name_H-M   'P 1'
_cell_length_a   16.93063713
_cell_length_b   16.92988640
_cell_length_c   16.93287175
_cell_angle_alpha   90.09602885
_cell_angle_beta   89.99570267
_cell_angle_gamma   89.99353084
_symmetry_Int_Tables_number   1
_chemical_formula_structural   V85Zn86O256
_chemical_formula_sum   'V85 Zn86 O256'
_cell_volume   4853.52589270
_cell_formula_units_Z   1
loop_
 _symmetry_equiv_pos_site_id
 _symmetry_equiv_pos_as_xyz
  1  'x, y, z'
loop_
 _atom_site_type_symbol
 _atom_site_label
 _atom_site_symmetry_multiplicity
 _atom_site_fract_x
 _atom_site_fract_y
 _atom_site_fract_z
 _atom_site_occupancy
  V  V0  1  0.25080749  -0.00128109  0.24899488  1
  V  V1  1  0.00328131  0.49791844  0.49339389  1
  V  V2  1  0.87667197  0.74256771  0.12190051  1
  V  V3  1  0.12476101  0.87309642  0.25122801  1
  V  V4  1  0.11869531  0.25211133  0.37539211  1
  V  V5  1  -0.01493573  -0.00621686  0.49686121  1
  V  V6  1  0.87528295  0.61655315  0.24484467  1
  V  V7  1  0.37823094  0.12613974  0.24836168  1
  V  V8  1  0.24901650  0.00261358  0.76385619  1
  V  V9  1  0.12535916  0.50122083  0.62744838  1
  V  V10  1  0.36888270  0.51374928  0.87611564  1
  V  V11  1  0.87398116  0.24244227  0.12651927  1
  V  V12  1  0.49917472  0.38616789  0.88351423  1
  V  V13  1  0.49613107  0.38215162  0.37466477  1
  V  V14  1  0.50692341  0.12419103  0.10797952  1
  V  V15  1  0.12393651  0.63341242  -0.00236395  1
  V  V16  1  0.75058539  0.50574457  0.75950881  1
  V  V17  1  0.39122573  -0.00261983  0.88183718  1
  V  V18  1  0.50025867  0.87130717  0.36432756  1
  V  V19  1  0.87182920  0.49659517  0.37104479  1
  V  V20  1  0.87904911  0.37749930  0.49789143  1
  V  V21  1  0.25067176  0.12376872  0.37470961  1
  V  V22  1  0.62010794  0.50291810  0.62514154  1
  V  V23  1  0.00066321  0.37776224  0.88052835  1
  V  V24  1  0.37376907  0.38156108  0.49753636  1
  V  V25  1  0.75506070  0.11835672  0.37405811  1
  V  V26  1  0.75033194  0.25153817  0.50062929  1
  V  V27  1  0.60189032  0.75311370  0.87171065  1
  V  V28  1  0.87525443  -0.01945119  0.87102598  1
  V  V29  1  0.60508205  0.87756050  0.75829467  1
  V  V30  1  0.74792301  0.24569943  0.00341333  1
  V  V31  1  0.13670681  0.24697391  0.88021249  1
  V  V32  1  0.38058222  0.86748583  0.50236627  1
  V  V33  1  0.74627598  0.00053028  0.75167058  1
  V  V34  1  -0.00096035  0.12454149  0.62511115  1
  V  V35  1  0.62232544  0.24872814  0.88114305  1
  V  V36  1  0.37233587  0.74792725  0.12802762  1
  V  V37  1  0.62423406  0.37785203  0.75167864  1
  V  V38  1  0.49812437  0.25387466  0.75154743  1
  V  V39  1  0.24944026  0.24791044  0.50034871  1
  V  V40  1  0.87628651  0.62538871  0.75503924  1
  V  V41  1  0.25188495  0.74680615  -0.01698201  1
  V  V42  1  0.13410584  0.12772889  -0.00162205  1
  V  V43  1  0.00245548  0.50369364  0.01215920  1
  V  V44  1  0.12543027  0.37691736  0.75223281  1
  V  V45  1  0.37701633  0.64261751  0.73748738  1
  V  V46  1  0.13405548  0.74720119  0.37356309  1
  V  V47  1  0.36641034  0.38003326  -0.00160246  1
  V  V48  1  0.36766345  0.25169751  0.11864783  1
  V  V49  1  0.12654760  0.37748429  0.25161655  1
  V  V50  1  0.62243362  0.00323886  0.62760174  1
  V  V51  1  0.62802932  0.38223377  0.25063023  1
  V  V52  1  0.74784769  0.86782229  0.12002478  1
  V  V53  1  -0.00238722  0.25250834  0.25254242  1
  V  V54  1  0.11917473  -0.00105229  0.12510853  1
  V  V55  1  0.62439373  0.74695281  0.36187950  1
  V  V56  1  0.00246296  0.74208055  0.24299585  1
  V  V57  1  0.25910454  0.50353261  0.26144999  1
  V  V58  1  0.75092681  0.38088863  0.62589875  1
  V  V59  1  0.75193526  0.74666097  -0.02002747  1
  V  V60  1  0.61879047  0.49890483  0.11904812  1
  V  V61  1  0.12251224  0.87324794  0.76401433  1
  V  V62  1  0.49642796  0.12412071  0.62516975  1
  V  V63  1  0.36778779  0.12586649  0.76009733  1
  V  V64  1  0.25544960  0.87086131  0.62483418  1
  V  V65  1  0.75213493  0.62636650  0.37277531  1
  V  V66  1  0.37815859  0.62748226  0.26725503  1
  V  V67  1  0.75631091  -0.00740788  0.24855879  1
  V  V68  1  0.62663373  0.25057510  0.37370238  1
  V  V69  1  0.24980921  0.37528064  0.62684530  1
  V  V70  1  0.00473289  0.75356377  0.76983247  1
  V  V71  1  0.62525978  0.62082253  -0.00868078  1
  V  V72  1  -0.00056648  0.25093484  0.75371590  1
  V  V73  1  -0.01216382  0.87393565  0.37696772  1
  V  V74  1  0.00359656  0.63480495  0.62641884  1
  V  V75  1  0.12570106  -0.00433885  0.62491157  1
  V  V76  1  0.49670532  0.62535189  0.12386646  1
  V  V77  1  0.37350063  0.25036120  0.62626504  1
  V  V78  1  0.49960811  0.24950432  0.24883970  1
  V  V79  1  0.12524429  0.12119202  0.49941785  1
  V  V80  1  0.49873940  0.00270621  0.49496135  1
  V  V81  1  0.75150691  0.38071981  0.12806368  1
  V  V82  1  0.62723633  0.62579139  0.49843689  1
  V  V83  1  0.13428776  0.62460441  0.49507315  1
  V  V84  1  0.75670324  0.13283833  0.87203890  1
  Zn  Zn85  1  0.87145782  0.76810611  0.60596035  1
  Zn  Zn86  1  0.37815056  -0.00001612  0.37225427  1
  Zn  Zn87  1  0.61927065  -0.00225962  0.11896941  1
  Zn  Zn88  1  0.38680421  0.87357110  -0.00023678  1
  Zn  Zn89  1  0.24789231  0.51214208  0.75449140  1
  Zn  Zn90  1  -0.00123937  0.12441288  0.12320037  1
  Zn  Zn91  1  0.62431789  0.12868020  0.49982289  1
  Zn  Zn92  1  0.88313532  0.86537840  -0.00574040  1
  Zn  Zn93  1  0.50476399  0.65203384  0.62460882  1
  Zn  Zn94  1  0.87730064  0.12464974  0.75003330  1
  Zn  Zn95  1  0.25674414  0.74544451  0.50016185  1
  Zn  Zn96  1  0.49475309  0.50318609  0.50073418  1
  Zn  Zn97  1  0.87718991  0.37617189  0.00363679  1
  Zn  Zn98  1  0.62285008  0.87245791  0.24517535  1
  Zn  Zn99  1  0.25173627  0.87174295  0.12286155  1
  Zn  Zn100  1  0.87358927  0.50182178  0.88135942  1
  Zn  Zn101  1  0.87553058  0.25197130  0.62578734  1
  Zn  Zn102  1  0.88002048  0.11643144  0.25527117  1
  Zn  Zn103  1  0.75666108  0.87823496  0.61078746  1
  Zn  Zn104  1  0.12862732  0.50740589  0.12928334  1
  Zn  Zn105  1  0.24929299  0.37771302  0.12398921  1
  Zn  Zn106  1  0.00167846  -0.00338867  -0.00940383  1
  Zn  Zn107  1  0.18682405  0.18628147  0.18613348  1
  Zn  Zn108  1  0.18485935  0.18714913  0.68995504  1
  Zn  Zn109  1  0.19116128  0.68100794  0.18479801  1
  Zn  Zn110  1  0.18968350  0.69081444  0.69204331  1
  Zn  Zn111  1  0.68901597  0.18538036  0.19014993  1
  Zn  Zn112  1  0.68643899  0.19163173  0.68901341  1
  Zn  Zn113  1  0.69330512  0.68006749  0.18457118  1
  Zn  Zn114  1  0.68778537  0.69206030  0.68851404  1
  Zn  Zn115  1  0.31040550  0.31247132  0.31200773  1
  Zn  Zn116  1  0.31245010  0.31907166  0.81352873  1
  Zn  Zn117  1  0.31557111  0.81259342  0.31223875  1
  Zn  Zn118  1  0.31593671  0.82015562  0.81222605  1
  Zn  Zn119  1  0.81186965  0.31395811  0.31309298  1
  Zn  Zn120  1  0.81578041  0.31639982  0.81327420  1
  Zn  Zn121  1  0.81203145  0.80610796  0.30955435  1
  Zn  Zn122  1  0.79872754  0.80221587  0.78034288  1
  Zn  Zn123  1  0.18849814  0.43572979  0.43553018  1
  Zn  Zn124  1  0.18618284  0.44336409  0.93870260  1
  Zn  Zn125  1  0.18688214  0.93411048  0.43675861  1
  Zn  Zn126  1  0.19126475  0.93481727  0.94466508  1
  Zn  Zn127  1  0.69032508  0.44285286  0.43802475  1
  Zn  Zn128  1  0.68814890  0.43333848  0.94144011  1
  Zn  Zn129  1  0.68680955  0.93685529  0.43573115  1
  Zn  Zn130  1  0.57218216  0.93994396  0.95046135  1
  Zn  Zn131  1  0.31127183  0.06477271  0.06399702  1
  Zn  Zn132  1  0.31385275  0.05691786  0.56710900  1
  Zn  Zn133  1  0.30709084  0.56224832  0.06402018  1
  Zn  Zn134  1  0.31285962  0.56355998  0.56737488  1
  Zn  Zn135  1  0.75470728  0.01871068  0.01188043  1
  Zn  Zn136  1  0.81124670  0.06380250  0.56396139  1
  Zn  Zn137  1  0.80857180  0.56238943  0.05981323  1
  Zn  Zn138  1  0.83228986  0.59677944  0.54706054  1
  Zn  Zn139  1  0.43665470  0.44057398  0.18695126  1
  Zn  Zn140  1  0.43499344  0.44193644  0.69288675  1
  Zn  Zn141  1  0.43731354  0.93946383  0.17950981  1
  Zn  Zn142  1  0.44695185  0.81880115  0.67704546  1
  Zn  Zn143  1  0.94041181  0.43047561  0.18936248  1
  Zn  Zn144  1  0.93789221  0.44242851  0.68678360  1
  Zn  Zn145  1  0.93531542  0.93059024  0.18595268  1
  Zn  Zn146  1  0.93551465  0.93317471  0.68800447  1
  Zn  Zn147  1  0.05978848  0.06119219  0.31345956  1
  Zn  Zn148  1  0.06179132  0.06248428  0.81497030  1
  Zn  Zn149  1  0.06240410  0.56165564  0.31269678  1
  Zn  Zn150  1  0.06447551  0.56512889  0.81956673  1
  Zn  Zn151  1  0.56982275  0.06050680  0.30552661  1
  Zn  Zn152  1  0.56147087  0.07209811  0.81332137  1
  Zn  Zn153  1  0.56070286  0.56118486  0.30834408  1
  Zn  Zn154  1  0.55646494  0.56829411  0.80986940  1
  Zn  Zn155  1  0.43671340  0.19157825  0.43589982  1
  Zn  Zn156  1  0.43201055  0.19372397  0.93712346  1
  Zn  Zn157  1  0.44848897  0.69131332  0.44310623  1
  Zn  Zn158  1  0.43649697  0.68226938  0.94474667  1
  Zn  Zn159  1  0.93660031  0.18686468  0.43990358  1
  Zn  Zn160  1  0.94171483  0.18485613  0.94339739  1
  Zn  Zn161  1  0.94447902  0.68834381  0.43430259  1
  Zn  Zn162  1  0.94083578  0.68142262  0.93841039  1
  Zn  Zn163  1  0.06406739  0.31220993  0.06600560  1
  Zn  Zn164  1  0.06187603  0.31298214  0.56290044  1
  Zn  Zn165  1  0.06266071  0.81547257  0.05780511  1
  Zn  Zn166  1  0.06560161  0.81394703  0.56053717  1
  Zn  Zn167  1  0.55748656  0.31170818  0.06188945  1
  Zn  Zn168  1  0.56184907  0.31461925  0.56211158  1
  Zn  Zn169  1  0.56155128  0.80355234  0.06412552  1
  Zn  Zn170  1  0.59476767  0.82082066  0.54964273  1
  O  O171  1  0.12261162  0.11933035  0.11684632  1
  O  O172  1  0.11650025  0.11664422  0.62189983  1
  O  O173  1  0.13026610  0.62273489  0.10883663  1
  O  O174  1  0.12146667  0.61848206  0.62162949  1
  O  O175  1  0.60831312  0.13230141  0.12791169  1
  O  O176  1  0.61524364  0.12153939  0.62685130  1
  O  O177  1  0.61920655  0.61608378  0.11996420  1
  O  O178  1  0.62845945  0.61955389  0.61731765  1
  O  O179  1  0.38424091  0.36491501  0.38543083  1
  O  O180  1  0.38125889  0.38420800  0.88030651  1
  O  O181  1  0.38273088  0.87870645  0.38155292  1
  O  O182  1  0.37607748  0.89443601  0.87661647  1
  O  O183  1  0.86984905  0.38134478  0.38848032  1
  O  O184  1  0.89037961  0.37578021  0.87871450  1
  O  O185  1  0.88860886  0.86305024  0.37408721  1
  O  O186  1  0.86777163  0.88112834  0.86440970  1
  O  O187  1  0.24974349  0.00508412  0.36404486  1
  O  O188  1  0.24828338  -0.00001978  0.86524407  1
  O  O189  1  0.24928037  0.49768157  0.36105366  1
  O  O190  1  0.26495035  0.49722172  0.87182033  1
  O  O191  1  0.74172509  0.00750214  0.36624552  1
  O  O192  1  0.76179456  0.01800212  0.86621772  1
  O  O193  1  0.76477586  0.50465160  0.37331323  1
  O  O194  1  0.75069131  0.49107262  0.86303124  1
  O  O195  1  0.24946049  0.49668628  0.13995282  1
  O  O196  1  0.23790369  0.49501703  0.62659367  1
  O  O197  1  0.24107017  1.00054252  0.13555204  1
  O  O198  1  0.24206809  0.99268641  0.63353044  1
  O  O199  1  0.73910019  0.48676375  0.12011439  1
  O  O200  1  0.73925111  0.48883281  0.63482456  1
  O  O201  1  0.75540043  0.97804447  0.12851537  1
  O  O202  1  0.73916187  1.00599254  0.63329551  1
  O  O203  1  0.01042776  0.36183650  0.25255193  1
  O  O204  1  0.00631868  0.37094064  0.75630351  1
  O  O205  1  0.00584599  0.86550137  0.25771853  1
  O  O206  1  0.00770611  0.86115763  0.74720327  1
  O  O207  1  0.50457543  0.36937777  0.25623571  1
  O  O208  1  0.50303257  0.37078650  0.75941646  1
  O  O209  1  0.49953410  0.88436114  0.26084712  1
  O  O210  1  0.50589164  0.88482944  0.75411606  1
  O  O211  1  0.49303300  0.13266178  0.25003577  1
  O  O212  1  0.48953721  0.13389070  0.74323199  1
  O  O213  1  0.48436234  0.61632271  0.24233486  1
  O  O214  1  0.48338750  0.62433977  0.74163125  1
  O  O215  1  0.99929424  0.13721950  0.24994717  1
  O  O216  1  1.00107939  0.13367153  0.74276291  1
  O  O217  1  0.98984220  0.63168817  0.25469394  1
  O  O218  1  1.00366386  0.63559811  0.74646584  1
  O  O219  1  0.37527860  0.26292953  0.00756067  1
  O  O220  1  0.36828869  0.25755950  0.50694685  1
  O  O221  1  0.36469495  0.74801203  0.00692123  1
  O  O222  1  0.37493905  0.76311597  0.49634355  1
  O  O223  1  0.86934001  0.25313331  0.01047386  1
  O  O224  1  0.87059424  0.26058418  0.50316422  1
  O  O225  1  0.86916271  0.74175123  0.00509910  1
  O  O226  1  0.87132267  0.70281634  0.51540378  1
  O  O227  1  0.12882417  0.24450156  0.49391438  1
  O  O228  1  0.11938109  0.23747628  0.99487654  1
  O  O229  1  0.12617701  0.74109853  0.49113776  1
  O  O230  1  0.13723528  0.74300692  1.00275546  1
  O  O231  1  0.63105400  0.25194557  0.49101154  1
  O  O232  1  0.63237119  0.25850595  0.99090845  1
  O  O233  1  0.62393466  0.72835573  0.47902495  1
  O  O234  1  0.63189789  0.74341904  0.98561805  1
  O  O235  1  0.49046525  0.24304881  0.12988458  1
  O  O236  1  0.49509942  0.24290358  0.62944033  1
  O  O237  1  0.48929221  0.73396540  0.12528847  1
  O  O238  1  0.51880950  0.76405592  0.61224755  1
  O  O239  1  0.99123276  0.25079186  0.13471190  1
  O  O240  1  1.00283615  0.24156712  0.63321859  1
  O  O241  1  0.99467936  0.75225000  0.13653926  1
  O  O242  1  1.00238398  0.73959453  0.62475097  1
  O  O243  1  0.01205379  0.24512167  0.37225688  1
  O  O244  1  0.00701643  0.25676613  0.86927873  1
  O  O245  1  0.00983405  0.75526458  0.36638279  1
  O  O246  1  0.00480817  0.74947909  0.86795597  1
  O  O247  1  0.51163821  0.25808436  0.37139982  1
  O  O248  1  0.50636670  0.25831564  0.87089453  1
  O  O249  1  0.50938857  0.76004404  0.37365200  1
  O  O250  1  0.50373172  0.74997267  0.87755691  1
  O  O251  1  0.24524577  0.12693691  0.49708319  1
  O  O252  1  0.23358181  0.12593920  1.00466054  1
  O  O253  1  0.23916090  0.62601857  0.50553879  1
  O  O254  1  0.24424351  0.63965741  1.00118483  1
  O  O255  1  0.74687018  0.13297114  0.49411913  1
  O  O256  1  0.75212748  0.14066968  0.98909402  1
  O  O257  1  0.73782929  0.60847358  0.48440884  1
  O  O258  1  0.73537625  0.63307391  1.00261175  1
  O  O259  1  0.26173886  0.37994587  0.00181020  1
  O  O260  1  0.25531911  0.36874319  0.50546701  1
  O  O261  1  0.25377428  0.85913186  0.00347800  1
  O  O262  1  0.26300056  0.88002006  0.50681248  1
  O  O263  1  0.75313382  0.36375054  0.00913823  1
  O  O264  1  0.75622847  0.37302008  0.50783830  1
  O  O265  1  0.76150570  0.85811742  0.01010149  1
  O  O266  1  0.69842698  0.86285724  0.51533054  1
  O  O267  1  0.13295846  0.49355210  0.25144300  1
  O  O268  1  0.12592491  0.49708540  0.74375349  1
  O  O269  1  0.13174421  0.99646384  0.24511687  1
  O  O270  1  0.12868100  0.99653921  0.74310175  1
  O  O271  1  0.62267007  0.48769384  0.24110510  1
  O  O272  1  0.63101940  0.49844305  0.74578530  1
  O  O273  1  0.63869327  0.99671568  0.23824020  1
  O  O274  1  0.62684747  1.00302531  0.74779864  1
  O  O275  1  0.36629956  0.00747187  0.24849498  1
  O  O276  1  0.36571926  0.01167374  0.76720002  1
  O  O277  1  0.36715992  0.50867809  0.25208380  1
  O  O278  1  0.37046841  0.50831069  0.76021663  1
  O  O279  1  0.86246272  -0.00122717  0.24699980  1
  O  O280  1  0.86565472  0.00319724  0.75623471  1
  O  O281  1  0.88588511  0.50342669  0.25930565  1
  O  O282  1  0.86716596  0.50297294  0.75523147  1
  O  O283  1  0.12999268  0.36431123  0.36472818  1
  O  O284  1  0.11726724  0.36962120  0.87294826  1
  O  O285  1  0.11899097  0.86614773  0.36864720  1
  O  O286  1  0.12696539  0.88375399  0.86280045  1
  O  O287  1  0.62234534  0.37088578  0.36838351  1
  O  O288  1  0.61622372  0.37075295  0.87154362  1
  O  O289  1  0.61822571  0.86348877  0.36647153  1
  O  O290  1  0.61877027  0.86184241  0.87212056  1
  O  O291  1  0.38267953  0.13325463  0.12787208  1
  O  O292  1  0.37997203  0.13034007  0.63359920  1
  O  O293  1  0.38248019  0.62762732  0.12767610  1
  O  O294  1  0.38095862  0.62857666  0.63320496  1
  O  O295  1  0.87500230  0.13989885  0.13244960  1
  O  O296  1  0.88822158  0.12796345  0.62643904  1
  O  O297  1  0.87055244  0.63174889  0.13123398  1
  O  O298  1  0.89569183  0.60748810  0.64341881  1
  O  O299  1  0.26449879  0.25389741  0.13309149  1
  O  O300  1  0.25216086  0.25449659  0.61964575  1
  O  O301  1  0.26334108  0.74836359  0.12403426  1
  O  O302  1  0.24123069  0.76758607  0.62026610  1
  O  O303  1  0.75336310  0.25579885  0.12008600  1
  O  O304  1  0.75084472  0.26290910  0.62107536  1
  O  O305  1  0.75830636  0.75099542  0.11903719  1
  O  O306  1  0.76568550  0.77001211  0.66550116  1
  O  O307  1  0.24003662  0.24360488  0.38046761  1
  O  O308  1  0.23557802  0.25432510  0.86932665  1
  O  O309  1  0.23769839  0.75580182  0.37785253  1
  O  O310  1  0.25649926  0.75197705  0.88470927  1
  O  O311  1  0.74013901  0.24661768  0.37853170  1
  O  O312  1  0.74324854  0.25262397  0.88085645  1
  O  O313  1  0.74450250  0.73341194  0.36993950  1
  O  O314  1  0.75106267  0.75240580  0.87932865  1
  O  O315  1  0.00893666  0.11526605  0.00457005  1
  O  O316  1  0.00640767  0.11844589  0.50622803  1
  O  O317  1  0.01285211  0.61838352  0.00104227  1
  O  O318  1  0.01502431  0.61476670  0.50869475  1
  O  O319  1  0.49951751  0.13318695  0.00961726  1
  O  O320  1  0.49880696  0.12313226  0.50679901  1
  O  O321  1  0.51409911  0.62623765  0.00948025  1
  O  O322  1  0.50960239  0.61855191  0.50599405  1
  O  O323  1  0.49088038  0.37428608  0.49264366  1
  O  O324  1  0.49003952  0.37300342  0.98844775  1
  O  O325  1  0.49676383  0.88668288  0.48725294  1
  O  O326  1  0.49976725  0.87667788  1.00794792  1
  O  O327  1  0.99125780  0.38460151  0.50624834  1
  O  O328  1  1.00203299  0.38183495  0.99523192  1
  O  O329  1  1.00548518  0.88177653  0.48890832  1
  O  O330  1  0.99398087  0.88406360  1.00418160  1
  O  O331  1  0.50440609  0.48489609  0.37713834  1
  O  O332  1  0.48849745  0.49247527  0.86880116  1
  O  O333  1  0.50266871  0.99782035  0.38099890  1
  O  O334  1  0.49428766  1.00697503  0.88029011  1
  O  O335  1  0.99244959  0.50324626  0.38755888  1
  O  O336  1  1.00213761  0.49125936  0.88686010  1
  O  O337  1  1.00474002  0.98671576  0.38344052  1
  O  O338  1  0.97759852  1.00515788  0.86957845  1
  O  O339  1  0.01227205  0.00126061  0.13318472  1
  O  O340  1  0.00764311  0.00605120  0.61978166  1
  O  O341  1  0.00392944  0.49213655  0.11515929  1
  O  O342  1  0.01281243  0.50436345  0.61805317  1
  O  O343  1  0.49939531  0.01989819  0.12598957  1
  O  O344  1  0.50393583  0.01688884  0.61779509  1
  O  O345  1  0.51113159  0.50676957  0.12653655  1
  O  O346  1  0.51500489  0.49400694  0.62667043  1
  O  O347  1  0.24641001  0.38548617  0.25004961  1
  O  O348  1  0.24213730  0.37769553  0.74224736  1
  O  O349  1  0.24457932  0.88381343  0.25015188  1
  O  O350  1  0.24380631  0.88335202  0.74348751  1
  O  O351  1  0.73943182  0.36861176  0.24059836  1
  O  O352  1  0.74547401  0.38015994  0.74347432  1
  O  O353  1  0.74920901  0.87648575  0.24351462  1
  O  O354  1  0.73252635  0.89694561  0.75841132  1
  O  O355  1  0.25648293  0.11877928  0.25399112  1
  O  O356  1  0.25839382  0.11679597  0.74301601  1
  O  O357  1  0.26391828  0.61360989  0.25104901  1
  O  O358  1  0.26893143  0.62812037  0.74459151  1
  O  O359  1  0.75225509  0.11551329  0.25708275  1
  O  O360  1  0.75209638  0.12202912  0.75425139  1
  O  O361  1  0.76577086  0.62091977  0.25547666  1
  O  O362  1  0.76209992  0.61496013  0.74379897  1
  O  O363  1  0.36833945  0.12497801  0.36812670  1
  O  O364  1  0.37839147  0.12068109  0.86648149  1
  O  O365  1  0.38326447  0.62976614  0.36574386  1
  O  O366  1  0.38093884  0.61653673  0.86620096  1
  O  O367  1  0.85905565  0.13285212  0.37407641  1
  O  O368  1  0.86379077  0.13763609  0.87007843  1
  O  O369  1  0.86994189  0.61604920  0.36661009  1
  O  O370  1  0.88310493  0.61912081  0.86059754  1
  O  O371  1  0.12914236  0.37264252  0.14053964  1
  O  O372  1  0.12856209  0.38215969  0.63058662  1
  O  O373  1  0.12918442  0.88273441  0.13289662  1
  O  O374  1  0.12963414  0.88539932  0.63018759  1
  O  O375  1  0.62704937  0.37992457  0.13024851  1
  O  O376  1  0.63127989  0.38054017  0.63087001  1
  O  O377  1  0.63657674  0.86548165  0.12821444  1
  O  O378  1  0.61862833  0.89753013  0.64298472  1
  O  O379  1  0.12113591  0.25451101  0.25774811  1
  O  O380  1  0.11560274  0.25451961  0.75725626  1
  O  O381  1  0.12034582  0.74953567  0.25422280  1
  O  O382  1  0.11387962  0.75823045  0.74781751  1
  O  O383  1  0.62023080  0.25989273  0.25628283  1
  O  O384  1  0.61867254  0.26049813  0.75701596  1
  O  O385  1  0.62771054  0.74239752  0.25816849  1
  O  O386  1  0.62323590  0.76043373  0.76515030  1
  O  O387  1  0.38107339  0.24581472  0.24416448  1
  O  O388  1  0.37725144  0.24583550  0.74676802  1
  O  O389  1  0.37026983  0.73421308  0.24535131  1
  O  O390  1  0.37761459  0.74787974  0.74619163  1
  O  O391  1  0.88400874  0.25226587  0.24743135  1
  O  O392  1  0.88927393  0.25361293  0.74628273  1
  O  O393  1  0.88327509  0.73782703  0.24278288  1
  O  O394  1  0.89548694  0.74043076  0.75045625  1
  O  O395  1  0.37459432  0.48582853  0.50686157  1
  O  O396  1  0.37317348  0.49826607  0.98612229  1
  O  O397  1  0.38758385  0.99624758  0.49882866  1
  O  O398  1  0.36581213  1.00465320  0.98247105  1
  O  O399  1  0.88439749  0.49736925  0.49409718  1
  O  O400  1  0.88404245  0.49884612  1.00010492  1
  O  O401  1  0.88659046  1.00704327  0.49817939  1
  O  O402  1  0.86386233  0.99424708  0.97780216  1
  O  O403  1  0.12643152  0.00817510  0.00872597  1
  O  O404  1  0.12156395  0.00367467  0.50895651  1
  O  O405  1  0.11960951  0.50747937  0.00610166  1
  O  O406  1  0.12145179  0.50299586  0.50464444  1
  O  O407  1  0.64423427  0.00246803  0.00779892  1
  O  O408  1  0.61202931  0.00832383  0.50907670  1
  O  O409  1  0.62830624  0.50704972  0.00618397  1
  O  O410  1  0.62176422  0.50438586  0.50874406  1
  O  O411  1  0.37812580  0.37018659  0.11521052  1
  O  O412  1  0.37053660  0.36900781  0.62103515  1
  O  O413  1  0.37312844  0.86309091  0.12475258  1
  O  O414  1  0.36784378  0.87978424  0.61573446  1
  O  O415  1  0.86478259  0.36577930  0.12796543  1
  O  O416  1  0.86765993  0.37884620  0.61538498  1
  O  O417  1  0.86874820  0.85512494  0.12752720  1
  O  O418  1  0.87155254  0.88136990  0.61444751  1
  O  O419  1  0.13095736  0.13056254  0.38025702  1
  O  O420  1  0.12112404  0.13159968  0.88822251  1
  O  O421  1  0.12056439  0.63313220  0.38394772  1
  O  O422  1  0.13012616  0.61807550  0.89633946  1
  O  O423  1  0.63350497  0.13584609  0.37380263  1
  O  O424  1  0.63599799  0.14340648  0.86747327  1
  O  O425  1  0.63242955  0.62233753  0.37506002  1
  O  O426  1  0.61828755  0.63760237  0.87920259  1
