# generated using pymatgen
data_V85Zn86O256
_symmetry_space_group_name_H-M   'P 1'
_cell_length_a   16.92344849
_cell_length_b   16.91736043
_cell_length_c   16.91142666
_cell_angle_alpha   89.99199897
_cell_angle_beta   90.03751256
_cell_angle_gamma   90.03930570
_symmetry_Int_Tables_number   1
_chemical_formula_structural   V85Zn86O256
_chemical_formula_sum   'V85 Zn86 O256'
_cell_volume   4841.74054324
_cell_formula_units_Z   1
loop_
 _symmetry_equiv_pos_site_id
 _symmetry_equiv_pos_as_xyz
  1  'x, y, z'
loop_
 _atom_site_type_symbol
 _atom_site_label
 _atom_site_symmetry_multiplicity
 _atom_site_fract_x
 _atom_site_fract_y
 _atom_site_fract_z
 _atom_site_occupancy
  V  V0  1  0.50016885  0.48122064  -0.00713204  1
  V  V1  1  0.12270180  0.87130677  0.75274296  1
  V  V2  1  0.38092703  0.36748806  0.50243210  1
  V  V3  1  0.62769565  0.49541136  0.62859794  1
  V  V4  1  -0.00692565  0.13097347  0.61723266  1
  V  V5  1  0.38097738  0.25542181  0.11577216  1
  V  V6  1  0.00009717  0.62409619  0.62850957  1
  V  V7  1  0.88243572  0.12608047  0.25144277  1
  V  V8  1  0.00918481  0.62935042  0.13027237  1
  V  V9  1  0.62323154  0.62367959  0.50424152  1
  V  V10  1  0.49781268  0.62284286  0.63897848  1
  V  V11  1  0.23781350  0.73942420  -0.00599543  1
  V  V12  1  0.74671549  0.87913233  0.64316680  1
  V  V13  1  0.24739521  0.87419851  0.62406217  1
  V  V14  1  0.25102860  -0.00072299  0.24660627  1
  V  V15  1  0.13070714  0.49905762  0.63380906  1
  V  V16  1  0.62301262  0.37452255  0.76599202  1
  V  V17  1  0.37969544  0.86670235  -0.00469723  1
  V  V18  1  0.87222495  0.50180626  0.87972753  1
  V  V19  1  0.12646759  0.37653845  0.24754563  1
  V  V20  1  0.50014366  0.63279225  0.10774461  1
  V  V21  1  0.00921157  0.50712043  0.00101845  1
  V  V22  1  0.12855170  0.62228049  0.50118679  1
  V  V23  1  0.00146124  0.50130671  0.50099612  1
  V  V24  1  0.62395732  0.49834752  0.12844954  1
  V  V25  1  0.37729067  0.49730530  0.37326069  1
  V  V26  1  0.74941004  0.50277766  0.75597509  1
  V  V27  1  0.11464974  -0.00199874  0.61432233  1
  V  V28  1  0.74704268  0.73135469  -0.00287809  1
  V  V29  1  0.12316778  0.13460858  -0.00647811  1
  V  V30  1  0.50644401  0.77014074  0.75378929  1
  V  V31  1  0.87994638  0.25448254  0.13215328  1
  V  V32  1  0.37516811  0.00000862  0.37285262  1
  V  V33  1  0.74727844  0.11520700  0.87453272  1
  V  V34  1  0.50144521  0.00084955  0.49881378  1
  V  V35  1  0.62096186  0.00100205  0.12131462  1
  V  V36  1  0.11709395  0.74520997  0.36911110  1
  V  V37  1  0.12805987  0.36651296  0.75306047  1
  V  V38  1  0.37718042  0.49656275  0.86632650  1
  V  V39  1  0.12572395  0.00112994  0.12416007  1
  V  V40  1  0.87351682  0.75791505  0.62762461  1
  V  V41  1  0.62337545  0.87329085  0.24953982  1
  V  V42  1  0.87597601  0.37675235  0.00418153  1
  V  V43  1  0.25298609  0.74732704  0.49912665  1
  V  V44  1  0.00287002  0.87389508  0.87774448  1
  V  V45  1  0.62336384  0.75008001  0.37613612  1
  V  V46  1  0.24919343  0.62210230  0.85561312  1
  V  V47  1  0.75105905  0.12584442  0.37456971  1
  V  V48  1  0.25165180  0.37573438  0.11524802  1
  V  V49  1  0.62405173  0.25199976  0.36073856  1
  V  V50  1  0.24516267  0.13269533  0.87190682  1
  V  V51  1  0.75003758  0.25154317  -0.00259227  1
  V  V52  1  0.37928772  -0.00110812  0.87373328  1
  V  V53  1  0.25037629  0.24762528  0.50325907  1
  V  V54  1  0.87952833  -0.00652576  0.38851670  1
  V  V55  1  0.37491662  0.74606435  0.63401003  1
  V  V56  1  0.11514755  0.87077533  0.24826503  1
  V  V57  1  0.12170622  0.24882684  0.36980479  1
  V  V58  1  0.25383273  0.86882787  0.12025205  1
  V  V59  1  0.87581362  0.74721578  0.13206301  1
  V  V60  1  0.75199345  0.62665809  0.37555643  1
  V  V61  1  0.74927330  0.87248849  0.11911385  1
  V  V62  1  0.62622504  -0.00041617  0.64019845  1
  V  V63  1  0.25468932  0.62351651  0.37176827  1
  V  V64  1  0.37618721  0.87421833  0.49912216  1
  V  V65  1  0.87488435  0.50277447  0.37814522  1
  V  V66  1  0.49232906  0.74741960  0.24795330  1
  V  V67  1  0.48975883  0.25409841  0.75087424  1
  V  V68  1  0.38300671  0.13187213  0.24646833  1
  V  V69  1  -0.00217718  0.00129080  -0.00196799  1
  V  V70  1  0.24681791  0.00099097  0.74996155  1
  V  V71  1  0.74785571  0.75984075  0.50617122  1
  V  V72  1  0.75372037  0.25305702  0.50698188  1
  V  V73  1  0.62396590  0.12556579  0.49975363  1
  V  V74  1  0.00090234  0.74771114  0.75946136  1
  V  V75  1  0.87225038  0.62469253  0.75745849  1
  V  V76  1  0.86940712  0.12772970  0.74839210  1
  V  V77  1  0.25542666  0.37559671  0.62806266  1
  V  V78  1  0.62359401  0.75262043  0.87872994  1
  V  V79  1  0.00126308  0.12761616  0.12671356  1
  V  V80  1  0.50420919  0.37100259  0.36002328  1
  V  V81  1  -0.00121136  0.37241319  0.37105681  1
  V  V82  1  0.00444159  0.36750859  0.87714165  1
  V  V83  1  0.75247056  -0.00128988  0.24931539  1
  V  V84  1  0.24955452  0.12575007  0.37224960  1
  Zn  Zn85  1  -0.00156321  0.87808624  0.38634817  1
  Zn  Zn86  1  0.50218483  0.49575054  0.50192861  1
  Zn  Zn87  1  0.74160179  0.37033026  0.13488338  1
  Zn  Zn88  1  0.50274779  0.12967015  0.12204093  1
  Zn  Zn89  1  0.36931326  0.13262391  0.74371776  1
  Zn  Zn90  1  0.87202842  -0.00340388  0.86758461  1
  Zn  Zn91  1  0.88168019  0.63010281  0.25761961  1
  Zn  Zn92  1  0.87499158  0.87330084  -0.00008763  1
  Zn  Zn93  1  0.37641064  0.62612080  0.24154039  1
  Zn  Zn94  1  0.62137374  0.12586364  -0.00106955  1
  Zn  Zn95  1  0.11886799  0.11886213  0.49420115  1
  Zn  Zn96  1  0.74256561  0.49383000  0.25578122  1
  Zn  Zn97  1  0.88129537  0.36935185  0.50717736  1
  Zn  Zn98  1  -0.00324523  0.25170340  0.74691815  1
  Zn  Zn99  1  0.13304676  0.50580636  0.12078677  1
  Zn  Zn100  1  0.50010504  -0.00044987  -0.00620107  1
  Zn  Zn101  1  0.25385879  0.49969545  0.24506676  1
  Zn  Zn102  1  0.49076020  0.13481130  0.62192018  1
  Zn  Zn103  1  0.25028032  0.25569374  -0.00770657  1
  Zn  Zn104  1  0.61659346  0.25252694  0.88123944  1
  Zn  Zn105  1  0.49979541  0.87395717  0.37398894  1
  Zn  Zn106  1  0.76003511  0.37002555  0.63349997  1
  Zn  Zn107  1  0.19171091  0.19096854  0.18548905  1
  Zn  Zn108  1  0.18207696  0.18659967  0.68262183  1
  Zn  Zn109  1  0.19362070  0.68930216  0.18515291  1
  Zn  Zn110  1  0.18612432  0.68885257  0.69016178  1
  Zn  Zn111  1  0.69400501  0.18508217  0.18445439  1
  Zn  Zn112  1  0.68136870  0.18693516  0.69087258  1
  Zn  Zn113  1  0.68134620  0.68272933  0.18669775  1
  Zn  Zn114  1  0.68392241  0.68631563  0.69743787  1
  Zn  Zn115  1  0.31235058  0.31199529  0.30848628  1
  Zn  Zn116  1  0.31436313  0.31902677  0.81453310  1
  Zn  Zn117  1  0.30955487  0.81303193  0.31055839  1
  Zn  Zn118  1  0.31114853  0.80936281  0.81528588  1
  Zn  Zn119  1  0.81110667  0.31442463  0.31444883  1
  Zn  Zn120  1  0.81447812  0.31184935  0.81364967  1
  Zn  Zn121  1  0.80983075  0.81322415  0.31229056  1
  Zn  Zn122  1  0.81220653  0.81231124  0.81943010  1
  Zn  Zn123  1  0.18954376  0.43627158  0.43907442  1
  Zn  Zn124  1  0.19147778  0.44463030  0.93221758  1
  Zn  Zn125  1  0.18783553  0.93364889  0.43404587  1
  Zn  Zn126  1  0.18765732  0.93978993  0.93744151  1
  Zn  Zn127  1  0.68584401  0.43579502  0.43726410  1
  Zn  Zn128  1  0.68843138  0.44409682  0.94771248  1
  Zn  Zn129  1  0.69024328  0.93805646  0.43853130  1
  Zn  Zn130  1  0.68327428  0.93272593  0.93455441  1
  Zn  Zn131  1  0.31319274  0.06377541  0.05863544  1
  Zn  Zn132  1  0.30964111  0.06294732  0.56198932  1
  Zn  Zn133  1  0.32095353  0.56143029  0.05714857  1
  Zn  Zn134  1  0.31667742  0.55818447  0.56273862  1
  Zn  Zn135  1  0.81169506  0.06340644  0.06166227  1
  Zn  Zn136  1  0.80896587  0.06387107  0.56606600  1
  Zn  Zn137  1  0.81626758  0.56141570  0.06894804  1
  Zn  Zn138  1  0.81230350  0.56442202  0.56532620  1
  Zn  Zn139  1  0.43788470  0.44083566  0.18154020  1
  Zn  Zn140  1  0.43995167  0.43408757  0.68955468  1
  Zn  Zn141  1  0.43609232  0.93485770  0.18445978  1
  Zn  Zn142  1  0.43341632  0.94661151  0.68161217  1
  Zn  Zn143  1  0.93705806  0.44347699  0.19193612  1
  Zn  Zn144  1  0.93860135  0.43462992  0.68803960  1
  Zn  Zn145  1  0.93620495  0.93793642  0.18765963  1
  Zn  Zn146  1  0.93441053  0.94148181  0.68789625  1
  Zn  Zn147  1  0.06019342  0.05773040  0.31330902  1
  Zn  Zn148  1  0.05878636  0.06340646  0.80777053  1
  Zn  Zn149  1  0.06482721  0.56052143  0.31004664  1
  Zn  Zn150  1  0.06578294  0.55910078  0.81681354  1
  Zn  Zn151  1  0.56326234  0.06240577  0.31105770  1
  Zn  Zn152  1  0.55822688  0.07244865  0.81354882  1
  Zn  Zn153  1  0.55999270  0.56338471  0.31188883  1
  Zn  Zn154  1  0.56400980  0.56960818  0.81965223  1
  Zn  Zn155  1  0.43858457  0.18961275  0.43433782  1
  Zn  Zn156  1  0.43764944  0.18464726  0.93410912  1
  Zn  Zn157  1  0.43988670  0.68646124  0.44046479  1
  Zn  Zn158  1  0.43174875  0.68880563  0.92703856  1
  Zn  Zn159  1  0.93726551  0.18671881  0.43617727  1
  Zn  Zn160  1  0.93249514  0.18770983  0.93676419  1
  Zn  Zn161  1  0.94520897  0.71014446  0.44955114  1
  Zn  Zn162  1  0.93632929  0.68777425  0.94355314  1
  Zn  Zn163  1  0.06123719  0.31459190  0.06372957  1
  Zn  Zn164  1  0.06528571  0.31184266  0.55900982  1
  Zn  Zn165  1  0.06411999  0.80982162  0.06282812  1
  Zn  Zn166  1  0.05963086  0.81041560  0.56150913  1
  Zn  Zn167  1  0.56284238  0.31315708  0.06489383  1
  Zn  Zn168  1  0.56626753  0.31200838  0.56473832  1
  Zn  Zn169  1  0.56284957  0.81108135  0.05915265  1
  Zn  Zn170  1  0.56227108  0.81597462  0.56739914  1
  O  O171  1  0.12024105  0.12125392  0.11972976  1
  O  O172  1  0.11230695  0.11486620  0.62129893  1
  O  O173  1  0.11373113  0.62623232  0.12830638  1
  O  O174  1  0.12242769  0.61758521  0.62304760  1
  O  O175  1  0.62574194  0.11481542  0.12381384  1
  O  O176  1  0.62433278  0.11388438  0.61643399  1
  O  O177  1  0.60932112  0.61496470  0.12573299  1
  O  O178  1  0.62005844  0.61617268  0.62312822  1
  O  O179  1  0.38488018  0.37762103  0.37916883  1
  O  O180  1  0.36550107  0.39592430  0.87902272  1
  O  O181  1  0.37426510  0.88156067  0.38089134  1
  O  O182  1  0.36493351  0.88286495  0.88738258  1
  O  O183  1  0.88386836  0.38329945  0.38177791  1
  O  O184  1  0.88355228  0.38316704  0.88170796  1
  O  O185  1  0.87277030  0.89037879  0.36898161  1
  O  O186  1  0.88788934  0.87780933  0.87851249  1
  O  O187  1  0.25484661  0.00510356  0.36840144  1
  O  O188  1  0.25199406  0.00764517  0.86578872  1
  O  O189  1  0.25937053  0.50530364  0.37405664  1
  O  O190  1  0.26381891  0.51267895  0.87756060  1
  O  O191  1  0.75783582  0.00588370  0.36942957  1
  O  O192  1  0.75294466  0.01152775  0.88321940  1
  O  O193  1  0.75662122  0.50864233  0.38034889  1
  O  O194  1  0.76398527  0.49760579  0.87286016  1
  O  O195  1  0.25273274  0.49269248  0.12433407  1
  O  O196  1  0.24240811  0.48889226  0.61832628  1
  O  O197  1  0.24336125  0.99225896  0.12582858  1
  O  O198  1  0.23856369  0.99223780  0.63140449  1
  O  O199  1  0.73355725  0.50493348  0.12474229  1
  O  O200  1  0.74257030  0.50109095  0.63590758  1
  O  O201  1  0.74310475  0.99193669  0.12856443  1
  O  O202  1  0.73591321  0.99370590  0.62149979  1
  O  O203  1  0.00800931  0.38111886  0.26334550  1
  O  O204  1  0.00802320  0.37413134  0.75957698  1
  O  O205  1  0.01255419  0.87786054  0.25231350  1
  O  O206  1  0.00343276  0.86887690  0.75671642  1
  O  O207  1  0.49677007  0.37714358  0.26201292  1
  O  O208  1  0.51087393  0.36574727  0.74900194  1
  O  O209  1  0.50651511  0.86743735  0.24952271  1
  O  O210  1  0.49473696  0.86753064  0.74346600  1
  O  O211  1  0.48615888  0.11959013  0.24614887  1
  O  O212  1  0.49635862  0.14079196  0.74565525  1
  O  O213  1  0.49805951  0.63417896  0.24502596  1
  O  O214  1  0.50316066  0.63601362  0.74020050  1
  O  O215  1  0.98982127  0.11970052  0.24457125  1
  O  O216  1  0.99257868  0.12989036  0.73961957  1
  O  O217  1  0.99974869  0.61973891  0.23459516  1
  O  O218  1  0.99661015  0.63070671  0.74933098  1
  O  O219  1  0.37045868  0.24438675  0.01250814  1
  O  O220  1  0.36637274  0.25956983  0.49364689  1
  O  O221  1  0.36594407  0.76409137  -0.00657182  1
  O  O222  1  0.37213680  0.75456082  0.50891986  1
  O  O223  1  0.87097404  0.25721421  0.00856958  1
  O  O224  1  0.85704857  0.24819081  0.49354675  1
  O  O225  1  0.86243201  0.75053142  0.01107269  1
  O  O226  1  0.85622515  0.73033546  0.52165243  1
  O  O227  1  0.13336964  0.24840576  0.48624427  1
  O  O228  1  0.12466697  0.23737690  1.00288183  1
  O  O229  1  0.13566408  0.74041875  0.49108034  1
  O  O230  1  0.13927208  0.75382274  0.99591558  1
  O  O231  1  0.63089702  0.23994158  0.49273220  1
  O  O232  1  0.63541070  0.24994762  1.00108305  1
  O  O233  1  0.62972952  0.74323395  0.49992038  1
  O  O234  1  0.63758404  0.75051695  0.99466513  1
  O  O235  1  0.48554533  0.25042455  0.12437214  1
  O  O236  1  0.51071741  0.25028984  0.64244995  1
  O  O237  1  0.50698662  0.73962781  0.13178746  1
  O  O238  1  0.49441827  0.74612844  0.63375970  1
  O  O239  1  0.98802254  0.24352434  0.12170611  1
  O  O240  1  1.00571488  0.23476568  0.62316097  1
  O  O241  1  0.99208625  0.73809971  0.11900929  1
  O  O242  1  0.99083217  0.74472301  0.64039723  1
  O  O243  1  0.00860492  0.25918182  0.37938644  1
  O  O244  1  -0.00238796  0.26490920  0.87804855  1
  O  O245  1  0.01888461  0.72707914  0.35888724  1
  O  O246  1  -0.00422749  0.75557421  0.86711010  1
  O  O247  1  0.50772365  0.26213868  0.37482747  1
  O  O248  1  0.50067928  0.24766814  0.85989107  1
  O  O249  1  0.50692244  0.75016358  0.36865869  1
  O  O250  1  0.50493447  0.75176987  0.86135841  1
  O  O251  1  0.24607906  0.13144102  0.49147661  1
  O  O252  1  0.23922123  0.12433328  0.98933282  1
  O  O253  1  0.24760185  0.62690364  0.49311034  1
  O  O254  1  0.25164178  0.63910207  1.00582516  1
  O  O255  1  0.74316259  0.13283558  0.49493622  1
  O  O256  1  0.75090321  0.13336520  0.99219304  1
  O  O257  1  0.73783600  0.63078914  0.49634587  1
  O  O258  1  0.75190275  0.63336448  1.00298035  1
  O  O259  1  0.23970680  0.37344337  0.01098041  1
  O  O260  1  0.25722550  0.36687275  0.50612213  1
  O  O261  1  0.25412532  0.86811807  0.00339927  1
  O  O262  1  0.25448362  0.86726892  0.50482801  1
  O  O263  1  0.75853310  0.36955907  0.00754524  1
  O  O264  1  0.74722200  0.35972242  0.49971720  1
  O  O265  1  0.75213197  0.87213019  0.01201942  1
  O  O266  1  0.74560066  0.86284238  0.50922109  1
  O  O267  1  0.13029204  0.48753044  0.24756149  1
  O  O268  1  0.12065907  0.49021102  0.73760514  1
  O  O269  1  0.13183933  0.99177483  0.24572016  1
  O  O270  1  0.12975864  0.98964489  0.74104748  1
  O  O271  1  0.62160957  0.50494310  0.23418393  1
  O  O272  1  0.63191150  0.49693216  0.74903663  1
  O  O273  1  0.63262273  0.99354446  0.24458548  1
  O  O274  1  0.61983146  1.00675156  0.73808201  1
  O  O275  1  0.36892429  0.00512569  0.25293416  1
  O  O276  1  0.35743249  -0.00658003  0.75569303  1
  O  O277  1  0.37663363  0.50051601  0.26294828  1
  O  O278  1  0.38901472  0.50168236  0.76617879  1
  O  O279  1  0.86916448  0.00736289  0.25392441  1
  O  O280  1  0.87867816  0.01917523  0.75142109  1
  O  O281  1  0.87408642  0.50675200  0.26777870  1
  O  O282  1  0.87028833  0.50564128  0.75946199  1
  O  O283  1  0.12093876  0.36921771  0.36884991  1
  O  O284  1  0.11839719  0.38432418  0.86439772  1
  O  O285  1  0.12173721  0.86381092  0.36802459  1
  O  O286  1  0.11362266  0.88043876  0.86594268  1
  O  O287  1  0.61174482  0.36840649  0.37821979  1
  O  O288  1  0.63114494  0.37802033  0.86836784  1
  O  O289  1  0.62594072  0.86804244  0.36848794  1
  O  O290  1  0.63292385  0.85617336  0.87017493  1
  O  O291  1  0.37293680  0.13522453  0.13055242  1
  O  O292  1  0.37904702  0.11138179  0.63231821  1
  O  O293  1  0.39513585  0.62004743  0.12593613  1
  O  O294  1  0.38572852  0.63400863  0.61719353  1
  O  O295  1  0.88028765  0.13086734  0.13278545  1
  O  O296  1  0.88433619  0.12275556  0.63162709  1
  O  O297  1  0.88400364  0.63117024  0.13162456  1
  O  O298  1  0.88029499  0.62911369  0.64010566  1
  O  O299  1  0.25895556  0.25808600  0.11985110  1
  O  O300  1  0.24248391  0.25609790  0.60998140  1
  O  O301  1  0.24843503  0.76119429  0.11242665  1
  O  O302  1  0.25710940  0.75383191  0.62101538  1
  O  O303  1  0.76275919  0.24901479  0.11537261  1
  O  O304  1  0.74069426  0.24946502  0.61010328  1
  O  O305  1  0.75163472  0.75296534  0.11734727  1
  O  O306  1  0.75143883  0.75749034  0.62605564  1
  O  O307  1  0.24413573  0.24614080  0.38200544  1
  O  O308  1  0.25343404  0.23737443  0.87264038  1
  O  O309  1  0.24778808  0.73995388  0.37940428  1
  O  O310  1  0.25377412  0.73551924  0.88354908  1
  O  O311  1  0.74234170  0.24407412  0.38354610  1
  O  O312  1  0.75316257  0.24508971  0.88876097  1
  O  O313  1  0.74538935  0.74551928  0.38637808  1
  O  O314  1  0.74931458  0.75083962  0.89275243  1
  O  O315  1  0.00467426  0.11923016  0.00278558  1
  O  O316  1  -0.00110085  0.12504266  0.51222027  1
  O  O317  1  -0.00488012  0.61752001  0.01286904  1
  O  O318  1  0.00907380  0.62286195  0.50916793  1
  O  O319  1  0.50192651  0.11842569  0.00284674  1
  O  O320  1  0.50719545  0.12113767  0.49994440  1
  O  O321  1  0.50010189  0.63606835  0.00748973  1
  O  O322  1  0.51275281  0.62449583  0.50920862  1
  O  O323  1  0.49300060  0.37363961  0.49594792  1
  O  O324  1  0.50095992  0.38277677  0.99501769  1
  O  O325  1  0.49472168  0.88208187  0.49797637  1
  O  O326  1  0.48354434  0.87656368  1.00385621  1
  O  O327  1  1.00348831  0.38251972  0.48882702  1
  O  O328  1  0.99540814  0.38373129  0.99530954  1
  O  O329  1  0.98466622  0.81958743  0.48161769  1
  O  O330  1  1.00154841  0.88125859  0.99374870  1
  O  O331  1  0.49621935  0.48921289  0.37879093  1
  O  O332  1  0.49484005  0.50816130  0.88686200  1
  O  O333  1  0.49402144  0.99878251  0.38198143  1
  O  O334  1  0.48295124  1.00363957  0.86934955  1
  O  O335  1  0.99521993  0.49661539  0.38164356  1
  O  O336  1  0.99073374  0.49524848  0.88277323  1
  O  O337  1  0.98596648  0.99679587  0.37780516  1
  O  O338  1  0.99902424  0.99298099  0.88213619  1
  O  O339  1  0.00579212  0.00577150  0.11844217  1
  O  O340  1  0.00625987  0.00986091  0.62786688  1
  O  O341  1  0.00131532  0.51155604  0.11819688  1
  O  O342  1  0.00890098  0.50604385  0.62063535  1
  O  O343  1  0.51372922  -0.00131984  0.12692741  1
  O  O344  1  0.51282279  -0.00005394  0.61465161  1
  O  O345  1  0.50540665  0.50621307  0.11219342  1
  O  O346  1  0.50797964  0.50737687  0.62507303  1
  O  O347  1  0.24255400  0.37629575  0.23999339  1
  O  O348  1  0.24417719  0.36959861  0.73602692  1
  O  O349  1  0.24596257  0.88054333  0.23905643  1
  O  O350  1  0.23962964  0.87751695  0.74607432  1
  O  O351  1  0.75411708  0.38092459  0.24703512  1
  O  O352  1  0.74500933  0.38609572  0.75225859  1
  O  O353  1  0.74328412  0.87731272  0.23853708  1
  O  O354  1  0.75504910  0.87551188  0.74244234  1
  O  O355  1  0.25652729  0.11822436  0.25375683  1
  O  O356  1  0.24352249  0.11639201  0.75346658  1
  O  O357  1  0.25747796  0.62285606  0.25694403  1
  O  O358  1  0.25609272  0.62944626  0.75589652  1
  O  O359  1  0.76148833  0.11886419  0.25554303  1
  O  O360  1  0.75935633  0.13162309  0.75840092  1
  O  O361  1  0.74681287  0.62469522  0.26790697  1
  O  O362  1  0.75871283  0.61262705  0.74851528  1
  O  O363  1  0.36989786  0.12172028  0.36571839  1
  O  O364  1  0.36261312  0.11611491  0.86750185  1
  O  O365  1  0.36823971  0.61609228  0.37846801  1
  O  O366  1  0.36144221  0.61507662  0.87986744  1
  O  O367  1  0.87298398  0.11584683  0.36834144  1
  O  O368  1  0.86861209  0.12240257  0.86566817  1
  O  O369  1  0.86710792  0.62347694  0.37990695  1
  O  O370  1  0.88165511  0.61836632  0.86537206  1
  O  O371  1  0.13088324  0.37525310  0.13320830  1
  O  O372  1  0.13210766  0.38109955  0.62887573  1
  O  O373  1  0.13076132  0.87958560  0.13086925  1
  O  O374  1  0.12457475  0.87898016  0.62894485  1
  O  O375  1  0.62308930  0.39217335  0.12257045  1
  O  O376  1  0.62955190  0.38754150  0.63279523  1
  O  O377  1  0.63152188  0.87936199  0.12911309  1
  O  O378  1  0.63146548  0.89089671  0.62316515  1
  O  O379  1  0.13083227  0.25981055  0.26127489  1
  O  O380  1  0.12061233  0.26288251  0.74549241  1
  O  O381  1  0.13827722  0.76102175  0.25756490  1
  O  O382  1  0.11523833  0.76239532  0.74519810  1
  O  O383  1  0.63091254  0.24292545  0.26138533  1
  O  O384  1  0.62309523  0.26150415  0.75660660  1
  O  O385  1  0.61739583  0.75458984  0.25574465  1
  O  O386  1  0.61088622  0.75805664  0.74871894  1
  O  O387  1  0.36779802  0.23989734  0.23739601  1
  O  O388  1  0.38565242  0.25561797  0.74873953  1
  O  O389  1  0.38857618  0.75110031  0.25368328  1
  O  O390  1  0.38313804  0.75537148  0.73926415  1
  O  O391  1  0.87179877  0.23919027  0.24401673  1
  O  O392  1  0.87859695  0.23592974  0.75357582  1
  O  O393  1  0.86754979  0.74837341  0.23708141  1
  O  O394  1  0.87871884  0.74218293  0.74809598  1
  O  O395  1  0.37761163  0.48759000  0.48879447  1
  O  O396  1  0.39505140  0.50257536  0.99302513  1
  O  O397  1  0.38055371  0.99463177  0.49305094  1
  O  O398  1  0.37239873  0.99122901  0.98915265  1
  O  O399  1  0.88216711  0.50408648  0.49189923  1
  O  O400  1  0.88169218  0.49594621  0.99617591  1
  O  O401  1  0.86740715  1.00173571  0.48681413  1
  O  O402  1  0.88894722  0.99895506  1.00168720  1
  O  O403  1  0.11452164  0.00715681  0.00482817  1
  O  O404  1  0.12752943  -0.00295126  0.50973300  1
  O  O405  1  0.11226502  0.49726524  0.00130106  1
  O  O406  1  0.12115601  0.50413652  0.50828757  1
  O  O407  1  0.62217422  -0.00178927  0.00806664  1
  O  O408  1  0.62013876  0.01207993  0.49714764  1
  O  O409  1  0.61026061  0.50241407  0.00775004  1
  O  O410  1  0.62563351  0.50636129  0.51069982  1
  O  O411  1  0.36793415  0.36303946  0.12920797  1
  O  O412  1  0.36722171  0.38104262  0.61511816  1
  O  O413  1  0.36392736  0.88216674  0.10935982  1
  O  O414  1  0.36734028  0.86879536  0.61821977  1
  O  O415  1  0.87948358  0.36864717  0.12263237  1
  O  O416  1  0.87232092  0.37915330  0.61936221  1
  O  O417  1  0.86766807  0.86708150  0.12450613  1
  O  O418  1  0.86827720  0.86426412  0.63020693  1
  O  O419  1  0.12842128  0.13150356  0.37314810  1
  O  O420  1  0.13043941  0.11828703  0.88223756  1
  O  O421  1  0.13964342  0.62428641  0.37713472  1
  O  O422  1  0.14759276  0.61540654  0.87070177  1
  O  O423  1  0.62931847  0.13127803  0.38028274  1
  O  O424  1  0.63493312  0.12970294  0.87703262  1
  O  O425  1  0.62921214  0.62908091  0.38574073  1
  O  O426  1  0.63286329  0.65010900  0.85785295  1
