# generated using pymatgen
data_V85Zn86O256
_symmetry_space_group_name_H-M   'P 1'
_cell_length_a   16.94046383
_cell_length_b   16.95792797
_cell_length_c   16.95194735
_cell_angle_alpha   90.02263253
_cell_angle_beta   89.95356057
_cell_angle_gamma   90.00756517
_symmetry_Int_Tables_number   1
_chemical_formula_structural   V85Zn86O256
_chemical_formula_sum   'V85 Zn86 O256'
_cell_volume   4869.87145530
_cell_formula_units_Z   1
loop_
 _symmetry_equiv_pos_site_id
 _symmetry_equiv_pos_as_xyz
  1  'x, y, z'
loop_
 _atom_site_type_symbol
 _atom_site_label
 _atom_site_symmetry_multiplicity
 _atom_site_fract_x
 _atom_site_fract_y
 _atom_site_fract_z
 _atom_site_occupancy
  V  V0  1  0.50313223  0.87012527  0.87275173  1
  V  V1  1  0.87297698  0.37857549  0.50303617  1
  V  V2  1  0.49447457  0.12522180  0.12462209  1
  V  V3  1  0.87423874  0.50005651  0.37606602  1
  V  V4  1  0.24875785  0.25240313  0.50227387  1
  V  V5  1  0.74742472  0.25120745  0.50269980  1
  V  V6  1  0.00007896  0.12661142  0.62767530  1
  V  V7  1  0.62890352  0.73928549  0.87756736  1
  V  V8  1  0.87520376  0.12260890  0.75281871  1
  V  V9  1  0.11616143  0.87386695  0.75101325  1
  V  V10  1  0.87995438  -0.00893350  0.37665089  1
  V  V11  1  0.00601787  0.12200867  0.11212324  1
  V  V12  1  0.62317851  0.87128380  0.24474761  1
  V  V13  1  0.63303667  -0.00356606  0.62217372  1
  V  V14  1  0.50536470  0.38165364  0.87597523  1
  V  V15  1  0.62748573  0.74804717  0.37507452  1
  V  V16  1  0.38244611  0.62987470  0.73758527  1
  V  V17  1  0.74451097  0.12588690  0.87661342  1
  V  V18  1  0.19809441  0.18802943  -0.06661082  1
  V  V19  1  0.74762135  0.62423498  0.38219055  1
  V  V20  1  0.87450975  0.25844433  0.12334864  1
  V  V21  1  0.24740981  0.62038296  0.86216239  1
  V  V22  1  0.24591234  0.38459055  0.63106894  1
  V  V23  1  0.12382207  0.25104413  0.37596461  1
  V  V24  1  0.62229275  -0.00263110  0.12327798  1
  V  V25  1  0.61799021  0.13172899  -0.00359005  1
  V  V26  1  0.62739513  0.25044670  0.36817297  1
  V  V27  1  0.24685984  -0.00143565  0.25062189  1
  V  V28  1  0.12670255  0.00343786  0.62867583  1
  V  V29  1  0.43414652  0.81696442  0.55665093  1
  V  V30  1  0.37682589  0.38223007  -0.00133647  1
  V  V31  1  0.00682825  0.25031886  0.75576012  1
  V  V32  1  0.61835240  0.62633061  0.50763561  1
  V  V33  1  0.24699244  0.37630662  0.11693116  1
  V  V34  1  0.37247854  0.12623684  0.75129163  1
  V  V35  1  0.61618826  0.49162424  0.12535220  1
  V  V36  1  0.24728084  0.75646443  0.49475105  1
  V  V37  1  0.37235846  0.37567722  0.50062643  1
  V  V38  1  0.49650820  0.00033504  0.00034486  1
  V  V39  1  0.50396001  0.12909066  0.62501178  1
  V  V40  1  0.63734798  0.37456613  0.74756667  1
  V  V41  1  0.25276349  0.87021403  0.62355341  1
  V  V42  1  0.00020474  0.24927884  0.25039537  1
  V  V43  1  0.49276977  0.87299123  0.37042165  1
  V  V44  1  0.63491172  0.87789089  0.75157166  1
  V  V45  1  0.36770248  0.24856450  0.12285779  1
  V  V46  1  0.11424698  0.74594841  0.87103235  1
  V  V47  1  0.37515162  0.25307813  0.62651401  1
  V  V48  1  -0.01142884  0.49715180  0.00350806  1
  V  V49  1  0.74954483  0.25365915  0.00127441  1
  V  V50  1  0.12383235  0.38337008  0.75872309  1
  V  V51  1  0.37488467  0.50344622  0.86962148  1
  V  V52  1  -0.00696096  0.63230467  0.12143471  1
  V  V53  1  -0.00180166  0.50407302  0.50972141  1
  V  V54  1  0.37343959  0.49862952  0.37402246  1
  V  V55  1  0.85707163  0.49990917  0.87066418  1
  V  V56  1  0.49775030  0.50050649  0.51169954  1
  V  V57  1  0.37710966  0.74627071  0.12215090  1
  V  V58  1  0.25001286  0.12187769  0.37627846  1
  V  V59  1  0.12099774  0.62833952  0.50665935  1
  V  V60  1  0.37539654  -0.00270062  0.87190927  1
  V  V61  1  0.12163906  0.12689380  0.50256325  1
  V  V62  1  0.12068889  0.86529376  0.25085022  1
  V  V63  1  0.24129102  0.62683722  0.37384832  1
  V  V64  1  0.76274710  0.86521771  0.11655752  1
  V  V65  1  0.64376497  0.49605033  0.62599591  1
  V  V66  1  0.76570003  0.74085311  -0.00654255  1
  V  V67  1  0.25132158  0.00072446  0.75246789  1
  V  V68  1  0.37504709  0.87262542  -0.00322843  1
  V  V69  1  0.37461342  0.62263718  0.24797082  1
  V  V70  1  0.87046929  0.63060208  0.24669532  1
  V  V71  1  0.49261276  0.00188602  0.49999608  1
  V  V72  1  0.24815436  0.87553219  0.12241254  1
  V  V73  1  0.87741877  0.12456431  0.24978761  1
  V  V74  1  0.91858875  0.74987598  0.63703455  1
  V  V75  1  0.00015338  0.88462894  0.89569700  1
  V  V76  1  0.24779694  0.74385469  -0.00448780  1
  V  V77  1  0.50301409  0.25199299  0.76352071  1
  V  V78  1  0.74917150  -0.00186635  0.24669746  1
  V  V79  1  -0.00665060  0.37006529  0.88713113  1
  V  V80  1  0.87848120  0.00132573  0.89298025  1
  V  V81  1  0.86991737  0.25459852  0.62729732  1
  V  V82  1  0.49893542  0.25276267  0.24899984  1
  V  V83  1  0.12469129  0.37772776  0.24906798  1
  V  V84  1  0.50436002  0.37603143  0.37433832  1
  Zn  Zn85  1  0.62428196  0.12658625  0.49704065  1
  Zn  Zn86  1  0.36620209  -0.00922675  0.38081401  1
  Zn  Zn87  1  0.81460813  0.83003739  0.54417045  1
  Zn  Zn88  1  0.11978046  0.50006782  0.12202970  1
  Zn  Zn89  1  -0.01079510  -0.00624734  0.50808338  1
  Zn  Zn90  1  0.49681825  0.61522931  0.11136441  1
  Zn  Zn91  1  0.12039559  0.61922988  -0.00145428  1
  Zn  Zn92  1  0.74268835  0.37362398  0.13254463  1
  Zn  Zn93  1  0.74929531  0.12413205  0.37341022  1
  Zn  Zn94  1  0.24716385  0.49980717  0.24759640  1
  Zn  Zn95  1  0.62357622  0.62038439  0.00096010  1
  Zn  Zn96  1  0.87605516  0.62441044  0.74977009  1
  Zn  Zn97  1  0.74008052  0.49204613  0.25196695  1
  Zn  Zn98  1  -0.00408655  0.74751059  0.25116892  1
  Zn  Zn99  1  0.11539678  -0.00272192  0.10920850  1
  Zn  Zn100  1  0.12150950  0.50637333  0.63289784  1
  Zn  Zn101  1  0.50165606  0.74969408  0.73491916  1
  Zn  Zn102  1  0.00095640  0.37648153  0.37708155  1
  Zn  Zn103  1  0.75357491  -0.00081218  0.74865343  1
  Zn  Zn104  1  -0.00018459  0.85773292  0.38719775  1
  Zn  Zn105  1  0.37216415  0.12246929  0.24945795  1
  Zn  Zn106  1  0.50150339  0.74698809  0.24550936  1
  Zn  Zn107  1  0.18625563  0.18910123  0.18604165  1
  Zn  Zn108  1  0.18947206  0.19289966  0.69395818  1
  Zn  Zn109  1  0.18624857  0.68291037  0.18152658  1
  Zn  Zn110  1  0.18667329  0.69240367  0.68560628  1
  Zn  Zn111  1  0.68517514  0.18669209  0.18663884  1
  Zn  Zn112  1  0.68648529  0.18999740  0.69046932  1
  Zn  Zn113  1  0.68753959  0.67969299  0.18479276  1
  Zn  Zn114  1  0.70264335  0.70179719  0.70754079  1
  Zn  Zn115  1  0.31074610  0.31262504  0.30987699  1
  Zn  Zn116  1  0.31248843  0.31713853  0.81191116  1
  Zn  Zn117  1  0.30965987  0.80910947  0.30961906  1
  Zn  Zn118  1  0.31125440  0.80775719  0.80846350  1
  Zn  Zn119  1  0.81224430  0.31484738  0.31328750  1
  Zn  Zn120  1  0.81379473  0.30898188  0.81778936  1
  Zn  Zn121  1  0.80904627  0.81088647  0.31278911  1
  Zn  Zn122  1  0.82150004  0.81317372  0.81374137  1
  Zn  Zn123  1  0.18460625  0.44135107  0.43835171  1
  Zn  Zn124  1  0.18277793  0.43815344  0.93732512  1
  Zn  Zn125  1  0.16691799  0.93201894  0.44333143  1
  Zn  Zn126  1  0.18450193  0.93982359  0.93640859  1
  Zn  Zn127  1  0.68843447  0.43655347  0.44035121  1
  Zn  Zn128  1  0.67927354  0.43434643  0.94438365  1
  Zn  Zn129  1  0.68019428  0.94323462  0.42943505  1
  Zn  Zn130  1  0.68993867  0.93766934  0.93944869  1
  Zn  Zn131  1  0.27917701  0.05269614  0.04243362  1
  Zn  Zn132  1  0.31233938  0.06285573  0.56490480  1
  Zn  Zn133  1  0.31010888  0.55877720  0.05878846  1
  Zn  Zn134  1  0.30870359  0.56419854  0.55970818  1
  Zn  Zn135  1  0.80925758  0.06852653  0.06744852  1
  Zn  Zn136  1  0.81177216  0.06684176  0.55952956  1
  Zn  Zn137  1  0.80764756  0.55614214  0.06226316  1
  Zn  Zn138  1  0.78757011  0.62997884  0.59688697  1
  Zn  Zn139  1  0.43829333  0.43618000  0.18841843  1
  Zn  Zn140  1  0.43498640  0.43917900  0.69294431  1
  Zn  Zn141  1  0.43052384  0.93804897  0.18933834  1
  Zn  Zn142  1  0.44625079  0.94051723  0.69070546  1
  Zn  Zn143  1  0.93484783  0.43979762  0.19141020  1
  Zn  Zn144  1  0.93405900  0.43615654  0.69117240  1
  Zn  Zn145  1  0.93866968  0.93968477  0.18427419  1
  Zn  Zn146  1  0.93738501  0.93793344  0.69096649  1
  Zn  Zn147  1  0.06422652  0.05879185  0.30692025  1
  Zn  Zn148  1  0.06562993  0.06504347  0.82126132  1
  Zn  Zn149  1  0.05623141  0.56442354  0.31428845  1
  Zn  Zn150  1  0.05073497  0.55918811  0.81449751  1
  Zn  Zn151  1  0.56051770  0.06367377  0.31238160  1
  Zn  Zn152  1  0.56182034  0.06162451  0.81207308  1
  Zn  Zn153  1  0.56087105  0.56068138  0.30789175  1
  Zn  Zn154  1  0.56313199  0.56043148  0.80509397  1
  Zn  Zn155  1  0.43513054  0.18765804  0.43700790  1
  Zn  Zn156  1  0.40395617  0.18089364  0.94699025  1
  Zn  Zn157  1  0.43951056  0.68288322  0.43005077  1
  Zn  Zn158  1  0.43895726  0.68447565  0.93237223  1
  Zn  Zn159  1  0.93615603  0.18542618  0.43668258  1
  Zn  Zn160  1  0.93497673  0.18925611  0.93853528  1
  Zn  Zn161  1  0.93615988  0.68951279  0.44069632  1
  Zn  Zn162  1  0.93974992  0.67240493  0.91160447  1
  Zn  Zn163  1  0.06830527  0.30235426  0.05891203  1
  Zn  Zn164  1  0.05904015  0.31621941  0.56791150  1
  Zn  Zn165  1  0.06303445  0.80692748  0.06251703  1
  Zn  Zn166  1  0.06623169  0.81580523  0.55927842  1
  Zn  Zn167  1  0.55778536  0.31494537  0.05992507  1
  Zn  Zn168  1  0.56386943  0.31532727  0.56370717  1
  Zn  Zn169  1  0.56426542  0.80684268  0.05820935  1
  Zn  Zn170  1  0.65522570  0.80852882  0.56293759  1
  O  O171  1  0.10824091  0.12595208  0.13214775  1
  O  O172  1  0.12016145  0.12616179  0.62145372  1
  O  O173  1  0.11211386  0.62033756  0.12100018  1
  O  O174  1  0.13540018  0.62170809  0.61204488  1
  O  O175  1  0.61505141  0.11731280  0.11845771  1
  O  O176  1  0.61389504  0.12153869  0.62449040  1
  O  O177  1  0.61775312  0.61398352  0.12521165  1
  O  O178  1  0.62179762  0.60941765  0.61054953  1
  O  O179  1  0.38139846  0.37751269  0.38033570  1
  O  O180  1  0.37889009  0.38455185  0.87894269  1
  O  O181  1  0.38773153  0.87249089  0.36787914  1
  O  O182  1  0.38356953  0.87571833  0.87597448  1
  O  O183  1  0.87793787  0.38182862  0.38483965  1
  O  O184  1  0.88924201  0.37441787  0.87388802  1
  O  O185  1  0.87618877  0.88750885  0.36936298  1
  O  O186  1  0.89285075  0.88577863  0.87376908  1
  O  O187  1  0.24478577  0.00569376  0.37122729  1
  O  O188  1  0.26038721  -0.01105302  0.85788386  1
  O  O189  1  0.25711946  0.50735443  0.37400147  1
  O  O190  1  0.25696597  0.51140812  0.88046125  1
  O  O191  1  0.75640763  0.00056910  0.36064850  1
  O  O192  1  0.75828578  0.01035173  0.87536333  1
  O  O193  1  0.75587096  0.50616389  0.37669353  1
  O  O194  1  0.76122060  0.47361408  0.87630503  1
  O  O195  1  0.24352694  0.49142921  0.12679927  1
  O  O196  1  0.24627460  0.48676265  0.61907025  1
  O  O197  1  0.26200457  0.98645929  0.13705451  1
  O  O198  1  0.24965010  0.99045733  0.63258407  1
  O  O199  1  0.73776387  0.49479909  0.12892762  1
  O  O200  1  0.73853333  0.49389359  0.60993981  1
  O  O201  1  0.74516339  0.99158699  0.13199828  1
  O  O202  1  0.73620683  1.01086295  0.62630431  1
  O  O203  1  0.00739490  0.36712281  0.25177089  1
  O  O204  1  0.00507459  0.36711129  0.75935238  1
  O  O205  1  0.01421527  0.87354977  0.24092829  1
  O  O206  1  0.01527712  0.88464433  0.76185879  1
  O  O207  1  0.49274397  0.36090419  0.26014171  1
  O  O208  1  0.50265743  0.36812745  0.75709053  1
  O  O209  1  0.50518454  0.87464733  0.25432417  1
  O  O210  1  0.50911403  0.87235614  0.75856223  1
  O  O211  1  0.49529191  0.13468408  0.24547309  1
  O  O212  1  0.49674049  0.13301007  0.74287412  1
  O  O213  1  0.48281648  0.62672099  0.24935599  1
  O  O214  1  0.48757431  0.62949389  0.74808152  1
  O  O215  1  0.99334800  0.13082005  0.24693528  1
  O  O216  1  0.99471409  0.13175824  0.75071290  1
  O  O217  1  0.99002322  0.62305471  0.24010289  1
  O  O218  1  0.97899350  0.64113388  0.80444798  1
  O  O219  1  0.38178713  0.26941371  0.01359283  1
  O  O220  1  0.36954351  0.25649566  0.50647749  1
  O  O221  1  0.36759540  0.75420020  0.00279773  1
  O  O222  1  0.37428218  0.75204821  0.50175323  1
  O  O223  1  0.86228488  0.23980027  0.01234538  1
  O  O224  1  0.86972957  0.25406880  0.50765856  1
  O  O225  1  0.86384345  0.74158978  -0.01575776  1
  O  O226  1  0.89743294  0.75536665  0.52512519  1
  O  O227  1  0.12721106  0.24279571  0.49860257  1
  O  O228  1  0.14077135  0.23811155  1.00136365  1
  O  O229  1  0.13763600  0.74099888  0.50048245  1
  O  O230  1  0.13288033  0.74533555  0.99133792  1
  O  O231  1  0.63180365  0.25134897  0.49248179  1
  O  O232  1  0.62667734  0.23572144  1.00627298  1
  O  O233  1  0.60925073  0.73520642  0.48694788  1
  O  O234  1  0.63522047  0.75155467  0.98853700  1
  O  O235  1  0.49232934  0.24732592  0.13327363  1
  O  O236  1  0.49368869  0.24479249  0.62988962  1
  O  O237  1  0.48474178  0.75293618  0.12490380  1
  O  O238  1  0.49469689  0.76477747  0.61444395  1
  O  O239  1  0.99323295  0.24125661  0.13006532  1
  O  O240  1  0.99107945  0.24483215  0.63418602  1
  O  O241  1  0.99793580  0.73603293  0.12554579  1
  O  O242  1  1.01879834  0.75511147  0.64179245  1
  O  O243  1  0.00689835  0.24998992  0.36927736  1
  O  O244  1  -0.00488880  0.25846390  0.86902031  1
  O  O245  1  -0.00653162  0.74894187  0.36510342  1
  O  O246  1  0.01227145  0.76978694  0.88819348  1
  O  O247  1  0.50477035  0.25434787  0.36915610  1
  O  O248  1  0.48829866  0.25699615  0.86478654  1
  O  O249  1  0.50715028  0.75632326  0.36850270  1
  O  O250  1  0.50930676  0.76178902  0.87371520  1
  O  O251  1  0.24522676  0.13353153  0.49615023  1
  O  O252  1  0.28479128  0.14588155  0.97899746  1
  O  O253  1  0.24584707  0.63347254  0.49174554  1
  O  O254  1  0.25012796  0.63427758  0.99155707  1
  O  O255  1  0.74784090  0.13833538  0.49457812  1
  O  O256  1  0.73686218  0.12897470  0.99651279  1
  O  O257  1  0.73515959  0.62080783  0.48862962  1
  O  O258  1  0.74538935  0.64002380  1.00696979  1
  O  O259  1  0.25565272  0.37942764  0.01053104  1
  O  O260  1  0.25278727  0.36977803  0.50620635  1
  O  O261  1  0.25480206  0.86188646  0.00457691  1
  O  O262  1  0.24390773  0.86711267  0.50589801  1
  O  O263  1  0.73999151  0.35526305  0.00566887  1
  O  O264  1  0.76195339  0.36211461  0.49522267  1
  O  O265  1  0.74971539  0.86791069  0.01152748  1
  O  O266  1  0.72667390  0.87838758  0.50467788  1
  O  O267  1  0.12225571  0.48639074  0.25090983  1
  O  O268  1  0.11502558  0.48983609  0.74992525  1
  O  O269  1  0.13532738  0.99075785  0.24126596  1
  O  O270  1  0.13493133  0.99659276  0.74695221  1
  O  O271  1  0.62299406  0.50180234  0.23527236  1
  O  O272  1  0.62428750  0.49222499  0.73368890  1
  O  O273  1  0.63149216  0.99473381  0.24452654  1
  O  O274  1  0.62575184  0.99511902  0.74146375  1
  O  O275  1  0.36108156  0.00155806  0.25852277  1
  O  O276  1  0.37135714  0.00694732  0.74999239  1
  O  O277  1  0.37122264  0.50579002  0.25561084  1
  O  O278  1  0.37462202  0.51139893  0.76113215  1
  O  O279  1  0.86852183  0.00493681  0.25559553  1
  O  O280  1  0.87477375  0.01317811  0.75519099  1
  O  O281  1  0.87711887  0.50740892  0.26684664  1
  O  O282  1  0.87982832  0.49818378  0.76731006  1
  O  O283  1  0.12507710  0.36852556  0.36824914  1
  O  O284  1  0.10996230  0.37799338  0.86847360  1
  O  O285  1  0.12750710  0.87533463  0.35153730  1
  O  O286  1  0.11799482  0.87297386  0.87124577  1
  O  O287  1  0.61112822  0.36680919  0.38156526  1
  O  O288  1  0.61261699  0.38109356  0.86419173  1
  O  O289  1  0.61378787  0.86718940  0.36519525  1
  O  O290  1  0.61852771  0.87388567  0.87011706  1
  O  O291  1  0.37869154  0.13633693  0.12570888  1
  O  O292  1  0.38575784  0.12900592  0.63322219  1
  O  O293  1  0.37301668  0.62960873  0.12971761  1
  O  O294  1  0.36819602  0.61916293  0.63984204  1
  O  O295  1  0.88334605  0.12988759  0.13588994  1
  O  O296  1  0.88027864  0.13165428  0.63261143  1
  O  O297  1  0.87948015  0.61436455  0.13652342  1
  O  O298  1  0.89931903  0.64514911  0.62885390  1
  O  O299  1  0.26084559  0.25887627  0.13231879  1
  O  O300  1  0.25577483  0.25960380  0.62123005  1
  O  O301  1  0.25803569  0.75324163  0.11580612  1
  O  O302  1  0.25106236  0.76400710  0.61634052  1
  O  O303  1  0.75766928  0.24587187  0.11953123  1
  O  O304  1  0.75913571  0.24311053  0.61665943  1
  O  O305  1  0.74774197  0.75972392  0.11312088  1
  O  O306  1  0.74115652  0.74588957  0.60745055  1
  O  O307  1  0.24303583  0.24317754  0.38057895  1
  O  O308  1  0.24047104  0.25346211  0.86881583  1
  O  O309  1  0.25662209  0.74148410  0.38536028  1
  O  O310  1  0.24230573  0.74395691  0.88078628  1
  O  O311  1  0.74082669  0.24834226  0.38042469  1
  O  O312  1  0.75639995  0.23378343  0.88586000  1
  O  O313  1  0.73556438  0.74324182  0.37365966  1
  O  O314  1  0.74306235  0.75985111  0.88604018  1
  O  O315  1  -0.00120903  0.12970175  0.01364687  1
  O  O316  1  0.00749928  0.12175213  0.50582899  1
  O  O317  1  -0.00529214  0.61401792  0.00473181  1
  O  O318  1  0.01271998  0.61625826  0.49418141  1
  O  O319  1  0.49964941  0.12001687  0.00294360  1
  O  O320  1  0.49980281  0.12060103  0.50769348  1
  O  O321  1  0.50856413  0.63491054  0.00003412  1
  O  O322  1  0.50602759  0.61009767  0.48954996  1
  O  O323  1  0.49128226  0.37898699  0.49275926  1
  O  O324  1  0.49224508  0.37344926  0.98512801  1
  O  O325  1  0.49251993  0.88038180  0.49349260  1
  O  O326  1  0.49433748  0.87984963  0.99311756  1
  O  O327  1  0.98856289  0.37859451  0.49946705  1
  O  O328  1  1.00334269  0.37322651  0.99152699  1
  O  O329  1  1.04385053  0.89597952  0.48558242  1
  O  O330  1  1.01069622  0.88558687  0.99459534  1
  O  O331  1  0.49413246  0.48996090  0.37940127  1
  O  O332  1  0.49024228  0.49195213  0.86760705  1
  O  O333  1  0.49929448  0.99128932  0.38292806  1
  O  O334  1  0.49541890  0.98904055  0.87894544  1
  O  O335  1  0.99142048  0.49833028  0.38657621  1
  O  O336  1  0.98912801  0.48392756  0.88573104  1
  O  O337  1  0.98467664  0.99960528  0.37012798  1
  O  O338  1  0.99526321  0.99335569  0.87775477  1
  O  O339  1  -0.00020513  0.01619100  0.12553016  1
  O  O340  1  0.00797234  0.00901916  0.62606921  1
  O  O341  1  -0.00293411  0.50392305  0.11764757  1
  O  O342  1  -0.00087478  0.49345481  0.61320862  1
  O  O343  1  0.49950618  0.00472930  0.11992592  1
  O  O344  1  0.50679953  0.01008284  0.61881745  1
  O  O345  1  0.50851019  0.49826278  0.12633909  1
  O  O346  1  0.49810138  0.49365627  0.61302413  1
  O  O347  1  0.24156498  0.37622049  0.24027127  1
  O  O348  1  0.23703627  0.37245051  0.74295726  1
  O  O349  1  0.24358113  0.87818168  0.24111785  1
  O  O350  1  0.24738262  0.88069214  0.74136036  1
  O  O351  1  0.75361613  0.37824846  0.24641551  1
  O  O352  1  0.73575028  0.35894616  0.75183470  1
  O  O353  1  0.74325912  0.87898294  0.23961926  1
  O  O354  1  0.73907725  0.88018620  0.75830127  1
  O  O355  1  0.24603029  0.11620167  0.25850215  1
  O  O356  1  0.26156858  0.11481292  0.73952385  1
  O  O357  1  0.25640337  0.62395115  0.25551776  1
  O  O358  1  0.25743246  0.63172381  0.75896751  1
  O  O359  1  0.75744848  0.11446480  0.24662533  1
  O  O360  1  0.75694488  0.12586288  0.75957266  1
  O  O361  1  0.75421258  0.61899189  0.26309639  1
  O  O362  1  0.76572755  0.61368068  0.71276863  1
  O  O363  1  0.35876966  0.12488286  0.37500162  1
  O  O364  1  0.38627677  0.11393358  0.85661092  1
  O  O365  1  0.36500533  0.61919758  0.36637267  1
  O  O366  1  0.36731798  0.61961100  0.86696197  1
  O  O367  1  0.87246217  0.11757432  0.36267569  1
  O  O368  1  0.87036816  0.11881451  0.86923085  1
  O  O369  1  0.86411118  0.61798372  0.37552096  1
  O  O370  1  0.85002041  0.60087539  0.88154483  1
  O  O371  1  0.13145578  0.37244937  0.13128188  1
  O  O372  1  0.13049982  0.37683885  0.63538974  1
  O  O373  1  0.13600640  0.87635928  0.12718028  1
  O  O374  1  0.13639582  0.88338883  0.63504765  1
  O  O375  1  0.62086441  0.38494902  0.12310215  1
  O  O376  1  0.62152711  0.38697956  0.63190755  1
  O  O377  1  0.62958179  0.87950588  0.12843012  1
  O  O378  1  0.61557419  0.88748219  0.63880252  1
  O  O379  1  0.12092404  0.25958272  0.25535770  1
  O  O380  1  0.11070762  0.25838673  0.74564144  1
  O  O381  1  0.12697262  0.76314529  0.24033758  1
  O  O382  1  0.13503074  0.76193848  0.76225918  1
  O  O383  1  0.61587261  0.24592842  0.26016663  1
  O  O384  1  0.61168446  0.25945605  0.74360492  1
  O  O385  1  0.62307304  0.75379400  0.25437275  1
  O  O386  1  0.62198986  0.76062288  0.75837986  1
  O  O387  1  0.38107324  0.24749858  0.24265521  1
  O  O388  1  0.37975401  0.24353513  0.74478715  1
  O  O389  1  0.37247405  0.74104172  0.23795968  1
  O  O390  1  0.37978079  0.73567126  0.75100404  1
  O  O391  1  0.88028819  0.24062528  0.24634056  1
  O  O392  1  0.88160254  0.24052862  0.74491753  1
  O  O393  1  0.86891729  0.73391900  0.25193724  1
  O  O394  1  0.87497690  0.75136875  0.73628515  1
  O  O395  1  0.37936123  0.49541567  0.49372779  1
  O  O396  1  0.37336651  0.49007132  0.98946510  1
  O  O397  1  0.38675946  1.00515518  0.49838377  1
  O  O398  1  0.37557454  0.99075785  0.99183858  1
  O  O399  1  0.88108335  0.49083627  0.49223179  1
  O  O400  1  0.88179874  0.49449955  0.99269207  1
  O  O401  1  0.87370088  1.00557444  0.48237381  1
  O  O402  1  0.87053184  1.00819796  0.99177925  1
  O  O403  1  0.17128300  0.01658583  0.01313956  1
  O  O404  1  0.13697409  0.02041868  0.51245561  1
  O  O405  1  0.10721057  0.49984600  -0.00007480  1
  O  O406  1  0.11544878  0.50730257  0.50300934  1
  O  O407  1  0.61703301  0.00782111  0.00529701  1
  O  O408  1  0.61072545  0.00493983  0.50574806  1
  O  O409  1  0.62825050  0.50312753  0.01665694  1
  O  O410  1  0.61564256  0.49988811  0.50747550  1
  O  O411  1  0.36744512  0.37341098  0.11801358  1
  O  O412  1  0.36616316  0.37234245  0.62288238  1
  O  O413  1  0.36510306  0.86580088  0.12029223  1
  O  O414  1  0.37493894  0.87604452  0.62026261  1
  O  O415  1  0.87720084  0.36015571  0.12876584  1
  O  O416  1  0.87800026  0.36218370  0.61984837  1
  O  O417  1  0.86040873  0.87649410  0.12865055  1
  O  O418  1  0.88996481  0.86056749  0.62701597  1
  O  O419  1  0.13193328  0.12783103  0.38275376  1
  O  O420  1  0.14232629  0.12428385  0.87636228  1
  O  O421  1  0.13763757  0.61775204  0.38070845  1
  O  O422  1  0.13226598  0.63174460  0.87521438  1
  O  O423  1  0.62587410  0.13559749  0.37639611  1
  O  O424  1  0.63165942  0.11895302  0.88390269  1
  O  O425  1  0.62793040  0.62954222  0.37850772  1
  O  O426  1  0.62457972  0.63713132  0.86828919  1
