# generated using pymatgen
data_V85Zn86O256
_symmetry_space_group_name_H-M   'P 1'
_cell_length_a   16.95990279
_cell_length_b   16.94335713
_cell_length_c   16.93652256
_cell_angle_alpha   89.95832433
_cell_angle_beta   90.01287242
_cell_angle_gamma   90.07428174
_symmetry_Int_Tables_number   1
_chemical_formula_structural   V85Zn86O256
_chemical_formula_sum   'V85 Zn86 O256'
_cell_volume   4866.83449686
_cell_formula_units_Z   1
loop_
 _symmetry_equiv_pos_site_id
 _symmetry_equiv_pos_as_xyz
  1  'x, y, z'
loop_
 _atom_site_type_symbol
 _atom_site_label
 _atom_site_symmetry_multiplicity
 _atom_site_fract_x
 _atom_site_fract_y
 _atom_site_fract_z
 _atom_site_occupancy
  V  V0  1  0.50997697  0.86503789  0.87371559  1
  V  V1  1  0.24937492  0.50249197  0.74576326  1
  V  V2  1  0.75176306  0.12294174  0.87022170  1
  V  V3  1  0.12627262  0.49894491  0.13042520  1
  V  V4  1  0.61966879  0.63175436  -0.00069940  1
  V  V5  1  0.87666011  0.87524883  0.00075420  1
  V  V6  1  0.37530707  0.49885980  0.86986478  1
  V  V7  1  0.50498438  0.76862656  0.24956374  1
  V  V8  1  0.87500512  0.62708642  0.25033167  1
  V  V9  1  0.36103372  0.23349393  0.11453773  1
  V  V10  1  0.00163880  0.50468042  0.49919668  1
  V  V11  1  0.12449145  0.62605337  0.00042858  1
  V  V12  1  0.12707079  0.75431584  0.87510703  1
  V  V13  1  0.74652001  0.38149761  0.64309786  1
  V  V14  1  0.25216036  0.75134471  0.00478016  1
  V  V15  1  0.87316945  0.37494966  0.00287387  1
  V  V16  1  0.00014574  0.37546325  0.37585288  1
  V  V17  1  0.62609646  0.25173600  0.86220727  1
  V  V18  1  0.25209415  0.87932014  0.13420192  1
  V  V19  1  0.74790560  0.87455488  0.13062058  1
  V  V20  1  0.50014602  0.50031751  -0.00600215  1
  V  V21  1  -0.00416639  0.24375086  0.25450648  1
  V  V22  1  0.13780682  0.88151754  0.75034830  1
  V  V23  1  0.86506233  0.75236630  0.62954236  1
  V  V24  1  0.37462614  -0.00211317  0.85608968  1
  V  V25  1  0.74779758  0.61883764  0.87591730  1
  V  V26  1  0.62436150  0.12397316  0.00132748  1
  V  V27  1  0.37928683  0.87485173  0.00088362  1
  V  V28  1  0.75117094  0.12814914  0.36974702  1
  V  V29  1  0.74698897  0.25640721  0.50103474  1
  V  V30  1  0.74736778  0.75659521  0.50287294  1
  V  V31  1  0.74802622  0.25000026  -0.00032592  1
  V  V32  1  0.50523166  0.24381980  0.23433622  1
  V  V33  1  0.49960338  -0.00610017  0.48756627  1
  V  V34  1  0.87750976  0.24628837  0.62459305  1
  V  V35  1  0.63551448  0.86165690  0.74602989  1
  V  V36  1  0.62216715  0.00070467  0.13083792  1
  V  V37  1  0.62159277  0.12566498  0.50165142  1
  V  V38  1  0.74529133  0.37445328  0.12774093  1
  V  V39  1  0.44099667  0.57327142  0.17778038  1
  V  V40  1  0.00075136  0.24249283  0.74783835  1
  V  V41  1  0.12450299  0.37521108  0.74668230  1
  V  V42  1  0.25307091  0.24176481  0.51257701  1
  V  V43  1  0.50116253  0.00087050  -0.00118076  1
  V  V44  1  -0.00065751  0.37611247  0.87462216  1
  V  V45  1  0.49187400  0.49752902  0.49512994  1
  V  V46  1  0.11290157  0.00825993  0.62754950  1
  V  V47  1  0.12596420  0.50341504  0.61922836  1
  V  V48  1  0.00371876  0.12451780  0.12243542  1
  V  V49  1  0.63116916  -0.00158209  0.62730438  1
  V  V50  1  0.37997578  0.74845201  0.13170003  1
  V  V51  1  0.13039266  0.00336363  0.12823230  1
  V  V52  1  0.74484080  0.49579687  0.25262788  1
  V  V53  1  0.37475869  0.75570207  0.62106192  1
  V  V54  1  0.00047313  0.62909437  0.12713270  1
  V  V55  1  0.87461317  0.88273955  0.50750139  1
  V  V56  1  0.48489471  0.12133342  0.62632020  1
  V  V57  1  0.62259613  0.76613575  0.36986047  1
  V  V58  1  0.87787627  0.00062536  0.87460320  1
  V  V59  1  0.62250406  0.62545477  0.49926259  1
  V  V60  1  0.00782859  0.87753808  0.87677321  1
  V  V61  1  0.37134570  0.11973645  0.26488292  1
  V  V62  1  0.75388836  -0.00001886  0.25218928  1
  V  V63  1  0.13195012  0.24566001  0.88885914  1
  V  V64  1  0.87681057  0.61859050  0.75335593  1
  V  V65  1  0.24697785  0.61684671  0.36535428  1
  V  V66  1  0.48518792  0.24516052  0.74336296  1
  V  V67  1  0.37861568  0.87166913  0.48000817  1
  V  V68  1  0.74788391  0.75210272  -0.00365086  1
  V  V69  1  0.62060370  0.25958786  0.37145249  1
  V  V70  1  0.12876916  0.37514650  0.25251780  1
  V  V71  1  -0.00204818  0.50072782  0.00103067  1
  V  V72  1  0.62468481  0.50035450  0.12796484  1
  V  V73  1  0.37465074  0.62962837  0.74669608  1
  V  V74  1  0.87208926  0.24224562  0.13113770  1
  V  V75  1  0.13433022  0.24467789  0.37779048  1
  V  V76  1  0.00364253  0.62975713  0.62380386  1
  V  V77  1  0.50325454  0.37430067  0.86427842  1
  V  V78  1  0.23106207  0.74419322  0.49344309  1
  V  V79  1  0.88214704  0.00533923  0.37769311  1
  V  V80  1  -0.00147273  0.86673782  0.37692413  1
  V  V81  1  0.87465785  0.50094719  0.37642640  1
  V  V82  1  0.74887736  0.62868510  0.37463323  1
  V  V83  1  0.10620074  0.11891426  0.49851210  1
  V  V84  1  0.24841380  0.62747233  0.87400567  1
  Zn  Zn85  1  0.25942090  0.37067568  0.62560429  1
  Zn  Zn86  1  0.86984112  0.49612914  0.87167774  1
  Zn  Zn87  1  0.00962258  0.74589504  0.25750162  1
  Zn  Zn88  1  0.87958161  0.12034266  0.74418721  1
  Zn  Zn89  1  0.00209367  0.75330994  0.74943677  1
  Zn  Zn90  1  0.25877718  0.13028534  0.87357266  1
  Zn  Zn91  1  0.75323870  -0.00606517  0.74530866  1
  Zn  Zn92  1  0.30045970  0.05583162  0.69019146  1
  Zn  Zn93  1  0.25229880  0.88376685  0.61950063  1
  Zn  Zn94  1  0.87527887  0.75283338  0.12770111  1
  Zn  Zn95  1  0.62141881  0.49194835  0.63467544  1
  Zn  Zn96  1  0.37195440  0.36980646  0.49769887  1
  Zn  Zn97  1  0.00286664  0.00633866  0.00169905  1
  Zn  Zn98  1  0.49103310  0.37713356  0.36769939  1
  Zn  Zn99  1  0.24689523  0.36504696  0.11845484  1
  Zn  Zn100  1  0.87301040  0.37852376  0.50340268  1
  Zn  Zn101  1  0.36923709  0.35935121  -0.00756874  1
  Zn  Zn102  1  0.27069365  0.49362727  0.25713222  1
  Zn  Zn103  1  0.12838592  0.87204180  0.25715639  1
  Zn  Zn104  1  0.49885492  0.62494322  0.62194396  1
  Zn  Zn105  1  0.25273900  0.00434756  0.28308792  1
  Zn  Zn106  1  0.50250675  0.74833141  0.74993112  1
  Zn  Zn107  1  0.18854014  0.18289551  0.19302032  1
  Zn  Zn108  1  0.18310872  0.18407466  0.69229885  1
  Zn  Zn109  1  0.18892943  0.68806159  0.19562838  1
  Zn  Zn110  1  0.18853437  0.69436244  0.68321467  1
  Zn  Zn111  1  0.68669618  0.18322687  0.18762048  1
  Zn  Zn112  1  0.68702194  0.18555289  0.68441828  1
  Zn  Zn113  1  0.68376406  0.68634018  0.18458377  1
  Zn  Zn114  1  0.67686823  0.65843845  0.70016592  1
  Zn  Zn115  1  0.31727167  0.30940025  0.31142291  1
  Zn  Zn116  1  0.30955208  0.31278659  0.81013163  1
  Zn  Zn117  1  0.31033566  0.80201323  0.31258518  1
  Zn  Zn118  1  0.31579375  0.81655532  0.81427323  1
  Zn  Zn119  1  0.81261218  0.31476185  0.31377986  1
  Zn  Zn120  1  0.81534747  0.31029226  0.81267843  1
  Zn  Zn121  1  0.81426469  0.81503455  0.31417520  1
  Zn  Zn122  1  0.81410652  0.80812098  0.81472182  1
  Zn  Zn123  1  0.19187890  0.43493133  0.43838385  1
  Zn  Zn124  1  0.18603069  0.43547897  0.93545065  1
  Zn  Zn125  1  0.17988645  0.92999817  0.44433470  1
  Zn  Zn126  1  0.20627076  0.97117493  0.95644419  1
  Zn  Zn127  1  0.68186602  0.43929597  0.44086016  1
  Zn  Zn128  1  0.68413376  0.43697256  0.93681637  1
  Zn  Zn129  1  0.68881477  0.93948225  0.44012081  1
  Zn  Zn130  1  0.68821410  0.93619669  0.93504771  1
  Zn  Zn131  1  0.31235342  0.06547625  0.05740061  1
  Zn  Zn132  1  0.28731187  0.04070814  0.49781131  1
  Zn  Zn133  1  0.29505808  0.53162841  0.04472539  1
  Zn  Zn134  1  0.31188172  0.56769060  0.55794140  1
  Zn  Zn135  1  0.81318452  0.06250816  0.06119367  1
  Zn  Zn136  1  0.81001198  0.06746727  0.55958736  1
  Zn  Zn137  1  0.81136050  0.56325241  0.06246829  1
  Zn  Zn138  1  0.81245711  0.56506261  0.56374700  1
  Zn  Zn139  1  0.43924231  0.40703201  0.18033924  1
  Zn  Zn140  1  0.43677888  0.43692899  0.67800154  1
  Zn  Zn141  1  0.43644650  0.94329517  0.18798143  1
  Zn  Zn142  1  0.45072252  0.93008188  0.67999902  1
  Zn  Zn143  1  0.93705134  0.43597870  0.18976360  1
  Zn  Zn144  1  0.93532011  0.43550380  0.68532306  1
  Zn  Zn145  1  0.93480597  0.94030791  0.19283340  1
  Zn  Zn146  1  0.93986200  0.93522015  0.69141991  1
  Zn  Zn147  1  0.06428880  0.05990160  0.30986877  1
  Zn  Zn148  1  0.06943944  0.06338325  0.81263996  1
  Zn  Zn149  1  0.06984477  0.56781358  0.31796760  1
  Zn  Zn150  1  0.06131529  0.56336794  0.81032567  1
  Zn  Zn151  1  0.56355178  0.07004588  0.31033850  1
  Zn  Zn152  1  0.56202172  0.05924211  0.80984175  1
  Zn  Zn153  1  0.56564112  0.56405016  0.31880017  1
  Zn  Zn154  1  0.56524155  0.56519689  0.81146253  1
  Zn  Zn155  1  0.43918513  0.18910317  0.43870859  1
  Zn  Zn156  1  0.44022040  0.18040505  0.93214393  1
  Zn  Zn157  1  0.43512946  0.68580752  0.42996325  1
  Zn  Zn158  1  0.43601994  0.68612823  0.93860318  1
  Zn  Zn159  1  0.93433659  0.19031500  0.43823742  1
  Zn  Zn160  1  0.93879858  0.18952798  0.93858761  1
  Zn  Zn161  1  0.93474516  0.68805671  0.44389201  1
  Zn  Zn162  1  0.93643166  0.69122576  0.93828734  1
  Zn  Zn163  1  0.05844284  0.31310360  0.06625234  1
  Zn  Zn164  1  0.06259985  0.31391644  0.56170523  1
  Zn  Zn165  1  0.06673768  0.81571847  0.06675562  1
  Zn  Zn166  1  0.05653705  0.82127314  0.56623273  1
  Zn  Zn167  1  0.56134961  0.31495233  0.05612913  1
  Zn  Zn168  1  0.56190850  0.31430779  0.56679020  1
  Zn  Zn169  1  0.56439736  0.81456786  0.06730763  1
  Zn  Zn170  1  0.56057381  0.81140328  0.56401093  1
  O  O171  1  0.11591258  0.11731716  0.13251546  1
  O  O172  1  0.12057028  0.11493793  0.61767646  1
  O  O173  1  0.11623285  0.61869275  0.12297273  1
  O  O174  1  0.11114854  0.61885595  0.63306753  1
  O  O175  1  0.63362123  0.11642303  0.10879797  1
  O  O176  1  0.61914284  0.11812674  0.61877863  1
  O  O177  1  0.63052894  0.61099174  0.11246122  1
  O  O178  1  0.61925296  0.64522411  0.60186250  1
  O  O179  1  0.37852010  0.36696621  0.38351032  1
  O  O180  1  0.38222292  0.38160007  0.87426989  1
  O  O181  1  0.37918989  0.86652747  0.38201378  1
  O  O182  1  0.39027721  0.87964662  0.87949405  1
  O  O183  1  0.88231074  0.38414371  0.37657846  1
  O  O184  1  0.88262600  0.37590596  0.88168500  1
  O  O185  1  0.87809268  0.88423518  0.38502609  1
  O  O186  1  0.88391536  0.88209667  0.87920174  1
  O  O187  1  0.25148651  -0.00111139  0.39580407  1
  O  O188  1  0.27634220  -0.02442669  0.86401653  1
  O  O189  1  0.24697959  0.50811790  0.37154218  1
  O  O190  1  0.25244211  0.50816190  0.86429476  1
  O  O191  1  0.75327126  0.00818510  0.36937373  1
  O  O192  1  0.75990495  0.00743285  0.87436778  1
  O  O193  1  0.75165535  0.50587529  0.36897050  1
  O  O194  1  0.75250132  0.51328019  0.88406187  1
  O  O195  1  0.23149125  0.50627360  0.13810652  1
  O  O196  1  0.24010791  0.50338127  0.62825743  1
  O  O197  1  0.24521268  0.99206093  0.12713942  1
  O  O198  1  0.23889357  1.00021497  0.60935943  1
  O  O199  1  0.74265382  0.49582972  0.13180170  1
  O  O200  1  0.75408889  0.48235491  0.61906802  1
  O  O201  1  0.74750610  0.99596793  0.13292133  1
  O  O202  1  0.73656494  1.00661096  0.62598440  1
  O  O203  1  0.00573011  0.36429335  0.25449691  1
  O  O204  1  0.00499241  0.37179184  0.75815134  1
  O  O205  1  -0.00998101  0.87059605  0.26673376  1
  O  O206  1  0.00922252  0.87480461  0.76424528  1
  O  O207  1  0.50183266  0.35053716  0.25258276  1
  O  O208  1  0.49780348  0.36360687  0.75669142  1
  O  O209  1  0.50245373  0.86705352  0.24769793  1
  O  O210  1  0.51466592  0.86992613  0.75738289  1
  O  O211  1  0.48903836  0.13584364  0.25148805  1
  O  O212  1  0.50421645  0.13704678  0.74389750  1
  O  O213  1  0.49803544  0.62470749  0.24333619  1
  O  O214  1  0.48306978  0.62940625  0.75406408  1
  O  O215  1  1.00236694  0.13828209  0.24337692  1
  O  O216  1  1.00001930  0.13950417  0.75505198  1
  O  O217  1  0.99253458  0.62417692  0.24466927  1
  O  O218  1  0.99332946  0.62981042  0.74335583  1
  O  O219  1  0.38023377  0.24025348  0.00986030  1
  O  O220  1  0.35472944  0.23895640  0.49991302  1
  O  O221  1  0.37389891  0.75430400  0.01176012  1
  O  O222  1  0.37775787  0.75984255  0.50482855  1
  O  O223  1  0.86759479  0.25581635  0.00802733  1
  O  O224  1  0.86594795  0.25488198  0.50734233  1
  O  O225  1  0.86730287  0.75767910  0.00527212  1
  O  O226  1  0.86570689  0.75800312  0.50783702  1
  O  O227  1  0.12374424  0.24235236  0.49370201  1
  O  O228  1  0.12253615  0.26252958  0.98656473  1
  O  O229  1  0.13384968  0.75884703  0.50660806  1
  O  O230  1  0.13307028  0.74534226  0.99716988  1
  O  O231  1  0.62926755  0.24691588  0.49308235  1
  O  O232  1  0.62858093  0.24121834  0.99158071  1
  O  O233  1  0.63079095  0.75139968  0.48927704  1
  O  O234  1  0.63324462  0.74170422  1.00868312  1
  O  O235  1  0.50021429  0.24914461  0.13159238  1
  O  O236  1  0.50389930  0.24079752  0.63701889  1
  O  O237  1  0.49613627  0.75182651  0.13757313  1
  O  O238  1  0.48903231  0.74624957  0.62818942  1
  O  O239  1  0.99185715  0.24575392  0.13348394  1
  O  O240  1  0.98999412  0.26076363  0.63585275  1
  O  O241  1  0.99717505  0.73739831  0.12374372  1
  O  O242  1  0.99016788  0.74262320  0.62349590  1
  O  O243  1  0.00352087  0.25604051  0.36964338  1
  O  O244  1  0.00482718  0.26197235  0.87021182  1
  O  O245  1  -0.01053272  0.76283855  0.37664233  1
  O  O246  1  0.00952587  0.75965335  0.87690848  1
  O  O247  1  0.50947753  0.24791450  0.36830788  1
  O  O248  1  0.50565189  0.25347246  0.86436630  1
  O  O249  1  0.50805947  0.74501787  0.35732426  1
  O  O250  1  0.49750797  0.76164143  0.87501577  1
  O  O251  1  0.22751274  0.13934666  0.50083086  1
  O  O252  1  0.24035271  0.08273837  0.97542944  1
  O  O253  1  0.24539159  0.64106688  0.50103057  1
  O  O254  1  0.24209591  0.62680733  0.99447949  1
  O  O255  1  0.74273549  0.13918033  0.49342381  1
  O  O256  1  0.74585618  0.12977322  0.98868343  1
  O  O257  1  0.74587429  0.63627865  0.49458585  1
  O  O258  1  0.74552355  0.63336650  0.99637741  1
  O  O259  1  0.26484747  0.41160023  0.01107821  1
  O  O260  1  0.24184897  0.35487945  0.50326890  1
  O  O261  1  0.26016523  0.87166268  0.01333561  1
  O  O262  1  0.26327065  0.86096485  0.49920601  1
  O  O263  1  0.75300603  0.36892382  0.00588978  1
  O  O264  1  0.75029189  0.36409588  0.49920085  1
  O  O265  1  0.75590207  0.86936219  0.00474010  1
  O  O266  1  0.75703460  0.86341406  0.49862739  1
  O  O267  1  0.11440186  0.48461948  0.24570863  1
  O  O268  1  0.12759249  0.49498026  0.74094544  1
  O  O269  1  0.13237186  0.99337723  0.24474305  1
  O  O270  1  0.12497083  0.99599686  0.73875975  1
  O  O271  1  0.63304623  0.50705412  0.24134571  1
  O  O272  1  0.63754935  0.55103150  0.72952737  1
  O  O273  1  0.63444423  1.01048480  0.23726146  1
  O  O274  1  0.62845077  0.99022950  0.74274714  1
  O  O275  1  0.37587745  0.01591463  0.24894332  1
  O  O276  1  0.38404060  -0.00714603  0.75267990  1
  O  O277  1  0.38697481  0.50183656  0.22930240  1
  O  O278  1  0.36998722  0.50852693  0.75166787  1
  O  O279  1  0.86108805  0.00130417  0.26079224  1
  O  O280  1  0.87362724  0.00111590  0.76048840  1
  O  O281  1  0.86867029  0.50942835  0.25524745  1
  O  O282  1  0.88000551  0.51401542  0.75106549  1
  O  O283  1  0.11903085  0.36729180  0.36903494  1
  O  O284  1  0.11864026  0.37173576  0.86551445  1
  O  O285  1  0.10119969  0.88090327  0.37820939  1
  O  O286  1  0.12116000  0.87593119  0.86994595  1
  O  O287  1  0.62570632  0.36139942  0.37489633  1
  O  O288  1  0.61604200  0.36424125  0.87825268  1
  O  O289  1  0.63179623  0.86508152  0.37319074  1
  O  O290  1  0.62107189  0.87816982  0.86111510  1
  O  O291  1  0.37611741  0.13118346  0.12692417  1
  O  O292  1  0.38621377  0.11069551  0.62560929  1
  O  O293  1  0.37763674  0.62893546  0.12076054  1
  O  O294  1  0.37449282  0.63584906  0.63129913  1
  O  O295  1  0.87770595  0.13744405  0.12410249  1
  O  O296  1  0.86733546  0.14086986  0.62726127  1
  O  O297  1  0.88310882  0.62344699  0.13336816  1
  O  O298  1  0.88239778  0.63136586  0.63306358  1
  O  O299  1  0.25742592  0.24320549  0.11950390  1
  O  O300  1  0.23893880  0.25039722  0.61517116  1
  O  O301  1  0.26182513  0.75459189  0.12324069  1
  O  O302  1  0.25763902  0.75365186  0.61236031  1
  O  O303  1  0.75451832  0.25358339  0.12293200  1
  O  O304  1  0.75350565  0.25955394  0.61913844  1
  O  O305  1  0.75107603  0.75858169  0.11888027  1
  O  O306  1  0.76151951  0.74171456  0.61783667  1
  O  O307  1  0.23576009  0.25007396  0.37911197  1
  O  O308  1  0.23686804  0.25316162  0.87714075  1
  O  O309  1  0.24564100  0.74636761  0.38807485  1
  O  O310  1  0.24727348  0.74747409  0.88426088  1
  O  O311  1  0.74524638  0.24546372  0.37949609  1
  O  O312  1  0.74384974  0.24427011  0.87887340  1
  O  O313  1  0.74480735  0.74652325  0.38073418  1
  O  O314  1  0.75548223  0.74263356  0.89145103  1
  O  O315  1  -0.00486990  0.12721728  0.01746326  1
  O  O316  1  0.00791937  0.13274737  0.50557169  1
  O  O317  1  0.00385455  0.62070398  0.00732699  1
  O  O318  1  -0.00438185  0.61413790  0.50888451  1
  O  O319  1  0.51197245  0.11019381  -0.00878212  1
  O  O320  1  0.50324918  0.11832093  0.50820017  1
  O  O321  1  0.51067387  0.61816646  -0.00633330  1
  O  O322  1  0.50682980  0.61659386  0.49350706  1
  O  O323  1  0.50520334  0.38925849  0.50030502  1
  O  O324  1  0.49590919  0.38260297  0.98581094  1
  O  O325  1  0.48955160  0.87964129  0.50076288  1
  O  O326  1  0.50210260  0.88125635  0.99236668  1
  O  O327  1  0.99754909  0.38770897  0.49548096  1
  O  O328  1  0.99366974  0.38015565  0.99436183  1
  O  O329  1  0.98518937  0.87401540  0.49015015  1
  O  O330  1  0.99463564  0.87458788  0.99139893  1
  O  O331  1  0.50967770  0.49472445  0.38919261  1
  O  O332  1  0.50034110  0.49213358  0.87573763  1
  O  O333  1  0.51144611  1.00494155  0.38908984  1
  O  O334  1  0.49627835  0.98844552  0.87909618  1
  O  O335  1  0.99728555  0.49856481  0.38274948  1
  O  O336  1  1.00071095  0.48899956  0.87999336  1
  O  O337  1  0.98478249  0.99506118  0.36924788  1
  O  O338  1  0.99598762  0.99600893  0.87841799  1
  O  O339  1  0.00447593  0.00991804  0.13159151  1
  O  O340  1  0.01340137  -0.00257247  0.62786457  1
  O  O341  1  0.00632284  0.50851032  0.12320110  1
  O  O342  1  0.00405444  0.50670596  0.61856355  1
  O  O343  1  0.51288306  -0.00793262  0.11384155  1
  O  O344  1  0.51290409  0.00611732  0.61784336  1
  O  O345  1  0.50104675  0.50192308  0.11937410  1
  O  O346  1  0.50531065  0.50650671  0.61313195  1
  O  O347  1  0.24222837  0.37581115  0.24466011  1
  O  O348  1  0.23999391  0.38242789  0.74709529  1
  O  O349  1  0.25745857  0.87875973  0.24259413  1
  O  O350  1  0.23959480  0.87011352  0.74492057  1
  O  O351  1  0.75353280  0.38898425  0.24553458  1
  O  O352  1  0.75252484  0.37601050  0.74234379  1
  O  O353  1  0.75411768  0.88421755  0.24168133  1
  O  O354  1  0.73919816  0.87410817  0.75573014  1
  O  O355  1  0.26564131  0.12307544  0.25194162  1
  O  O356  1  0.24560479  0.12293262  0.76023296  1
  O  O357  1  0.25160719  0.61675453  0.25916856  1
  O  O358  1  0.25750325  0.62380267  0.75238581  1
  O  O359  1  0.74844604  0.11993638  0.26265297  1
  O  O360  1  0.75199254  0.12454933  0.76207692  1
  O  O361  1  0.75621254  0.61651583  0.25222549  1
  O  O362  1  0.76644637  0.64146274  0.76869360  1
  O  O363  1  0.37626241  0.12852508  0.36376778  1
  O  O364  1  0.37997060  0.10140970  0.87349898  1
  O  O365  1  0.34858481  0.63218838  0.38292436  1
  O  O366  1  0.36670528  0.62127199  0.86748374  1
  O  O367  1  0.86341119  0.11757724  0.38452994  1
  O  O368  1  0.86975311  0.11818814  0.87486439  1
  O  O369  1  0.86922317  0.62072513  0.36919369  1
  O  O370  1  0.87239166  0.62215351  0.87034642  1
  O  O371  1  0.12517539  0.38109140  0.13284610  1
  O  O372  1  0.12275950  0.38449828  0.63612156  1
  O  O373  1  0.13733108  0.88093895  0.13068433  1
  O  O374  1  0.12522764  0.88688924  0.63340178  1
  O  O375  1  0.62959044  0.38969826  0.11683065  1
  O  O376  1  0.64167319  0.37480331  0.62678334  1
  O  O377  1  0.64038327  0.88674051  0.11931000  1
  O  O378  1  0.62202211  0.88082560  0.63838836  1
  O  O379  1  0.11882391  0.25731211  0.25693710  1
  O  O380  1  0.11696318  0.26093780  0.75640732  1
  O  O381  1  0.12096940  0.75923869  0.24474406  1
  O  O382  1  0.12399733  0.75999206  0.75678459  1
  O  O383  1  0.61272474  0.23834794  0.25531477  1
  O  O384  1  0.62040021  0.24539640  0.76052033  1
  O  O385  1  0.61315475  0.74688091  0.25316905  1
  O  O386  1  0.62659917  0.75893740  0.74413872  1
  O  O387  1  0.38146867  0.23812098  0.23454433  1
  O  O388  1  0.38677351  0.24816088  0.75351923  1
  O  O389  1  0.38841145  0.75137472  0.23971766  1
  O  O390  1  0.37232323  0.74456959  0.74171990  1
  O  O391  1  0.88296728  0.25544925  0.24289704  1
  O  O392  1  0.88413756  0.24845519  0.74407989  1
  O  O393  1  0.87388242  0.73597972  0.24887880  1
  O  O394  1  0.88098849  0.74514976  0.74360691  1
  O  O395  1  0.39040205  0.50477696  0.50115749  1
  O  O396  1  0.39236024  0.51004015  0.98762682  1
  O  O397  1  0.38533101  0.97898007  0.50274279  1
  O  O398  1  0.38928809  0.99053699  0.99719654  1
  O  O399  1  0.88241234  0.50079655  0.49377409  1
  O  O400  1  0.88166278  0.49307586  1.00094869  1
  O  O401  1  0.86463275  0.99100392  0.49341494  1
  O  O402  1  0.87808244  0.99453814  0.99026926  1
  O  O403  1  0.11491909  -0.01128886  0.02373231  1
  O  O404  1  0.11660067  0.01247451  0.50869402  1
  O  O405  1  0.11675412  0.50586620  0.00942799  1
  O  O406  1  0.11830447  0.49499559  0.51281333  1
  O  O407  1  0.62281970  0.00566241  0.00527570  1
  O  O408  1  0.62058129  0.00351097  0.50765869  1
  O  O409  1  0.61365829  0.50529098  0.00452283  1
  O  O410  1  0.62084687  0.51181819  0.50590732  1
  O  O411  1  0.36970416  0.35012199  0.11509022  1
  O  O412  1  0.37134786  0.37641465  0.61247441  1
  O  O413  1  0.37264796  0.86709060  0.12157496  1
  O  O414  1  0.37386826  0.86406507  0.62378357  1
  O  O415  1  0.86801094  0.36627164  0.12191114  1
  O  O416  1  0.86352087  0.36546898  0.62498943  1
  O  O417  1  0.86560012  0.87726038  0.11925146  1
  O  O418  1  0.87959979  0.86732572  0.61871881  1
  O  O419  1  0.11253055  0.13143255  0.38785906  1
  O  O420  1  0.11726432  0.14528743  0.87769195  1
  O  O421  1  0.14285154  0.62758763  0.37723474  1
  O  O422  1  0.12893836  0.63207030  0.87910865  1
  O  O423  1  0.63420524  0.13364208  0.38238526  1
  O  O424  1  0.63295613  0.12833107  0.88156537  1
  O  O425  1  0.63252425  0.63555776  0.38273383  1
  O  O426  1  0.63492846  0.62491870  0.88908993  1
