# generated using pymatgen
data_V85Zn86O256
_symmetry_space_group_name_H-M   'P 1'
_cell_length_a   16.94661693
_cell_length_b   16.96022961
_cell_length_c   16.95168509
_cell_angle_alpha   89.92492553
_cell_angle_beta   90.04772135
_cell_angle_gamma   89.85277032
_symmetry_Int_Tables_number   1
_chemical_formula_structural   V85Zn86O256
_chemical_formula_sum   'V85 Zn86 O256'
_cell_volume   4872.20616977
_cell_formula_units_Z   1
loop_
 _symmetry_equiv_pos_site_id
 _symmetry_equiv_pos_as_xyz
  1  'x, y, z'
loop_
 _atom_site_type_symbol
 _atom_site_label
 _atom_site_symmetry_multiplicity
 _atom_site_fract_x
 _atom_site_fract_y
 _atom_site_fract_z
 _atom_site_occupancy
  V  V0  1  0.49744614  0.24984731  0.24769832  1
  V  V1  1  0.00236627  0.74028383  0.74720076  1
  V  V2  1  0.37007056  0.12637589  0.24446749  1
  V  V3  1  0.49812699  0.12904529  0.12238301  1
  V  V4  1  0.49772558  0.87227399  0.88092368  1
  V  V5  1  0.62527512  0.62136882  -0.00160987  1
  V  V6  1  0.62117637  0.75213489  0.37396381  1
  V  V7  1  0.62308813  0.49820663  0.12808864  1
  V  V8  1  0.75271029  0.87690680  0.62757500  1
  V  V9  1  0.49895811  0.62693687  0.13892761  1
  V  V10  1  0.49869477  -0.00280184  0.00002404  1
  V  V11  1  0.37466756  0.12249745  0.75184449  1
  V  V12  1  0.62557049  0.87909155  0.75212675  1
  V  V13  1  0.75055427  0.62483935  0.87509545  1
  V  V14  1  0.87874278  0.88255401  0.00431443  1
  V  V15  1  0.75214801  0.62852471  0.37398138  1
  V  V16  1  0.90340483  0.20911659  0.11326302  1
  V  V17  1  0.37261433  -0.00434516  0.88275181  1
  V  V18  1  0.27021641  0.75469445  0.00445922  1
  V  V19  1  0.24077778  0.12444522  0.88044466  1
  V  V20  1  0.50207965  0.74717573  0.74496030  1
  V  V21  1  0.25835388  0.62228355  0.87459288  1
  V  V22  1  0.75150761  0.37080538  0.12719270  1
  V  V23  1  0.00272843  0.11812992  0.63273959  1
  V  V24  1  0.37335371  0.00627278  0.37847641  1
  V  V25  1  0.87670903  0.49879753  0.37319271  1
  V  V26  1  0.48722924  0.49730336  -0.00351570  1
  V  V27  1  0.74725248  0.24912722  0.00138260  1
  V  V28  1  0.12597862  0.74979894  0.87903023  1
  V  V29  1  0.62574679  0.87341409  0.24671146  1
  V  V30  1  0.38184226  0.61733196  0.74576215  1
  V  V31  1  0.87803842  0.24448242  0.63088548  1
  V  V32  1  0.37362229  0.37484718  0.50117580  1
  V  V33  1  0.37858761  0.74355267  0.62021507  1
  V  V34  1  0.50235255  0.88683811  0.37336554  1
  V  V35  1  0.24864710  0.00002994  0.74736052  1
  V  V36  1  0.00224662  0.49513947  -0.00298858  1
  V  V37  1  0.11777049  0.00539762  0.11081841  1
  V  V38  1  0.48562011  0.38160587  0.87808163  1
  V  V39  1  0.00186553  0.00313280  0.49177088  1
  V  V40  1  0.62660973  0.12336922  -0.00323805  1
  V  V41  1  0.37106796  0.24759098  0.62581366  1
  V  V42  1  0.87777780  0.62786726  0.24110828  1
  V  V43  1  0.12166097  0.12994375  0.49644742  1
  V  V44  1  0.12428040  0.36625866  0.25375041  1
  V  V45  1  0.87419656  0.11957467  0.26137502  1
  V  V46  1  0.25807377  0.24577683  0.00426029  1
  V  V47  1  0.62387445  0.23973221  0.37955301  1
  V  V48  1  0.24322240  0.37192435  0.62795875  1
  V  V49  1  0.62005714  0.00326330  0.61725260  1
  V  V50  1  0.76111511  0.74628268  0.00730248  1
  V  V51  1  0.76529935  0.12244603  0.87222533  1
  V  V52  1  0.74404081  0.24300619  0.50282155  1
  V  V53  1  0.38208541  0.88040327  0.50156489  1
  V  V54  1  0.75169752  0.75059494  0.50029753  1
  V  V55  1  0.26516925  0.37444579  0.11813475  1
  V  V56  1  0.12404897  0.49984507  0.12525065  1
  V  V57  1  0.87543331  0.37457298  0.49908401  1
  V  V58  1  0.62116101  0.37848741  0.74995682  1
  V  V59  1  0.24698405  0.50108514  0.24874073  1
  V  V60  1  0.12447224  0.76702850  0.36863768  1
  V  V61  1  0.62620474  0.37224438  0.25375006  1
  V  V62  1  0.25004031  0.87787526  0.62542289  1
  V  V63  1  0.76380239  0.00351210  0.75276872  1
  V  V64  1  0.37222209  0.49900826  0.37664061  1
  V  V65  1  0.12708900  0.62478353  -0.00129958  1
  V  V66  1  0.74579823  0.37778778  0.62547573  1
  V  V67  1  0.24223662  0.62497952  0.37472533  1
  V  V68  1  0.50011763  0.24621083  0.75354085  1
  V  V69  1  0.63539234  -0.00141208  0.12378191  1
  V  V70  1  0.24838590  0.75209606  0.50068441  1
  V  V71  1  0.87928018  0.49675490  0.87378033  1
  V  V72  1  0.11561983  0.62753741  0.50421710  1
  V  V73  1  -0.00056700  0.76006817  0.23997696  1
  V  V74  1  0.87764557  0.37471741  0.00212470  1
  V  V75  1  -0.00728942  0.88259195  0.87554541  1
  V  V76  1  0.24951261  0.49725031  0.75489806  1
  V  V77  1  0.24165741  0.13329812  0.37066546  1
  V  V78  1  0.74406588  0.50247664  0.74791293  1
  V  V79  1  0.87616158  0.88232415  0.49351064  1
  V  V80  1  0.11414355  0.50343420  0.62754099  1
  V  V81  1  0.10985288  0.36738028  0.75921097  1
  V  V82  1  0.88164575  0.74244446  0.62179979  1
  V  V83  1  0.50161515  0.12304900  0.61310669  1
  V  V84  1  0.12587632  0.87582936  0.74697695  1
  Zn  Zn85  1  0.00703742  0.37244083  0.38023740  1
  Zn  Zn86  1  0.25776287  0.87055351  0.13950464  1
  Zn  Zn87  1  0.11419727  0.25069696  0.88431646  1
  Zn  Zn88  1  -0.00227862  0.88448025  0.36683201  1
  Zn  Zn89  1  0.49626213  0.51543400  0.51433906  1
  Zn  Zn90  1  0.49927328  0.37302983  0.37911549  1
  Zn  Zn91  1  0.74894876  0.11421204  0.38783842  1
  Zn  Zn92  1  0.44329042  0.78807866  0.20349488  1
  Zn  Zn93  1  -0.00281720  0.63020459  0.11990502  1
  Zn  Zn94  1  0.76091846  0.86930284  0.12969130  1
  Zn  Zn95  1  0.75074634  0.49900889  0.25042080  1
  Zn  Zn96  1  0.22358535  -0.02294645  0.25441395  1
  Zn  Zn97  1  0.87989197  0.61983938  0.74411173  1
  Zn  Zn98  1  0.00063175  0.24470342  0.25608382  1
  Zn  Zn99  1  -0.00620206  0.50596267  0.50493874  1
  Zn  Zn100  1  0.61213508  0.62474153  0.51026132  1
  Zn  Zn101  1  0.62366628  0.24939206  0.87523557  1
  Zn  Zn102  1  0.36844724  0.63073687  0.24759202  1
  Zn  Zn103  1  0.24073876  0.25407443  0.49412618  1
  Zn  Zn104  1  0.94623949  0.20009877  0.79267513  1
  Zn  Zn105  1  0.75796668  -0.00608562  0.27009532  1
  Zn  Zn106  1  0.62897116  0.74973514  0.87429422  1
  Zn  Zn107  1  0.18687321  0.18455517  0.17864152  1
  Zn  Zn108  1  0.18038936  0.18639761  0.68930723  1
  Zn  Zn109  1  0.18440680  0.69294486  0.18561821  1
  Zn  Zn110  1  0.18926797  0.68725323  0.68717121  1
  Zn  Zn111  1  0.69600512  0.18038860  0.19087126  1
  Zn  Zn112  1  0.68606659  0.18635041  0.68848630  1
  Zn  Zn113  1  0.68493778  0.68797628  0.18894974  1
  Zn  Zn114  1  0.69236664  0.69187188  0.68772281  1
  Zn  Zn115  1  0.31053656  0.31133682  0.30868728  1
  Zn  Zn116  1  0.30859690  0.30890320  0.81513875  1
  Zn  Zn117  1  0.31555397  0.81174096  0.31144056  1
  Zn  Zn118  1  0.31510593  0.80959096  0.81374659  1
  Zn  Zn119  1  0.81783560  0.30216582  0.31143519  1
  Zn  Zn120  1  0.80828338  0.31686051  0.81759340  1
  Zn  Zn121  1  0.81517175  0.81324394  0.31037716  1
  Zn  Zn122  1  0.81493171  0.80888707  0.81153635  1
  Zn  Zn123  1  0.18534639  0.43956157  0.43999821  1
  Zn  Zn124  1  0.19130350  0.43376608  0.93749361  1
  Zn  Zn125  1  0.18909324  0.94768431  0.44120157  1
  Zn  Zn126  1  0.18707798  0.93105765  0.94481510  1
  Zn  Zn127  1  0.68816816  0.43640324  0.43845918  1
  Zn  Zn128  1  0.68312540  0.43793992  0.93425874  1
  Zn  Zn129  1  0.68707305  0.93751278  0.44193015  1
  Zn  Zn130  1  0.69323111  0.93697377  0.93684083  1
  Zn  Zn131  1  0.30286220  0.05639385  0.06664880  1
  Zn  Zn132  1  0.30903852  0.06528062  0.56121068  1
  Zn  Zn133  1  0.31486376  0.56732041  0.06487522  1
  Zn  Zn134  1  0.30551968  0.56097224  0.56280616  1
  Zn  Zn135  1  0.82593381  0.06088640  0.05930129  1
  Zn  Zn136  1  0.81505048  0.06110242  0.56670994  1
  Zn  Zn137  1  0.81120086  0.55719456  0.06418120  1
  Zn  Zn138  1  0.80533571  0.56313950  0.56091199  1
  Zn  Zn139  1  0.44006094  0.44449511  0.19350839  1
  Zn  Zn140  1  0.43323736  0.43290867  0.68809562  1
  Zn  Zn141  1  0.43141653  0.95055104  0.18420752  1
  Zn  Zn142  1  0.43797254  0.93742679  0.68991833  1
  Zn  Zn143  1  0.93964007  0.43862827  0.18609845  1
  Zn  Zn144  1  0.93396515  0.43453493  0.68666149  1
  Zn  Zn145  1  0.94811707  0.94997644  0.18197652  1
  Zn  Zn146  1  0.94228160  0.93326832  0.68155167  1
  Zn  Zn147  1  0.06016103  0.06401903  0.30393679  1
  Zn  Zn148  1  0.06665923  0.05617403  0.81524016  1
  Zn  Zn149  1  0.05876776  0.56384506  0.31229145  1
  Zn  Zn150  1  0.06513574  0.55991965  0.81446925  1
  Zn  Zn151  1  0.56463453  0.06127407  0.30976843  1
  Zn  Zn152  1  0.56667714  0.06177979  0.81307995  1
  Zn  Zn153  1  0.57548599  0.54636690  0.34874856  1
  Zn  Zn154  1  0.56565953  0.56340351  0.68259356  1
  Zn  Zn155  1  0.43252882  0.19274342  0.43537509  1
  Zn  Zn156  1  0.43165945  0.18845635  0.93825918  1
  Zn  Zn157  1  0.43418020  0.69316925  0.41583945  1
  Zn  Zn158  1  0.44397693  0.67946529  0.93071626  1
  Zn  Zn159  1  0.93973648  0.19309646  0.43727682  1
  Zn  Zn160  1  0.94922554  0.17190446  0.95236038  1
  Zn  Zn161  1  0.93921014  0.69258884  0.43042870  1
  Zn  Zn162  1  0.93865608  0.68631742  0.93525278  1
  Zn  Zn163  1  0.07039612  0.31257154  0.06272540  1
  Zn  Zn164  1  0.05798450  0.30893426  0.56599156  1
  Zn  Zn165  1  0.06769270  0.82425087  0.06421572  1
  Zn  Zn166  1  0.06169384  0.81564326  0.56195969  1
  Zn  Zn167  1  0.56114997  0.31224592  0.06215880  1
  Zn  Zn168  1  0.55910159  0.31594167  0.56554761  1
  Zn  Zn169  1  0.56803974  0.80761845  0.05981032  1
  Zn  Zn170  1  0.56409414  0.81325320  0.56142210  1
  O  O171  1  0.13082341  0.10913378  0.12227425  1
  O  O172  1  0.10942684  0.12870467  0.61829089  1
  O  O173  1  0.12762752  0.61302781  0.11678849  1
  O  O174  1  0.13138756  0.61591124  0.61739002  1
  O  O175  1  0.62141281  0.11659904  0.11846860  1
  O  O176  1  0.61378407  0.11617707  0.63127921  1
  O  O177  1  0.61999594  0.61684760  0.11924267  1
  O  O178  1  0.63790294  0.62279708  0.62084197  1
  O  O179  1  0.36602448  0.38030205  0.38560600  1
  O  O180  1  0.38708991  0.37631733  0.86691400  1
  O  O181  1  0.38337008  0.88631878  0.38226779  1
  O  O182  1  0.38623109  0.88332219  0.86726489  1
  O  O183  1  0.86845792  0.38339414  0.38323779  1
  O  O184  1  0.86851023  0.38247905  0.89223495  1
  O  O185  1  0.87871083  0.86790200  0.39034581  1
  O  O186  1  0.88924106  0.86819296  0.87691089  1
  O  O187  1  0.25670132  0.01090474  0.36808341  1
  O  O188  1  0.25720437  0.00270403  0.86856110  1
  O  O189  1  0.25144086  0.50529851  0.36888919  1
  O  O190  1  0.24569760  0.50675003  0.86311906  1
  O  O191  1  0.75332014  0.00089365  0.38381268  1
  O  O192  1  0.74719222  0.01033893  0.86540400  1
  O  O193  1  0.76138488  0.51023122  0.37254412  1
  O  O194  1  0.75867683  0.50380064  0.86862248  1
  O  O195  1  0.24571373  0.49361554  0.12829931  1
  O  O196  1  0.23956524  0.48994828  0.63460317  1
  O  O197  1  0.25266877  0.99309174  0.14047379  1
  O  O198  1  0.25871099  0.99454128  0.63962871  1
  O  O199  1  0.74137444  0.48755967  0.12745671  1
  O  O200  1  0.75640794  0.48676226  0.63364881  1
  O  O201  1  0.73826655  0.99414343  0.11535451  1
  O  O202  1  0.74148170  0.99616354  0.63302711  1
  O  O203  1  0.01750427  0.37955110  0.24760421  1
  O  O204  1  0.01121494  0.37619441  0.74947424  1
  O  O205  1  -0.00916056  0.86332702  0.24931469  1
  O  O206  1  0.00778841  0.86685109  0.75785979  1
  O  O207  1  0.50776832  0.36572342  0.24852062  1
  O  O208  1  0.50416735  0.36860621  0.75911326  1
  O  O209  1  0.50916712  0.87851051  0.25907216  1
  O  O210  1  0.50718983  0.86906572  0.75862203  1
  O  O211  1  0.49582599  0.13134920  0.24202987  1
  O  O212  1  0.49473272  0.13305871  0.74993872  1
  O  O213  1  0.50661419  0.61387745  0.23671957  1
  O  O214  1  0.49173323  0.63323518  0.74801108  1
  O  O215  1  0.98016152  0.12707312  0.24700502  1
  O  O216  1  1.00406668  0.11624035  0.73813266  1
  O  O217  1  0.99255636  0.63349501  0.24663490  1
  O  O218  1  1.00055902  0.63602085  0.75450565  1
  O  O219  1  0.35876210  0.25775270  -0.00616117  1
  O  O220  1  0.36634780  0.25784164  0.50802952  1
  O  O221  1  0.36788652  0.73843985  -0.00522050  1
  O  O222  1  0.36916972  0.75871148  0.50382814  1
  O  O223  1  0.86521373  0.25989045  0.01708770  1
  O  O224  1  0.86508758  0.25853921  0.51048880  1
  O  O225  1  0.86770214  0.75477152  -0.00501396  1
  O  O226  1  0.87228971  0.75469613  0.50508630  1
  O  O227  1  0.12344763  0.23706519  0.50360863  1
  O  O228  1  0.14737401  0.26306944  0.99633232  1
  O  O229  1  0.12897070  0.74559880  0.49436020  1
  O  O230  1  0.12806413  0.74489669  0.98785103  1
  O  O231  1  0.63223101  0.26117672  0.49231385  1
  O  O232  1  0.63231485  0.24357744  0.99787277  1
  O  O233  1  0.63581410  0.75214395  0.49216532  1
  O  O234  1  0.63323516  0.73499280  0.99535616  1
  O  O235  1  0.50618101  0.23694718  0.13106198  1
  O  O236  1  0.49385239  0.24528756  0.63730381  1
  O  O237  1  0.51079893  0.73191331  0.12692392  1
  O  O238  1  0.49241124  0.75751155  0.63565311  1
  O  O239  1  0.99546669  0.25618204  0.13004978  1
  O  O240  1  0.98934998  0.23646130  0.62478689  1
  O  O241  1  1.00968711  0.74887132  0.13632993  1
  O  O242  1  0.99421026  0.75445176  0.63443469  1
  O  O243  1  -0.00720128  0.26177664  0.36867216  1
  O  O244  1  0.00116311  0.23579353  0.88239374  1
  O  O245  1  0.00986715  0.75547857  0.36415993  1
  O  O246  1  0.00966841  0.75388655  0.86678255  1
  O  O247  1  0.50579819  0.25363575  0.36771148  1
  O  O248  1  0.49846218  0.25742907  0.86661535  1
  O  O249  1  0.51759976  0.77026537  0.38384195  1
  O  O250  1  0.50237727  0.75497028  0.86242539  1
  O  O251  1  0.23887612  0.12600815  0.49150319  1
  O  O252  1  0.25920220  0.13747424  0.99447282  1
  O  O253  1  0.23748863  0.63012669  0.49463843  1
  O  O254  1  0.24724137  0.62931524  0.99064236  1
  O  O255  1  0.75178469  0.13974669  0.50719735  1
  O  O256  1  0.74834293  0.13176138  0.99277164  1
  O  O257  1  0.75088573  0.63199756  0.48475470  1
  O  O258  1  0.74810533  0.62790910  0.99590322  1
  O  O259  1  0.25485872  0.37503385  0.01332451  1
  O  O260  1  0.25332654  0.37518111  0.51069038  1
  O  O261  1  0.26026176  0.85455555  -0.01047856  1
  O  O262  1  0.25910373  0.87372169  0.50503273  1
  O  O263  1  0.75249748  0.36840712  0.00535394  1
  O  O264  1  0.75551843  0.37144975  0.50885845  1
  O  O265  1  0.76346970  0.86334780  -0.00387822  1
  O  O266  1  0.75869891  0.86941971  0.50929994  1
  O  O267  1  0.12988518  0.49745602  0.24203898  1
  O  O268  1  0.13034474  0.49237755  0.74486379  1
  O  O269  1  0.11447122  1.00018581  0.23031911  1
  O  O270  1  0.13671308  0.98741117  0.75399958  1
  O  O271  1  0.62783144  0.48739182  0.25203791  1
  O  O272  1  0.63759166  0.49372627  0.75206604  1
  O  O273  1  0.62866284  0.99044464  0.24092714  1
  O  O274  1  0.62919080  0.98839066  0.74542865  1
  O  O275  1  0.38126985  0.01637083  0.26541194  1
  O  O276  1  0.36920947  0.00338052  0.76056403  1
  O  O277  1  0.36187594  0.50438355  0.25741801  1
  O  O278  1  0.36430127  0.51102143  0.74181315  1
  O  O279  1  0.87323655  0.01429361  0.24323659  1
  O  O280  1  0.86215131  -0.00931867  0.74230071  1
  O  O281  1  0.87426478  0.50673050  0.25709386  1
  O  O282  1  0.86597817  0.49785273  0.75738686  1
  O  O283  1  0.12821103  0.38180821  0.35782755  1
  O  O284  1  0.12580748  0.37697724  0.86158439  1
  O  O285  1  0.12211801  0.86785857  0.38493593  1
  O  O286  1  0.11927925  0.86592314  0.86825552  1
  O  O287  1  0.62526288  0.36440540  0.36339479  1
  O  O288  1  0.61945495  0.37163860  0.86236232  1
  O  O289  1  0.61999341  0.87417029  0.36854989  1
  O  O290  1  0.61963899  0.87308434  0.86767664  1
  O  O291  1  0.38506376  0.11922498  0.13458749  1
  O  O292  1  0.37909333  0.12923767  0.63229014  1
  O  O293  1  0.39226696  0.62275438  0.13077863  1
  O  O294  1  0.36658469  0.63699091  0.62928266  1
  O  O295  1  0.83314234  0.13446402  0.14820748  1
  O  O296  1  0.88714289  0.13314146  0.62336765  1
  O  O297  1  0.87535650  0.61853540  0.13746435  1
  O  O298  1  0.86918816  0.63790792  0.62428085  1
  O  O299  1  0.25141367  0.26343206  0.11606042  1
  O  O300  1  0.24986442  0.26047147  0.62787818  1
  O  O301  1  0.24874636  0.74641200  0.10713469  1
  O  O302  1  0.25860483  0.75721962  0.62037748  1
  O  O303  1  0.73839476  0.26233116  0.11554653  1
  O  O304  1  0.75257029  0.25932396  0.62147163  1
  O  O305  1  0.74456804  0.75075808  0.11112706  1
  O  O306  1  0.76060470  0.75925160  0.62101535  1
  O  O307  1  0.25289287  0.23759791  0.37619968  1
  O  O308  1  0.24818830  0.23992817  0.88349943  1
  O  O309  1  0.23984441  0.74102927  0.38310242  1
  O  O310  1  0.24560261  0.74056237  0.87975402  1
  O  O311  1  0.74145115  0.24966327  0.38713567  1
  O  O312  1  0.74910989  0.24520236  0.88759546  1
  O  O313  1  0.74505846  0.74712616  0.37974977  1
  O  O314  1  0.75109668  0.73979852  0.88120159  1
  O  O315  1  -0.06425145  0.12692690  0.05011153  1
  O  O316  1  0.00287764  0.12017747  0.50602439  1
  O  O317  1  0.00750154  0.61481562  -0.00078808  1
  O  O318  1  0.01193824  0.62676282  0.49494855  1
  O  O319  1  0.50445429  0.12181003  0.00524400  1
  O  O320  1  0.49302803  0.13366865  0.51468083  1
  O  O321  1  0.51018520  0.61622529  0.00221124  1
  O  O322  1  0.50127321  0.62479740  0.47610634  1
  O  O323  1  0.48229773  0.37385078  0.49990347  1
  O  O324  1  0.50479068  0.37998642  0.98723985  1
  O  O325  1  0.48708826  0.87502790  0.49678195  1
  O  O326  1  0.50665962  0.87545631  0.98681048  1
  O  O327  1  0.98576706  0.37831750  0.50324235  1
  O  O328  1  0.99255251  0.38679521  1.00689437  1
  O  O329  1  0.99414959  0.88661182  0.50122053  1
  O  O330  1  0.98851575  0.86292332  0.98526786  1
  O  O331  1  0.47615813  0.48968520  0.36395397  1
  O  O332  1  0.50189754  0.48368391  0.88284642  1
  O  O333  1  0.49554306  0.99351418  0.37636202  1
  O  O334  1  0.49406188  0.99221384  0.87978542  1
  O  O335  1  0.98784095  0.49588515  0.37847885  1
  O  O336  1  0.98778732  0.50326034  0.88068599  1
  O  O337  1  1.00142229  1.00155727  0.38707885  1
  O  O338  1  1.00354052  0.98119908  0.87344174  1
  O  O339  1  0.01647149  -0.00969727  0.10410152  1
  O  O340  1  -0.00312259  0.01346011  0.61661372  1
  O  O341  1  0.00924954  0.50402440  0.11621825  1
  O  O342  1  0.01011124  0.49988544  0.62672061  1
  O  O343  1  0.50879898  0.01058826  0.11843190  1
  O  O344  1  0.50641180  0.01153926  0.63425715  1
  O  O345  1  0.50574008  0.50562743  0.11679092  1
  O  O346  1  0.50077170  0.49327741  0.62530175  1
  O  O347  1  0.24178921  0.38006807  0.24058935  1
  O  O348  1  0.24434328  0.38176844  0.74545230  1
  O  O349  1  0.23762774  0.86318585  0.25723910  1
  O  O350  1  0.24500992  0.87947168  0.74791002  1
  O  O351  1  0.74451483  0.37054722  0.24256775  1
  O  O352  1  0.74149136  0.38166490  0.74559339  1
  O  O353  1  0.74544564  0.87806106  0.24569396  1
  O  O354  1  0.74317808  0.87900398  0.74775943  1
  O  O355  1  0.26053862  0.13305537  0.25495598  1
  O  O356  1  0.25240286  0.11682574  0.75603596  1
  O  O357  1  0.24657488  0.62081371  0.25742841  1
  O  O358  1  0.25642671  0.61791392  0.75553772  1
  O  O359  1  0.75327823  0.11935547  0.26803350  1
  O  O360  1  0.74513536  0.11570480  0.75934144  1
  O  O361  1  0.75929020  0.62730538  0.25783484  1
  O  O362  1  0.75440954  0.61749066  0.75813406  1
  O  O363  1  0.36767909  0.12124077  0.37081126  1
  O  O364  1  0.36658402  0.11607711  0.86900937  1
  O  O365  1  0.35338618  0.61284809  0.38168363  1
  O  O366  1  0.36587322  0.62765586  0.86070465  1
  O  O367  1  0.87024084  0.13306868  0.36426334  1
  O  O368  1  0.86684233  0.13250095  0.87070244  1
  O  O369  1  0.87092275  0.61974410  0.36633646  1
  O  O370  1  0.86636240  0.61468202  0.87347888  1
  O  O371  1  0.13484312  0.38713081  0.13267024  1
  O  O372  1  0.12751528  0.38020757  0.63390598  1
  O  O373  1  0.14259284  0.89002107  0.10944419  1
  O  O374  1  0.13229810  0.86767393  0.63942871  1
  O  O375  1  0.62879225  0.37871338  0.13518073  1
  O  O376  1  0.63192429  0.37034593  0.63897323  1
  O  O377  1  0.62436441  0.88092388  0.13150706  1
  O  O378  1  0.62998985  0.87989804  0.63452976  1
  O  O379  1  0.12672563  0.26466155  0.24223962  1
  O  O380  1  0.12656397  0.26470446  0.75512279  1
  O  O381  1  0.11008713  0.74399426  0.25836345  1
  O  O382  1  0.12266627  0.75368196  0.75949241  1
  O  O383  1  0.61662361  0.25231908  0.25626592  1
  O  O384  1  0.61510982  0.25702491  0.75215606  1
  O  O385  1  0.63031266  0.76520928  0.25730896  1
  O  O386  1  0.61905538  0.76064472  0.75071907  1
  O  O387  1  0.38955149  0.24245004  0.25531177  1
  O  O388  1  0.37990607  0.24359489  0.74553726  1
  O  O389  1  0.39468187  0.73368209  0.29190476  1
  O  O390  1  0.38184234  0.74192857  0.74059890  1
  O  O391  1  0.87716861  0.23884544  0.23434856  1
  O  O392  1  0.86730625  0.25880597  0.73687498  1
  O  O393  1  0.88954579  0.74161346  0.25380370  1
  O  O394  1  0.88587773  0.74776829  0.74119884  1
  O  O395  1  0.37059867  0.49186577  0.49462026  1
  O  O396  1  0.38814159  0.50672325  0.99988049  1
  O  O397  1  0.36848421  0.99510060  0.48842223  1
  O  O398  1  0.38063142  1.00391532  0.98893465  1
  O  O399  1  0.87365392  0.49368055  0.49369246  1
  O  O400  1  0.88203688  0.49523767  0.99369499  1
  O  O401  1  0.88482064  0.99095536  0.50801496  1
  O  O402  1  0.86791794  0.97998117  0.98936713  1
  O  O403  1  0.14414797  0.00954592  0.00832649  1
  O  O404  1  0.11547608  0.01434412  0.50182786  1
  O  O405  1  0.11916320  0.50106940  0.00387481  1
  O  O406  1  0.12152721  0.50787048  0.51000808  1
  O  O407  1  0.61867645  0.00309434  0.00432147  1
  O  O408  1  0.62104718  -0.00865344  0.51863915  1
  O  O409  1  0.62158199  0.50831801  0.00515905  1
  O  O410  1  0.60826885  0.51083680  0.46194827  1
  O  O411  1  0.36237602  0.38112747  0.13342316  1
  O  O412  1  0.36235026  0.36784788  0.62104409  1
  O  O413  1  0.37606100  0.86197556  0.14953036  1
  O  O414  1  0.37185972  0.86775227  0.61941422  1
  O  O415  1  0.86393010  0.38504840  0.11459671  1
  O  O416  1  0.86667850  0.36878743  0.61791883  1
  O  O417  1  0.87837011  0.87956282  0.10829083  1
  O  O418  1  0.87311576  0.86420266  0.61599674  1
  O  O419  1  0.13171928  0.12140063  0.38014899  1
  O  O420  1  0.13846023  0.12471546  0.87193258  1
  O  O421  1  0.13061222  0.62788789  0.38207781  1
  O  O422  1  0.13686567  0.63012894  0.87775340  1
  O  O423  1  0.62166087  0.13697523  0.37614282  1
  O  O424  1  0.63152677  0.12738876  0.88328178  1
  O  O425  1  0.63805950  0.64204370  0.36278361  1
  O  O426  1  0.64255277  0.62302275  0.88414818  1
