# generated using pymatgen
data_V85Zn86O256
_symmetry_space_group_name_H-M   'P 1'
_cell_length_a   16.92336929
_cell_length_b   16.92581594
_cell_length_c   16.92613363
_cell_angle_alpha   90.01220297
_cell_angle_beta   89.97481380
_cell_angle_gamma   89.92713657
_symmetry_Int_Tables_number   1
_chemical_formula_structural   V85Zn86O256
_chemical_formula_sum   'V85 Zn86 O256'
_cell_volume   4848.34825594
_cell_formula_units_Z   1
loop_
 _symmetry_equiv_pos_site_id
 _symmetry_equiv_pos_as_xyz
  1  'x, y, z'
loop_
 _atom_site_type_symbol
 _atom_site_label
 _atom_site_symmetry_multiplicity
 _atom_site_fract_x
 _atom_site_fract_y
 _atom_site_fract_z
 _atom_site_occupancy
  V  V0  1  0.62526340  0.37222464  0.25032762  1
  V  V1  1  0.81368861  0.81907053  0.56630301  1
  V  V2  1  0.87326940  0.00087528  0.87394576  1
  V  V3  1  0.64017639  0.63011740  0.49651252  1
  V  V4  1  0.00048031  0.24961440  0.25674709  1
  V  V5  1  -0.00111215  0.37822820  0.38126014  1
  V  V6  1  0.12639159  0.00768412  0.62054895  1
  V  V7  1  0.25179348  0.74942645  -0.00321260  1
  V  V8  1  0.74982947  0.24894548  0.51460752  1
  V  V9  1  0.49860968  0.00489719  0.49619315  1
  V  V10  1  0.75188893  0.12522070  0.37608598  1
  V  V11  1  0.12447802  0.37218765  0.25656957  1
  V  V12  1  -0.00374504  0.75003931  0.73830047  1
  V  V13  1  0.87136515  0.13205346  0.74631411  1
  V  V14  1  0.49902505  0.74779506  0.74624629  1
  V  V15  1  0.74317177  0.12813748  0.87479091  1
  V  V16  1  0.62803062  0.48899162  0.62328323  1
  V  V17  1  0.24837986  0.61632934  0.86375025  1
  V  V18  1  0.38340889  0.24170558  0.12612683  1
  V  V19  1  0.25414421  0.12665362  0.87088109  1
  V  V20  1  0.24960354  0.87352522  0.62040314  1
  V  V21  1  0.50347491  0.87900880  0.37465672  1
  V  V22  1  -0.00525249  0.50127579  0.00560293  1
  V  V23  1  0.62744865  0.24461757  0.37817874  1
  V  V24  1  0.36827452  0.87769641  0.48950845  1
  V  V25  1  0.12644644  0.38237512  0.75408683  1
  V  V26  1  -0.00435633  0.25491501  0.74767083  1
  V  V27  1  0.24249235  0.24919622  0.49393188  1
  V  V28  1  0.12088963  0.62490762  0.00236109  1
  V  V29  1  0.87077076  0.87694325  0.00768374  1
  V  V30  1  0.12455908  0.50029622  0.62253118  1
  V  V31  1  0.74883609  0.25552836  -0.00426335  1
  V  V32  1  0.50255287  0.74939215  0.25613470  1
  V  V33  1  0.74779648  0.49714429  0.75104066  1
  V  V34  1  0.37586949  0.87143470  -0.00219446  1
  V  V35  1  0.75499795  0.37677184  0.12307325  1
  V  V36  1  0.87614064  0.25262502  0.11984741  1
  V  V37  1  0.11895742  0.87211602  0.25220495  1
  V  V38  1  0.86702684  0.62849001  0.75019598  1
  V  V39  1  0.63643955  0.74715996  0.87028969  1
  V  V40  1  0.86974908  0.50272380  0.87913400  1
  V  V41  1  0.50044973  0.00197665  0.00541197  1
  V  V42  1  0.12537063  0.87899569  0.74792296  1
  V  V43  1  0.63233925  0.87553096  0.74216366  1
  V  V44  1  0.00254222  0.74227414  0.24223143  1
  V  V45  1  0.49722378  0.24915935  0.76379972  1
  V  V46  1  0.50081427  0.87151292  0.87341874  1
  V  V47  1  0.62999456  -0.00826206  0.12365563  1
  V  V48  1  0.74947754  0.75391899  0.00935177  1
  V  V49  1  0.87825299  0.62275638  0.24465796  1
  V  V50  1  0.62262902  0.12811494  0.00526236  1
  V  V51  1  0.75239981  -0.00548734  0.24705558  1
  V  V52  1  0.25199632  -0.00309404  0.26487117  1
  V  V53  1  0.37633077  0.24312744  0.62701943  1
  V  V54  1  0.12688799  0.12677877  -0.00128727  1
  V  V55  1  0.25213605  0.62604122  0.37959161  1
  V  V56  1  0.37710958  0.37411148  0.49891464  1
  V  V57  1  0.25864929  0.00509654  0.74731530  1
  V  V58  1  0.12671380  -0.00033853  0.12584401  1
  V  V59  1  0.12562322  0.62400639  0.49986558  1
  V  V60  1  -0.00533730  0.61996765  0.61740996  1
  V  V61  1  0.87272821  0.37315443  0.51364929  1
  V  V62  1  0.00078201  0.12728607  0.12446247  1
  V  V63  1  0.63076348  0.62523649  -0.00323741  1
  V  V64  1  0.62243091  0.36876114  0.76593139  1
  V  V65  1  0.25261929  0.87494116  0.12513132  1
  V  V66  1  0.25254955  0.37812207  0.63122632  1
  V  V67  1  0.50535923  0.62552433  0.12534083  1
  V  V68  1  0.37319681  0.74959830  0.61710966  1
  V  V69  1  0.50424742  0.12710337  0.62362099  1
  V  V70  1  0.38128403  0.11771681  0.25728422  1
  V  V71  1  -0.00437563  0.37643035  0.88244238  1
  V  V72  1  -0.00245652  0.13070658  0.62244778  1
  V  V73  1  -0.00099179  0.00037157  -0.00128843  1
  V  V74  1  0.74933671  0.50448131  0.25520308  1
  V  V75  1  0.12224541  0.75215388  0.87256339  1
  V  V76  1  0.37536304  0.62054511  0.24832678  1
  V  V77  1  0.37699713  0.00072360  0.87228203  1
  V  V78  1  0.25109914  0.37012603  0.12514006  1
  V  V79  1  0.50240303  0.50107811  0.49834621  1
  V  V80  1  0.88396256  -0.00924510  0.37756519  1
  V  V81  1  0.11817053  0.74723939  0.37644676  1
  V  V82  1  0.12537239  0.50265855  0.12675040  1
  V  V83  1  0.62910319  0.00001839  0.61846622  1
  V  V84  1  0.87341070  0.50338099  0.38121937  1
  Zn  Zn85  1  0.24628922  0.12312647  0.37610984  1
  Zn  Zn86  1  0.36761572  0.61601707  0.74113151  1
  Zn  Zn87  1  0.87489754  0.12530563  0.24901649  1
  Zn  Zn88  1  0.50090792  0.49337643  -0.01005013  1
  Zn  Zn89  1  0.63203823  0.87011712  0.24814452  1
  Zn  Zn90  1  0.25198787  0.24925668  -0.00031076  1
  Zn  Zn91  1  -0.01556225  -0.02281532  0.50853781  1
  Zn  Zn92  1  0.37705627  0.74794691  0.12260825  1
  Zn  Zn93  1  0.50094338  0.62505422  0.62040171  1
  Zn  Zn94  1  0.75193079  -0.00116535  0.74263839  1
  Zn  Zn95  1  0.25192143  0.49832001  0.25096368  1
  Zn  Zn96  1  0.64245607  0.74960417  0.37633279  1
  Zn  Zn97  1  0.87924485  0.74761801  0.12285013  1
  Zn  Zn98  1  0.37612841  0.49752205  0.37321064  1
  Zn  Zn99  1  0.38201532  0.48579714  0.86588478  1
  Zn  Zn100  1  -0.00307690  0.87430460  0.87283699  1
  Zn  Zn101  1  0.50506645  0.24216320  0.25032600  1
  Zn  Zn102  1  0.50005919  0.37134954  0.37262115  1
  Zn  Zn103  1  0.38363096  0.37423286  -0.00346781  1
  Zn  Zn104  1  0.11089920  0.13273399  0.48398923  1
  Zn  Zn105  1  0.12550854  0.25157462  0.87491027  1
  Zn  Zn106  1  0.62600501  0.49866605  0.12258715  1
  Zn  Zn107  1  0.18911576  0.18664902  0.19354021  1
  Zn  Zn108  1  0.18572939  0.19292733  0.68878359  1
  Zn  Zn109  1  0.19132585  0.68555021  0.18663080  1
  Zn  Zn110  1  0.18403114  0.69248790  0.68302675  1
  Zn  Zn111  1  0.68842826  0.18300125  0.18630279  1
  Zn  Zn112  1  0.68022712  0.18634181  0.68987385  1
  Zn  Zn113  1  0.68987228  0.68787299  0.19069555  1
  Zn  Zn114  1  0.69006082  0.68527336  0.67888876  1
  Zn  Zn115  1  0.31514382  0.31105513  0.31035165  1
  Zn  Zn116  1  0.31431047  0.31185839  0.81301646  1
  Zn  Zn117  1  0.30974939  0.80593288  0.31290649  1
  Zn  Zn118  1  0.31254338  0.81030055  0.80840827  1
  Zn  Zn119  1  0.81393615  0.31389366  0.31296562  1
  Zn  Zn120  1  0.81088166  0.31685475  0.81292217  1
  Zn  Zn121  1  0.81832590  0.81429336  0.31138789  1
  Zn  Zn122  1  0.81312702  0.81414470  0.81207133  1
  Zn  Zn123  1  0.18764056  0.44035807  0.43876774  1
  Zn  Zn124  1  0.19064028  0.43689148  0.94042784  1
  Zn  Zn125  1  0.14770781  0.91048272  0.46197101  1
  Zn  Zn126  1  0.18756502  0.93886922  0.93533977  1
  Zn  Zn127  1  0.69063796  0.43195378  0.43784887  1
  Zn  Zn128  1  0.68768368  0.43978865  0.93786863  1
  Zn  Zn129  1  0.68914005  0.93622355  0.43729041  1
  Zn  Zn130  1  0.68782713  0.93635377  0.93378854  1
  Zn  Zn131  1  0.31353015  0.06214134  0.06435823  1
  Zn  Zn132  1  0.31624485  0.06378282  0.55962344  1
  Zn  Zn133  1  0.31374359  0.55930152  0.05885718  1
  Zn  Zn134  1  0.31027871  0.56089515  0.56208532  1
  Zn  Zn135  1  0.81090151  0.06548895  0.06332883  1
  Zn  Zn136  1  0.81245261  0.06447658  0.55991205  1
  Zn  Zn137  1  0.80963098  0.56466976  0.06408279  1
  Zn  Zn138  1  0.81404203  0.55279164  0.56992059  1
  Zn  Zn139  1  0.44318755  0.43365524  0.17554612  1
  Zn  Zn140  1  0.44024743  0.43696238  0.68948453  1
  Zn  Zn141  1  0.43925584  0.93771877  0.18711553  1
  Zn  Zn142  1  0.43959841  0.93552501  0.68331943  1
  Zn  Zn143  1  0.93735007  0.43723796  0.18848945  1
  Zn  Zn144  1  0.93912661  0.44191100  0.69117803  1
  Zn  Zn145  1  0.93793914  0.93823737  0.18967647  1
  Zn  Zn146  1  0.93967919  0.94164509  0.68894813  1
  Zn  Zn147  1  0.06601080  0.06407669  0.31399882  1
  Zn  Zn148  1  0.06289240  0.06526769  0.81016621  1
  Zn  Zn149  1  0.05899275  0.55931340  0.31530744  1
  Zn  Zn150  1  0.05940073  0.56369152  0.81193826  1
  Zn  Zn151  1  0.56678622  0.06040078  0.31380648  1
  Zn  Zn152  1  0.56176111  0.06347198  0.81133545  1
  Zn  Zn153  1  0.56479915  0.56074506  0.31643099  1
  Zn  Zn154  1  0.56298132  0.56434064  0.80948337  1
  Zn  Zn155  1  0.43646851  0.18761087  0.43601204  1
  Zn  Zn156  1  0.43470408  0.18555462  0.94100607  1
  Zn  Zn157  1  0.43908254  0.68752399  0.43811605  1
  Zn  Zn158  1  0.45065634  0.65888406  0.92085746  1
  Zn  Zn159  1  0.92983399  0.19000109  0.43714189  1
  Zn  Zn160  1  0.93475337  0.18948081  0.93571546  1
  Zn  Zn161  1  0.82058098  0.68734024  0.43843792  1
  Zn  Zn162  1  0.93654953  0.68624871  0.93443421  1
  Zn  Zn163  1  0.06410389  0.31441531  0.06407227  1
  Zn  Zn164  1  0.05978143  0.31511219  0.56517533  1
  Zn  Zn165  1  0.06073326  0.81425897  0.06211329  1
  Zn  Zn166  1  -0.00368318  0.78264316  0.51925334  1
  Zn  Zn167  1  0.56552870  0.31078920  0.06303689  1
  Zn  Zn168  1  0.56474441  0.31196579  0.56287947  1
  Zn  Zn169  1  0.56182657  0.80991049  0.06261997  1
  Zn  Zn170  1  0.56295914  0.81357778  0.55899385  1
  O  O171  1  0.12186433  0.11980241  0.11871351  1
  O  O172  1  0.11313095  0.12278762  0.63079190  1
  O  O173  1  0.13123659  0.61176576  0.11748078  1
  O  O174  1  0.12234782  0.61873128  0.61905191  1
  O  O175  1  0.62866418  0.11337616  0.11175446  1
  O  O176  1  0.61166673  0.11813343  0.62546508  1
  O  O177  1  0.62124538  0.62568614  0.11903812  1
  O  O178  1  0.62573238  0.61321697  0.61233700  1
  O  O179  1  0.37759889  0.37590209  0.38418482  1
  O  O180  1  0.37037648  0.37343716  0.88327415  1
  O  O181  1  0.37847880  0.86713345  0.38534916  1
  O  O182  1  0.38015216  0.87924002  0.87816915  1
  O  O183  1  0.88171903  0.38174348  0.38090143  1
  O  O184  1  0.88440731  0.38926109  0.87112936  1
  O  O185  1  0.88074067  0.89211121  0.37014000  1
  O  O186  1  0.87631332  0.88608866  0.88169578  1
  O  O187  1  0.24722983  -0.00529225  0.36374078  1
  O  O188  1  0.25541637  0.00477804  0.86609061  1
  O  O189  1  0.25295074  0.51022219  0.37165763  1
  O  O190  1  0.24645515  0.51526378  0.87678434  1
  O  O191  1  0.75630504  0.00735418  0.36985026  1
  O  O192  1  0.75992961  0.00937613  0.87407881  1
  O  O193  1  0.75956582  0.49014969  0.36528184  1
  O  O194  1  0.75774233  0.49702417  0.86530773  1
  O  O195  1  0.24223019  0.49100666  0.12793340  1
  O  O196  1  0.23839607  0.48997303  0.62156565  1
  O  O197  1  0.24493193  0.98847408  0.12777389  1
  O  O198  1  0.24831022  0.99988223  0.63223616  1
  O  O199  1  0.74922035  0.49098601  0.13201463  1
  O  O200  1  0.74279228  0.49841848  0.64184138  1
  O  O201  1  0.74314198  1.00445322  0.13310450  1
  O  O202  1  0.73329603  1.01091492  0.62399941  1
  O  O203  1  0.00548479  0.36931648  0.25728036  1
  O  O204  1  0.00446137  0.37160292  0.76001544  1
  O  O205  1  0.01421326  0.86870750  0.24439965  1
  O  O206  1  0.00536671  0.86772824  0.75072192  1
  O  O207  1  0.51531288  0.37317294  0.24857743  1
  O  O208  1  0.51217437  0.36073537  0.74376330  1
  O  O209  1  0.49859637  0.86827545  0.25891963  1
  O  O210  1  0.50790437  0.86550264  0.75261971  1
  O  O211  1  0.48534077  0.11993456  0.25433617  1
  O  O212  1  0.50658668  0.14068862  0.74238860  1
  O  O213  1  0.49685907  0.63154673  0.24873609  1
  O  O214  1  0.50309414  0.64003423  0.73994469  1
  O  O215  1  1.00094664  0.13487079  0.24191990  1
  O  O216  1  0.99186890  0.13518013  0.74574636  1
  O  O217  1  0.99204165  0.62966407  0.25225450  1
  O  O218  1  0.99303617  0.63149903  0.74325937  1
  O  O219  1  0.37204690  0.24684619  0.01576606  1
  O  O220  1  0.36994248  0.25928627  0.50709046  1
  O  O221  1  0.36682233  0.75631780  -0.00078366  1
  O  O222  1  0.37857620  0.75955439  0.50974346  1
  O  O223  1  0.86742930  0.24690485  0.01182600  1
  O  O224  1  0.86218155  0.26173590  0.49933190  1
  O  O225  1  0.86855236  0.75714519  -0.00219459  1
  O  O226  1  0.88191752  0.75909229  0.50717835  1
  O  O227  1  0.13966893  0.24952348  0.51031208  1
  O  O228  1  0.12460158  0.23684378  0.99964393  1
  O  O229  1  0.11268473  0.73282408  0.48879774  1
  O  O230  1  0.12732699  0.74423895  0.99251367  1
  O  O231  1  0.64043999  0.25799568  0.49201774  1
  O  O232  1  0.63489054  0.23989670  1.00581058  1
  O  O233  1  0.62330985  0.73319366  0.50079741  1
  O  O234  1  0.63384602  0.74995871  0.99170280  1
  O  O235  1  0.48634306  0.24631425  0.13078549  1
  O  O236  1  0.49549589  0.24287696  0.62655369  1
  O  O237  1  0.50051778  0.74387999  0.13895815  1
  O  O238  1  0.49145841  0.75164510  0.62871874  1
  O  O239  1  0.99304160  0.24956615  0.13118550  1
  O  O240  1  1.00138767  0.24687104  0.63970183  1
  O  O241  1  1.00117862  0.75002909  0.13571481  1
  O  O242  1  1.00306114  0.73962023  0.63484819  1
  O  O243  1  -0.00904413  0.25838899  0.36234369  1
  O  O244  1  -0.00011343  0.25912199  0.86824478  1
  O  O245  1  0.01633267  0.74919763  0.35728699  1
  O  O246  1  0.01094734  0.74886003  0.86662426  1
  O  O247  1  0.51164292  0.24995101  0.37325078  1
  O  O248  1  0.49533019  0.24384151  0.86229784  1
  O  O249  1  0.50210456  0.75659566  0.36659810  1
  O  O250  1  0.50806057  0.75210223  0.86392897  1
  O  O251  1  0.25609170  0.14242527  0.49958007  1
  O  O252  1  0.24173128  0.12231028  0.99279598  1
  O  O253  1  0.24022017  0.62277144  0.49173220  1
  O  O254  1  0.23821254  0.63123929  0.99164286  1
  O  O255  1  0.75608878  0.14072411  0.49146646  1
  O  O256  1  0.74406845  0.13273930  0.99334508  1
  O  O257  1  0.74438718  0.62046510  0.50475276  1
  O  O258  1  0.73889993  0.63504055  1.00287371  1
  O  O259  1  0.24654463  0.36986500  0.01590685  1
  O  O260  1  0.25530026  0.36751623  0.50961185  1
  O  O261  1  0.25353367  0.87088126  0.00537879  1
  O  O262  1  0.25417308  0.88338349  0.51108260  1
  O  O263  1  0.74403602  0.36626680  0.00814704  1
  O  O264  1  0.76187399  0.36297712  0.49999460  1
  O  O265  1  0.75905157  0.86765047  -0.00562219  1
  O  O266  1  0.75108197  0.86992049  0.50536345  1
  O  O267  1  0.12284024  0.49032908  0.24212078  1
  O  O268  1  0.12131687  0.48841792  0.74571046  1
  O  O269  1  0.13166153  0.98978782  0.24460989  1
  O  O270  1  0.13368508  0.99916472  0.74288890  1
  O  O271  1  0.63351306  0.49200084  0.25086370  1
  O  O272  1  0.62766011  0.49306016  0.74524515  1
  O  O273  1  0.63286302  0.99878512  0.24049803  1
  O  O274  1  0.62347044  0.99190463  0.74068199  1
  O  O275  1  0.36770237  0.01062893  0.24296058  1
  O  O276  1  0.36600806  -0.00443082  0.75304408  1
  O  O277  1  0.37946575  0.51012025  0.24991447  1
  O  O278  1  0.37845992  0.50394672  0.75149774  1
  O  O279  1  0.87043607  0.00369669  0.25778712  1
  O  O280  1  0.87278420  0.00952889  0.75860014  1
  O  O281  1  0.86991321  0.50391947  0.25632988  1
  O  O282  1  0.86616472  0.50458213  0.75724298  1
  O  O283  1  0.11549360  0.38083630  0.36798076  1
  O  O284  1  0.11863987  0.37578245  0.86976026  1
  O  O285  1  0.14137606  0.85874865  0.35956605  1
  O  O286  1  0.12235645  0.86900502  0.86818360  1
  O  O287  1  0.62761050  0.36258558  0.36683075  1
  O  O288  1  0.61754928  0.38210369  0.86413382  1
  O  O289  1  0.61538364  0.87092014  0.37311321  1
  O  O290  1  0.61813472  0.86826093  0.86622279  1
  O  O291  1  0.36896439  0.13495290  0.13619139  1
  O  O292  1  0.38364005  0.13691528  0.62326224  1
  O  O293  1  0.38265527  0.62747018  0.13158137  1
  O  O294  1  0.37390384  0.63571669  0.62258152  1
  O  O295  1  0.88297301  0.13360904  0.12587744  1
  O  O296  1  0.88114490  0.11906793  0.63893845  1
  O  O297  1  0.87332502  0.62477077  0.13965883  1
  O  O298  1  0.88431444  0.61394752  0.63709942  1
  O  O299  1  0.25681503  0.25495652  0.12637899  1
  O  O300  1  0.25881007  0.25609830  0.61971523  1
  O  O301  1  0.25058354  0.76076257  0.11832005  1
  O  O302  1  0.25717517  0.76440980  0.62982830  1
  O  O303  1  0.75793917  0.25412947  0.11838936  1
  O  O304  1  0.74494664  0.24379255  0.61307539  1
  O  O305  1  0.75330556  0.75054698  0.11315114  1
  O  O306  1  0.76038838  0.75754777  0.62709703  1
  O  O307  1  0.25255660  0.25663759  0.39254547  1
  O  O308  1  0.24610948  0.23924523  0.87704382  1
  O  O309  1  0.23795446  0.73269158  0.36712263  1
  O  O310  1  0.23546573  0.74880695  0.87621966  1
  O  O311  1  0.74615255  0.24293879  0.37794646  1
  O  O312  1  0.75633909  0.24405739  0.88760453  1
  O  O313  1  0.75483543  0.74523779  0.36933376  1
  O  O314  1  0.73984351  0.75476957  0.88214222  1
  O  O315  1  0.00618190  0.12064069  0.00322731  1
  O  O316  1  -0.00413074  0.13490959  0.51467837  1
  O  O317  1  0.01277871  0.61774228  -0.00515256  1
  O  O318  1  0.00450703  0.62594057  0.51619691  1
  O  O319  1  0.51049234  0.11453734  -0.00740214  1
  O  O320  1  0.49307337  0.11615641  0.50738121  1
  O  O321  1  0.51657188  0.64049199  0.01410360  1
  O  O322  1  0.50723742  0.61521133  0.50094269  1
  O  O323  1  0.49250517  0.38007434  0.49987756  1
  O  O324  1  0.49486872  0.38634550  1.02810944  1
  O  O325  1  0.49121483  0.87967382  0.49046184  1
  O  O326  1  0.49589518  0.87944097  0.99291697  1
  O  O327  1  0.98622422  0.36448800  0.49202148  1
  O  O328  1  1.00501460  0.38285312  0.98958732  1
  O  O329  1  1.04050109  0.88208614  0.49601260  1
  O  O330  1  0.99396284  0.88334681  0.99479530  1
  O  O331  1  0.50031790  0.49410924  0.38725087  1
  O  O332  1  0.48467602  0.54541730  0.88674785  1
  O  O333  1  0.50360962  0.99005077  0.38162239  1
  O  O334  1  0.49586346  0.99366403  0.88146750  1
  O  O335  1  0.98984889  0.48623381  0.37358598  1
  O  O336  1  0.99504282  0.49493709  0.88501006  1
  O  O337  1  0.98609209  1.00881833  0.37669308  1
  O  O338  1  0.98812921  1.00399208  0.87925009  1
  O  O339  1  0.00690561  0.00609234  0.11963101  1
  O  O340  1  0.00860313  0.01156281  0.62374889  1
  O  O341  1  0.00676943  0.49202584  0.11230918  1
  O  O342  1  0.01438951  0.50654289  0.63188799  1
  O  O343  1  0.50630165  -0.00356266  0.11093304  1
  O  O344  1  0.50465744  0.00849037  0.61900430  1
  O  O345  1  0.50600184  0.51867651  0.12938172  1
  O  O346  1  0.50905165  0.50004224  0.61321914  1
  O  O347  1  0.24164482  0.37511569  0.24418263  1
  O  O348  1  0.24057411  0.36618844  0.73809775  1
  O  O349  1  0.24806433  0.87840244  0.24093117  1
  O  O350  1  0.24694608  0.88515625  0.74298063  1
  O  O351  1  0.74415545  0.38128112  0.24380864  1
  O  O352  1  0.73343447  0.37999859  0.75457385  1
  O  O353  1  0.75085969  0.88979403  0.25184822  1
  O  O354  1  0.73632811  0.87948759  0.75554276  1
  O  O355  1  0.25774176  0.11236673  0.25014523  1
  O  O356  1  0.24508290  0.11772991  0.75836952  1
  O  O357  1  0.26029087  0.62090481  0.25433173  1
  O  O358  1  0.24162801  0.62853621  0.76074507  1
  O  O359  1  0.75182612  0.11481798  0.25725218  1
  O  O360  1  0.75433544  0.12650440  0.75776478  1
  O  O361  1  0.75636006  0.61043742  0.24665949  1
  O  O362  1  0.76012147  0.61815441  0.74696710  1
  O  O363  1  0.36725244  0.12861292  0.36065078  1
  O  O364  1  0.36224012  0.11657425  0.88016184  1
  O  O365  1  0.36868896  0.62349976  0.36925464  1
  O  O366  1  0.35017612  0.64076184  0.86672558  1
  O  O367  1  0.86392096  0.12197216  0.36989840  1
  O  O368  1  0.86568055  0.12068143  0.86807209  1
  O  O369  1  0.87529119  0.60843438  0.36826924  1
  O  O370  1  0.88098626  0.61175234  0.86464881  1
  O  O371  1  0.13046845  0.38332007  0.13229612  1
  O  O372  1  0.12997631  0.38216064  0.63113390  1
  O  O373  1  0.13338376  0.87892055  0.13061461  1
  O  O374  1  0.13797024  0.89045255  0.63392373  1
  O  O375  1  0.63942379  0.37317273  0.13464788  1
  O  O376  1  0.62328998  0.38572551  0.63219761  1
  O  O377  1  0.62172219  0.88726298  0.12543195  1
  O  O378  1  0.61647407  0.88546253  0.63208174  1
  O  O379  1  0.11512248  0.26376445  0.24295617  1
  O  O380  1  0.11510901  0.26336336  0.75282067  1
  O  O381  1  0.12190430  0.75311417  0.24997141  1
  O  O382  1  0.11686664  0.75761217  0.75464034  1
  O  O383  1  0.62667634  0.25426825  0.25589411  1
  O  O384  1  0.61682644  0.26117266  0.75189128  1
  O  O385  1  0.61766503  0.75124734  0.25409115  1
  O  O386  1  0.62223072  0.75526631  0.75202152  1
  O  O387  1  0.37601566  0.23653471  0.24380942  1
  O  O388  1  0.38970998  0.25485238  0.74053921  1
  O  O389  1  0.38284814  0.73744650  0.24904400  1
  O  O390  1  0.38311137  0.75088955  0.73685422  1
  O  O391  1  0.88203881  0.25011502  0.23838323  1
  O  O392  1  0.88132465  0.24362099  0.75600029  1
  O  O393  1  0.88579136  0.74147447  0.24725961  1
  O  O394  1  0.88437811  0.74060635  0.75979371  1
  O  O395  1  0.38303081  0.48947037  0.50142434  1
  O  O396  1  0.37777612  0.49675380  0.99302748  1
  O  O397  1  0.38652829  0.98990772  0.50390456  1
  O  O398  1  0.38283644  0.99381316  0.99578757  1
  O  O399  1  0.86703946  0.48415313  0.49327234  1
  O  O400  1  0.88306913  0.50885075  0.99353974  1
  O  O401  1  0.87477247  1.00464693  0.48452256  1
  O  O402  1  0.87738654  0.99594628  0.99419947  1
  O  O403  1  0.12044490  0.00911892  0.00358002  1
  O  O404  1  0.13448156  0.01653211  0.51657193  1
  O  O405  1  0.11900201  0.50665773  0.00691267  1
  O  O406  1  0.12414577  0.51037562  0.50847224  1
  O  O407  1  0.62039223  0.00365276  0.00412473  1
  O  O408  1  0.61045150  -0.00641045  0.50634054  1
  O  O409  1  0.62342247  0.51193169  0.00115023  1
  O  O410  1  0.62334730  0.50260933  0.50521727  1
  O  O411  1  0.36526935  0.35869027  0.13343580  1
  O  O412  1  0.36854640  0.36714992  0.61889177  1
  O  O413  1  0.36830778  0.87274022  0.11835990  1
  O  O414  1  0.36840584  0.87074540  0.61456379  1
  O  O415  1  0.86364458  0.36845209  0.12863786  1
  O  O416  1  0.88112765  0.38052994  0.61241558  1
  O  O417  1  0.88059343  0.87419899  0.11111277  1
  O  O418  1  0.87191049  0.88354452  0.62028694  1
  O  O419  1  0.13249054  0.12918329  0.37362221  1
  O  O420  1  0.13330752  0.12419567  0.88267647  1
  O  O421  1  0.12991705  0.62495297  0.38117811  1
  O  O422  1  0.13103490  0.63187791  0.87980138  1
  O  O423  1  0.63661220  0.13479549  0.37150888  1
  O  O424  1  0.63803263  0.11751879  0.88363719  1
  O  O425  1  0.62563007  0.62260432  0.39343944  1
  O  O426  1  0.62461066  0.63759365  0.88236992  1
