# generated using pymatgen
data_V85Zn86O256
_symmetry_space_group_name_H-M   'P 1'
_cell_length_a   16.91979023
_cell_length_b   16.91682029
_cell_length_c   16.92055137
_cell_angle_alpha   89.95552883
_cell_angle_beta   90.01888363
_cell_angle_gamma   90.04121337
_symmetry_Int_Tables_number   1
_chemical_formula_structural   V85Zn86O256
_chemical_formula_sum   'V85 Zn86 O256'
_cell_volume   4843.15038026
_cell_formula_units_Z   1
loop_
 _symmetry_equiv_pos_site_id
 _symmetry_equiv_pos_as_xyz
  1  'x, y, z'
loop_
 _atom_site_type_symbol
 _atom_site_label
 _atom_site_symmetry_multiplicity
 _atom_site_fract_x
 _atom_site_fract_y
 _atom_site_fract_z
 _atom_site_occupancy
  V  V0  1  0.87417197  0.12687312  0.25144825  1
  V  V1  1  0.37080365  -0.00003992  0.37983276  1
  V  V2  1  0.50007869  0.11429728  0.12595874  1
  V  V3  1  0.00785597  0.74800876  0.76064120  1
  V  V4  1  0.12810460  0.37550765  0.25091258  1
  V  V5  1  0.50053079  0.38192938  0.38227654  1
  V  V6  1  0.87973917  -0.00425440  0.37734493  1
  V  V7  1  0.62055848  0.62423427  -0.00385294  1
  V  V8  1  0.00148225  0.25042934  0.25317543  1
  V  V9  1  0.37550796  0.11364262  0.74596249  1
  V  V10  1  0.62370366  0.00128189  0.62597432  1
  V  V11  1  0.24384034  -0.00185586  0.25381052  1
  V  V12  1  -0.00544090  0.62357472  0.13544382  1
  V  V13  1  0.12454880  0.76162892  0.38087255  1
  V  V14  1  0.24777262  0.86458854  0.63363683  1
  V  V15  1  0.37389262  0.24497752  0.61954789  1
  V  V16  1  0.12621264  0.50261862  0.12348902  1
  V  V17  1  -0.00016239  0.12520716  0.12479465  1
  V  V18  1  0.62381786  0.25120596  0.37695560  1
  V  V19  1  0.37657062  0.25042756  0.12559942  1
  V  V20  1  0.49849981  0.24535317  0.74705925  1
  V  V21  1  0.74537598  -0.00120188  0.25145548  1
  V  V22  1  0.74945818  0.12513096  0.37716649  1
  V  V23  1  0.87769442  0.11758965  0.75186481  1
  V  V24  1  0.87503661  0.24950678  0.62477684  1
  V  V25  1  0.62510729  0.11957184  0.00103948  1
  V  V26  1  0.87938885  0.86882341  0.49875702  1
  V  V27  1  0.74940601  0.25086920  0.49982854  1
  V  V28  1  0.49626404  0.74989358  0.74106700  1
  V  V29  1  0.24315511  0.63092302  0.39281749  1
  V  V30  1  0.37063945  0.85843681  0.50767671  1
  V  V31  1  0.74138566  0.37589010  0.62851080  1
  V  V32  1  0.75370513  0.51148786  0.24948658  1
  V  V33  1  0.00090282  0.49797794  -0.00559554  1
  V  V34  1  0.75084062  0.87125252  0.62044095  1
  V  V35  1  0.00097014  0.37566759  0.37553162  1
  V  V36  1  0.37178058  0.37843931  0.50290618  1
  V  V37  1  0.87353328  0.37690031  0.49801579  1
  V  V38  1  0.14037826  0.24457259  0.38197180  1
  V  V39  1  0.74926498  0.87329236  0.12571430  1
  V  V40  1  0.00750923  0.50651663  0.49878972  1
  V  V41  1  0.74032219  0.50000083  0.74814741  1
  V  V42  1  0.00231295  0.88214152  0.87530799  1
  V  V43  1  0.25355965  0.51583499  0.24873113  1
  V  V44  1  0.00885741  0.62889814  0.62184413  1
  V  V45  1  0.50014825  0.25084765  0.25372303  1
  V  V46  1  0.87542365  0.50953545  0.37196982  1
  V  V47  1  0.00522753  0.12429788  0.62257310  1
  V  V48  1  0.24311632  0.36992869  0.62613472  1
  V  V49  1  0.87501363  0.74767463  0.62563891  1
  V  V50  1  0.74787093  0.63989162  0.38300058  1
  V  V51  1  0.12218442  0.26130855  0.86958352  1
  V  V52  1  0.62469092  0.24962769  0.87090734  1
  V  V53  1  0.87263452  0.88051220  -0.00584175  1
  V  V54  1  0.49952454  0.00337288  0.50326086  1
  V  V55  1  0.24903073  0.76074217  -0.00754208  1
  V  V56  1  0.75490280  0.11859672  0.87537511  1
  V  V57  1  0.12336402  0.12330465  -0.00155592  1
  V  V58  1  0.37682471  0.50790250  0.37518782  1
  V  V59  1  0.24165445  0.62904665  0.87445327  1
  V  V60  1  0.62445619  0.87238530  0.75098276  1
  V  V61  1  0.25153274  0.37692633  0.12515619  1
  V  V62  1  0.50291769  0.37108588  0.87034327  1
  V  V63  1  0.37271067  0.62821975  0.74180515  1
  V  V64  1  0.37573641  0.37192757  -0.00288028  1
  V  V65  1  0.24819187  0.24860481  -0.00195133  1
  V  V66  1  0.49969634  0.74088748  0.25323455  1
  V  V67  1  0.24046466  0.49459120  0.74990598  1
  V  V68  1  0.62486022  0.37795900  0.25059999  1
  V  V69  1  0.62215894  0.50066150  0.12324229  1
  V  V70  1  0.37323157  0.74677207  0.12462716  1
  V  V71  1  0.61853827  0.63311713  0.50196148  1
  V  V72  1  0.24651968  0.11532494  0.86527657  1
  V  V73  1  0.37427699  0.50193039  0.87354314  1
  V  V74  1  0.00300988  0.26304648  0.75008656  1
  V  V75  1  0.50461496  0.87178046  0.37492912  1
  V  V76  1  0.49684723  0.87878751  0.88919418  1
  V  V77  1  0.75327800  0.37601316  0.12225570  1
  V  V78  1  0.36963804  0.12452415  0.25689439  1
  V  V79  1  0.87685719  0.49343747  0.87016739  1
  V  V80  1  0.00514228  0.77085665  0.25012154  1
  V  V81  1  0.62203443  0.12365801  0.50495741  1
  V  V82  1  0.24948512  0.87618622  0.12855027  1
  V  V83  1  0.00723507  -0.00340951  0.49988036  1
  V  V84  1  0.75183729  0.74708172  -0.00251116  1
  Zn  Zn85  1  0.12162259  0.63164604  -0.00244951  1
  Zn  Zn86  1  0.61307574  0.49732977  0.61744707  1
  Zn  Zn87  1  0.75334161  0.25148342  -0.00192803  1
  Zn  Zn88  1  0.87431829  0.62456621  0.75081170  1
  Zn  Zn89  1  0.88180911  0.37208730  -0.00437451  1
  Zn  Zn90  1  0.49265016  0.61989210  0.61693778  1
  Zn  Zn91  1  0.12457144  0.49883406  0.62395072  1
  Zn  Zn92  1  0.49137123  0.62073774  0.12572094  1
  Zn  Zn93  1  0.62642394  0.86764143  0.25545008  1
  Zn  Zn94  1  0.87491631  0.25203212  0.12292048  1
  Zn  Zn95  1  0.62265017  0.74832650  0.87451333  1
  Zn  Zn96  1  0.75611782  -0.00525758  0.75329664  1
  Zn  Zn97  1  0.12077424  -0.00590098  0.12975104  1
  Zn  Zn98  1  0.75044610  0.62377257  0.87208184  1
  Zn  Zn99  1  0.13828564  0.00334239  0.64044251  1
  Zn  Zn100  1  0.14331848  0.12412935  0.50072525  1
  Zn  Zn101  1  0.37463686  -0.00634107  0.89103470  1
  Zn  Zn102  1  0.49809510  0.50004798  -0.00166193  1
  Zn  Zn103  1  0.13435597  0.87743280  0.76137406  1
  Zn  Zn104  1  0.62047808  -0.00466734  0.12360699  1
  Zn  Zn105  1  0.87457159  0.74526306  0.12987297  1
  Zn  Zn106  1  -0.00729381  0.00383580  -0.00167291  1
  Zn  Zn107  1  0.18738299  0.18630764  0.18839377  1
  Zn  Zn108  1  0.18807467  0.18748017  0.68714222  1
  Zn  Zn109  1  0.18134335  0.69246096  0.18562918  1
  Zn  Zn110  1  0.18871020  0.69160399  0.68419351  1
  Zn  Zn111  1  0.68685691  0.18822027  0.18708585  1
  Zn  Zn112  1  0.68817470  0.18609719  0.68987294  1
  Zn  Zn113  1  0.68382068  0.68688055  0.18571202  1
  Zn  Zn114  1  0.68788483  0.68714794  0.68367583  1
  Zn  Zn115  1  0.31540534  0.32148680  0.30927770  1
  Zn  Zn116  1  0.31191776  0.30739105  0.81005389  1
  Zn  Zn117  1  0.31398778  0.81086693  0.31359789  1
  Zn  Zn118  1  0.32011596  0.81364888  0.81432825  1
  Zn  Zn119  1  0.81222326  0.31719457  0.30986100  1
  Zn  Zn120  1  0.81291720  0.31083837  0.81012184  1
  Zn  Zn121  1  0.82279758  0.81292974  0.30802712  1
  Zn  Zn122  1  0.81538241  0.81062124  0.81174129  1
  Zn  Zn123  1  0.19106476  0.43696812  0.43689679  1
  Zn  Zn124  1  0.18729853  0.44027733  0.93838145  1
  Zn  Zn125  1  0.19285240  0.93519060  0.44318159  1
  Zn  Zn126  1  0.18270688  0.93829559  0.93984403  1
  Zn  Zn127  1  0.68726003  0.44489210  0.43985248  1
  Zn  Zn128  1  0.68725809  0.43692788  0.93484569  1
  Zn  Zn129  1  0.68981632  0.93222664  0.43912341  1
  Zn  Zn130  1  0.68411333  0.93802186  0.93684909  1
  Zn  Zn131  1  0.31143761  0.05993712  0.06388808  1
  Zn  Zn132  1  0.31315758  0.05367792  0.56831598  1
  Zn  Zn133  1  0.31171921  0.56756073  0.05801034  1
  Zn  Zn134  1  0.31270637  0.55775522  0.56232321  1
  Zn  Zn135  1  0.81071234  0.06322314  0.06387120  1
  Zn  Zn136  1  0.81305881  0.05955207  0.56448470  1
  Zn  Zn137  1  0.81464989  0.56142265  0.05829709  1
  Zn  Zn138  1  0.81271603  0.56437041  0.56081982  1
  Zn  Zn139  1  0.43673908  0.43963857  0.19058644  1
  Zn  Zn140  1  0.43637752  0.43683432  0.68932115  1
  Zn  Zn141  1  0.43049692  0.93057437  0.18950284  1
  Zn  Zn142  1  0.43786796  0.93355279  0.68589681  1
  Zn  Zn143  1  0.93760107  0.44026963  0.18791930  1
  Zn  Zn144  1  0.93174384  0.44087110  0.68307783  1
  Zn  Zn145  1  0.93123835  0.93986917  0.18348470  1
  Zn  Zn146  1  0.94529621  0.93671065  0.68685536  1
  Zn  Zn147  1  0.06251237  0.06315736  0.31533208  1
  Zn  Zn148  1  0.06054973  0.06231892  0.81159946  1
  Zn  Zn149  1  0.06779914  0.56545487  0.31314945  1
  Zn  Zn150  1  0.06060436  0.56214677  0.81111627  1
  Zn  Zn151  1  0.55970356  0.06149387  0.31657386  1
  Zn  Zn152  1  0.56152065  0.06065990  0.81240369  1
  Zn  Zn153  1  0.56668166  0.56641146  0.31633293  1
  Zn  Zn154  1  0.56032543  0.56136937  0.80824865  1
  Zn  Zn155  1  0.31953886  0.18788249  0.43897365  1
  Zn  Zn156  1  0.42392658  0.15583497  0.95092001  1
  Zn  Zn157  1  0.43632526  0.68371726  0.43169978  1
  Zn  Zn158  1  0.43522904  0.69220734  0.93473032  1
  Zn  Zn159  1  0.94062854  0.18682737  0.43795576  1
  Zn  Zn160  1  0.93725612  0.19285702  0.93515552  1
  Zn  Zn161  1  0.94367544  0.69025290  0.43283714  1
  Zn  Zn162  1  0.93485307  0.68334573  0.93894941  1
  Zn  Zn163  1  0.06276127  0.31224073  0.06220000  1
  Zn  Zn164  1  0.06181168  0.31266361  0.56024809  1
  Zn  Zn165  1  0.06502418  0.81273688  0.06141991  1
  Zn  Zn166  1  0.06593331  0.81218304  0.56333318  1
  Zn  Zn167  1  0.56378213  0.30802064  0.05786431  1
  Zn  Zn168  1  0.55784737  0.31092217  0.56270994  1
  Zn  Zn169  1  0.56460224  0.80821246  0.06713129  1
  Zn  Zn170  1  0.56359285  0.80789940  0.55838398  1
  O  O171  1  0.11682889  0.12523014  0.11737671  1
  O  O172  1  0.11891414  0.12265592  0.62035196  1
  O  O173  1  0.11499293  0.61817253  0.12280287  1
  O  O174  1  0.11260577  0.62290149  0.62735370  1
  O  O175  1  0.61886281  0.12243604  0.12091651  1
  O  O176  1  0.63167966  0.11374610  0.61794698  1
  O  O177  1  0.62301203  0.61295478  0.11591200  1
  O  O178  1  0.62499765  0.62390877  0.61204474  1
  O  O179  1  0.38146167  0.38187054  0.38293367  1
  O  O180  1  0.37767537  0.38024831  0.87955114  1
  O  O181  1  0.38330221  0.87957535  0.38486317  1
  O  O182  1  0.39029059  0.87807365  0.87800292  1
  O  O183  1  0.87957986  0.38536683  0.37942601  1
  O  O184  1  0.86982001  0.38740224  0.87579346  1
  O  O185  1  0.86991569  0.88468135  0.38558596  1
  O  O186  1  0.88357777  0.87091152  0.88436993  1
  O  O187  1  0.26374141  -0.00651377  0.36995635  1
  O  O188  1  0.25294822  0.01218193  0.88331363  1
  O  O189  1  0.25346828  0.51128614  0.36868053  1
  O  O190  1  0.25526728  0.50700067  0.86963585  1
  O  O191  1  0.75846671  0.00388508  0.37160189  1
  O  O192  1  0.74523034  0.01369519  0.87196312  1
  O  O193  1  0.75847433  0.50726726  0.36683766  1
  O  O194  1  0.75490752  0.49879099  0.86437020  1
  O  O195  1  0.24792694  0.49770849  0.12990264  1
  O  O196  1  0.24815519  0.49120547  0.63297550  1
  O  O197  1  0.25155176  0.99366707  0.13412547  1
  O  O198  1  0.24936301  0.97593684  0.61816232  1
  O  O199  1  0.74431357  0.49709806  0.13135549  1
  O  O200  1  0.75341484  0.49146522  0.63185938  1
  O  O201  1  0.74915540  0.99295375  0.13600228  1
  O  O202  1  0.74074438  0.99101581  0.62749270  1
  O  O203  1  0.00729683  0.37150888  0.25580785  1
  O  O204  1  -0.00438792  0.36189149  0.73784673  1
  O  O205  1  0.00411633  0.86980957  0.24105946  1
  O  O206  1  -0.00450275  0.86680740  0.76458775  1
  O  O207  1  0.50532610  0.37011970  0.25762062  1
  O  O208  1  0.49038229  0.36273632  0.76363149  1
  O  O209  1  0.50075187  0.86745451  0.25853915  1
  O  O210  1  0.50746868  0.86698638  0.75218519  1
  O  O211  1  0.49535466  0.13347439  0.24667624  1
  O  O212  1  0.48686309  0.13244426  0.75610858  1
  O  O213  1  0.50049801  0.63668355  0.24895919  1
  O  O214  1  0.48921937  0.63383552  0.75456020  1
  O  O215  1  0.99525124  0.12994728  0.24470188  1
  O  O216  1  0.99447947  0.13146524  0.73826842  1
  O  O217  1  1.00149788  0.62188191  0.23685352  1
  O  O218  1  0.99768188  0.63285197  0.74313066  1
  O  O219  1  0.36788695  0.25052951  0.00608258  1
  O  O220  1  0.37922706  0.25771597  0.51280465  1
  O  O221  1  0.36233679  0.74710536  0.01143096  1
  O  O222  1  0.38316605  0.76081629  0.49901356  1
  O  O223  1  0.87194592  0.25590358  0.00344857  1
  O  O224  1  0.86980624  0.25554430  0.50367764  1
  O  O225  1  0.86621020  0.75683828  0.00473010  1
  O  O226  1  0.88540432  0.76242107  0.50590604  1
  O  O227  1  0.12400033  0.25029559  0.48414344  1
  O  O228  1  0.12672470  0.24159374  0.99327835  1
  O  O229  1  0.11159590  0.74829001  0.48002670  1
  O  O230  1  0.14454559  0.74810916  1.00548095  1
  O  O231  1  0.62758688  0.24395685  0.49528011  1
  O  O232  1  0.63103713  0.24225980  0.98816051  1
  O  O233  1  0.63129749  0.73516295  0.50139945  1
  O  O234  1  0.63274574  0.73988617  1.00095999  1
  O  O235  1  0.49781877  0.24850380  0.13855741  1
  O  O236  1  0.49264418  0.25474601  0.63854318  1
  O  O237  1  0.48812487  0.74890266  0.13103262  1
  O  O238  1  0.50381870  0.74463851  0.63745224  1
  O  O239  1  1.00141443  0.24079537  0.13409694  1
  O  O240  1  0.99628269  0.24251888  0.62712339  1
  O  O241  1  1.00413854  0.74028096  0.13412748  1
  O  O242  1  0.99343756  0.74580284  0.63155984  1
  O  O243  1  0.00654828  0.25722510  0.36986278  1
  O  O244  1  0.00929779  0.24753144  0.86261163  1
  O  O245  1  0.01074442  0.74834943  0.35900351  1
  O  O246  1  -0.00643692  0.75600836  0.86780756  1
  O  O247  1  0.50659033  0.26197922  0.36238934  1
  O  O248  1  0.50581186  0.25381124  0.86773778  1
  O  O249  1  0.49321704  0.75529201  0.36021981  1
  O  O250  1  0.50201312  0.76135248  0.86643824  1
  O  O251  1  0.25593361  0.12178903  0.50113825  1
  O  O252  1  0.23845097  0.13247943  0.99538380  1
  O  O253  1  0.24715172  0.62256613  0.49119333  1
  O  O254  1  0.24796190  0.63547964  0.98978463  1
  O  O255  1  0.74515172  0.13065504  0.49564212  1
  O  O256  1  0.74485991  0.12812621  0.99364903  1
  O  O257  1  0.74964292  0.62869914  0.48693479  1
  O  O258  1  0.74209022  0.63150915  0.99982852  1
  O  O259  1  0.25594644  0.36941453  0.00556008  1
  O  O260  1  0.26341442  0.37872193  0.50741775  1
  O  O261  1  0.25139491  0.86572928  0.00260340  1
  O  O262  1  0.26693944  0.87061858  0.50284536  1
  O  O263  1  0.74896453  0.37701195  0.01363693  1
  O  O264  1  0.75619850  0.36955601  0.50186591  1
  O  O265  1  0.75328022  0.86853172  0.00462564  1
  O  O266  1  0.76082269  0.87882384  0.51322712  1
  O  O267  1  0.13404126  0.49443264  0.24462793  1
  O  O268  1  0.13683205  0.50030717  0.74901846  1
  O  O269  1  0.14010493  1.00852005  0.25157241  1
  O  O270  1  0.11827655  0.99020637  0.75148038  1
  O  O271  1  0.63121757  0.49723953  0.24267414  1
  O  O272  1  0.63708521  0.50091500  0.74641998  1
  O  O273  1  0.63722064  0.99888405  0.25310896  1
  O  O274  1  0.62586543  0.98890469  0.74238435  1
  O  O275  1  0.36976895  0.00724344  0.25904007  1
  O  O276  1  0.38212760  0.01211193  0.75249153  1
  O  O277  1  0.36469497  0.49373675  0.26323976  1
  O  O278  1  0.36447475  0.50562181  0.76123153  1
  O  O279  1  0.86518899  0.00387070  0.25855264  1
  O  O280  1  0.87649168  0.01358373  0.74252631  1
  O  O281  1  0.86566947  0.49694862  0.25964642  1
  O  O282  1  0.86738122  0.50226891  0.75529885  1
  O  O283  1  0.12324469  0.36586515  0.37032447  1
  O  O284  1  0.13154035  0.36037737  0.87912496  1
  O  O285  1  0.13512016  0.86088602  0.37511074  1
  O  O286  1  0.10727530  0.87256861  0.88104506  1
  O  O287  1  0.61835447  0.37465606  0.37255983  1
  O  O288  1  0.61484652  0.36454274  0.87896992  1
  O  O289  1  0.61034405  0.87796375  0.37642651  1
  O  O290  1  0.61901608  0.87279536  0.86575150  1
  O  O291  1  0.38359976  0.13346049  0.13762605  1
  O  O292  1  0.37283589  0.13030860  0.63775954  1
  O  O293  1  0.37305240  0.63993985  0.12418964  1
  O  O294  1  0.37152843  0.62100751  0.63808708  1
  O  O295  1  0.88163396  0.12744823  0.13303112  1
  O  O296  1  0.88100281  0.13110739  0.62965327  1
  O  O297  1  0.89003587  0.62542280  0.12080478  1
  O  O298  1  0.88393443  0.63400270  0.62417259  1
  O  O299  1  0.25546012  0.25613847  0.12048875  1
  O  O300  1  0.26145756  0.25827396  0.63186231  1
  O  O301  1  0.25678898  0.75562772  0.12081311  1
  O  O302  1  0.24868525  0.76310662  0.61890271  1
  O  O303  1  0.75033438  0.26264093  0.12691886  1
  O  O304  1  0.75403295  0.25638197  0.62031044  1
  O  O305  1  0.75063001  0.75527817  0.11752269  1
  O  O306  1  0.76578102  0.75704931  0.62949292  1
  O  O307  1  0.24480784  0.25358538  0.37247110  1
  O  O308  1  0.24180635  0.23991851  0.87822228  1
  O  O309  1  0.24048634  0.73826095  0.36954151  1
  O  O310  1  0.25681998  0.74588668  0.88601900  1
  O  O311  1  0.74381329  0.24715802  0.37921823  1
  O  O312  1  0.74126695  0.23982234  0.87135819  1
  O  O313  1  0.75675303  0.73702831  0.36574744  1
  O  O314  1  0.74721352  0.74838273  0.88609226  1
  O  O315  1  0.00394143  0.12664456  0.00782307  1
  O  O316  1  -0.00029937  0.11927145  0.51165275  1
  O  O317  1  0.00274379  0.61610613  0.00878669  1
  O  O318  1  -0.00563020  0.61684184  0.50708117  1
  O  O319  1  0.51542802  0.14267153  0.01868252  1
  O  O320  1  0.50911176  0.10583341  0.49687209  1
  O  O321  1  0.50660150  0.62378151  0.00140506  1
  O  O322  1  0.51295935  0.62940820  0.49687320  1
  O  O323  1  0.49161339  0.37174551  0.48801878  1
  O  O324  1  0.49268157  0.37321976  0.98898119  1
  O  O325  1  0.49385872  0.87950791  0.49520366  1
  O  O326  1  0.50949856  0.87117153  0.98772160  1
  O  O327  1  0.99208358  0.38115923  0.49392405  1
  O  O328  1  1.00067334  0.39251457  1.00960675  1
  O  O329  1  0.99220211  0.88622983  0.50713386  1
  O  O330  1  0.99106265  0.87335822  0.99247667  1
  O  O331  1  0.49088333  0.49309965  0.36610753  1
  O  O332  1  0.49110337  0.49039719  0.87324650  1
  O  O333  1  0.49019673  0.99162402  0.38052738  1
  O  O334  1  0.50232023  0.98207187  0.87128286  1
  O  O335  1  0.99429605  0.49809636  0.37867403  1
  O  O336  1  0.99288318  0.50284859  0.88260874  1
  O  O337  1  0.98711424  1.00683079  0.38190669  1
  O  O338  1  0.99535289  0.98625651  0.87869365  1
  O  O339  1  0.00072043  0.01313572  0.12533249  1
  O  O340  1  0.00408089  0.00799985  0.61598546  1
  O  O341  1  0.00461828  0.50961596  0.12128079  1
  O  O342  1  -0.00002629  0.50847859  0.61609227  1
  O  O343  1  0.49992309  0.01095684  0.13580670  1
  O  O344  1  0.51477098  -0.00939451  0.61769709  1
  O  O345  1  0.50733849  0.50071995  0.12298593  1
  O  O346  1  0.50074049  0.50645129  0.63419885  1
  O  O347  1  0.24584022  0.38449861  0.24281084  1
  O  O348  1  0.25789318  0.38376556  0.74031094  1
  O  O349  1  0.25806732  0.88606772  0.24238823  1
  O  O350  1  0.25222814  0.86666271  0.73976333  1
  O  O351  1  0.74278415  0.38586323  0.24227116  1
  O  O352  1  0.75464744  0.38181292  0.73750055  1
  O  O353  1  0.74924101  0.88024504  0.24424485  1
  O  O354  1  0.74441195  0.87498493  0.74170580  1
  O  O355  1  0.26263855  0.11810261  0.24541577  1
  O  O356  1  0.25958706  0.12470056  0.75459453  1
  O  O357  1  0.24663744  0.61696720  0.24931797  1
  O  O358  1  0.25449700  0.62079277  0.75566316  1
  O  O359  1  0.75393431  0.11832138  0.25604296  1
  O  O360  1  0.76030387  0.12282217  0.75629203  1
  O  O361  1  0.74391285  0.61597116  0.25737669  1
  O  O362  1  0.75227392  0.61583130  0.74985778  1
  O  O363  1  0.37967619  0.11662297  0.36603347  1
  O  O364  1  0.36163806  0.13329807  0.85612596  1
  O  O365  1  0.35945788  0.61869738  0.37650192  1
  O  O366  1  0.36599761  0.61754193  0.86928768  1
  O  O367  1  0.86851547  0.11922171  0.37134112  1
  O  O368  1  0.86745630  0.13019441  0.86497861  1
  O  O369  1  0.86627320  0.61621314  0.37946259  1
  O  O370  1  0.87050683  0.61076602  0.87434931  1
  O  O371  1  0.13140758  0.38157917  0.13055868  1
  O  O372  1  0.13932988  0.37439024  0.61831947  1
  O  O373  1  0.14146767  0.87825540  0.11900855  1
  O  O374  1  0.13830967  0.87488355  0.62571271  1
  O  O375  1  0.62929700  0.38480514  0.12774286  1
  O  O376  1  0.63784900  0.37640714  0.61473258  1
  O  O377  1  0.63720721  0.87736123  0.12692120  1
  O  O378  1  0.63405732  0.87713344  0.62933782  1
  O  O379  1  0.12245061  0.25504082  0.26012088  1
  O  O380  1  0.11565683  0.24615176  0.75777907  1
  O  O381  1  0.11186795  0.74773067  0.25724461  1
  O  O382  1  0.11099514  0.75513596  0.74738552  1
  O  O383  1  0.61954294  0.25688106  0.25617586  1
  O  O384  1  0.61490773  0.24067599  0.76112092  1
  O  O385  1  0.60516569  0.75155136  0.24028625  1
  O  O386  1  0.62065510  0.75916062  0.75045222  1
  O  O387  1  0.38196258  0.24507013  0.24866417  1
  O  O388  1  0.38153456  0.24212960  0.74030285  1
  O  O389  1  0.38584936  0.75443025  0.23744326  1
  O  O390  1  0.38356429  0.73947420  0.75385148  1
  O  O391  1  0.88297107  0.24482238  0.25119324  1
  O  O392  1  0.88242355  0.24142716  0.74272519  1
  O  O393  1  0.89744566  0.75280137  0.24661700  1
  O  O394  1  0.88514604  0.74790208  0.74136170  1
  O  O395  1  0.37322370  0.49265759  0.48661858  1
  O  O396  1  0.37403514  0.49489854  0.98772169  1
  O  O397  1  0.38478103  0.99112931  0.49498971  1
  O  O398  1  0.39083829  1.04789697  0.98935923  1
  O  O399  1  0.88220875  0.49472760  0.49147620  1
  O  O400  1  0.88303493  0.49665534  0.99108159  1
  O  O401  1  0.88292756  0.99356138  0.49475749  1
  O  O402  1  0.87353432  0.98528933  1.00621965  1
  O  O403  1  0.11936890  0.01372594  0.00314282  1
  O  O404  1  0.11351053  0.00352491  0.49187637  1
  O  O405  1  0.11974905  0.50428790  0.00624607  1
  O  O406  1  0.11077079  0.49365691  0.49863077  1
  O  O407  1  0.62780110  0.01456704  0.00368531  1
  O  O408  1  0.62164499  0.00133519  0.50685687  1
  O  O409  1  0.62269273  0.50546861  0.00659043  1
  O  O410  1  0.63489919  0.52085777  0.50253395  1
  O  O411  1  0.37210782  0.36977046  0.11916104  1
  O  O412  1  0.36934780  0.36852008  0.61788818  1
  O  O413  1  0.36382791  0.86335515  0.12259434  1
  O  O414  1  0.36982774  0.87385785  0.61430141  1
  O  O415  1  0.86516557  0.37540263  0.12596719  1
  O  O416  1  0.86599469  0.36898025  0.61495578  1
  O  O417  1  0.86253549  0.87111837  0.11878448  1
  O  O418  1  0.87092006  0.86990381  0.61991769  1
  O  O419  1  0.12326978  0.14230503  0.37587264  1
  O  O420  1  0.12898324  0.13086344  0.88115004  1
  O  O421  1  0.13913981  0.63046326  0.37323438  1
  O  O422  1  0.13815116  0.62310916  0.87448152  1
  O  O423  1  0.63018405  0.12954284  0.38287476  1
  O  O424  1  0.62928800  0.12938039  0.88225922  1
  O  O425  1  0.64004513  0.62436393  0.38350509  1
  O  O426  1  0.62605818  0.62391372  0.88539874  1
