# generated using pymatgen
data_V85Zn86O256
_symmetry_space_group_name_H-M   'P 1'
_cell_length_a   16.95536602
_cell_length_b   16.95360500
_cell_length_c   16.96194111
_cell_angle_alpha   90.01782591
_cell_angle_beta   90.03670770
_cell_angle_gamma   90.09383486
_symmetry_Int_Tables_number   1
_chemical_formula_structural   V85Zn86O256
_chemical_formula_sum   'V85 Zn86 O256'
_cell_volume   4875.77984917
_cell_formula_units_Z   1
loop_
 _symmetry_equiv_pos_site_id
 _symmetry_equiv_pos_as_xyz
  1  'x, y, z'
loop_
 _atom_site_type_symbol
 _atom_site_label
 _atom_site_symmetry_multiplicity
 _atom_site_fract_x
 _atom_site_fract_y
 _atom_site_fract_z
 _atom_site_occupancy
  V  V0  1  0.11917561  0.74860260  0.37120343  1
  V  V1  1  0.00857246  0.63180512  0.12663274  1
  V  V2  1  -0.00736533  0.24491142  0.74971822  1
  V  V3  1  0.37451458  0.49804110  0.87676084  1
  V  V4  1  0.12384615  -0.00335167  0.62562426  1
  V  V5  1  0.37831071  0.74942358  0.61938657  1
  V  V6  1  0.49745399  0.36809136  0.87274927  1
  V  V7  1  0.87182024  0.37109148  -0.00003427  1
  V  V8  1  0.37277715  0.00319242  0.88569636  1
  V  V9  1  0.49273582  -0.00454944  0.50523670  1
  V  V10  1  -0.00007165  0.12374234  0.12241761  1
  V  V11  1  0.25957051  0.24770010  0.50720761  1
  V  V12  1  0.49119676  0.86819017  0.38057504  1
  V  V13  1  0.01028685  0.49992426  0.00142617  1
  V  V14  1  0.74832282  0.25412618  0.49362099  1
  V  V15  1  0.75221689  0.12649727  0.36844609  1
  V  V16  1  0.74691056  0.02163256  0.74709286  1
  V  V17  1  0.86956224  -0.00226168  0.36958897  1
  V  V18  1  0.39381452  0.23470415  0.13748759  1
  V  V19  1  0.49179490  0.87907522  0.88282995  1
  V  V20  1  0.25232270  0.00509859  0.75299963  1
  V  V21  1  0.62043459  0.37779878  0.25840973  1
  V  V22  1  0.37359840  0.62314269  0.24763509  1
  V  V23  1  0.75130784  0.87529521  0.63754858  1
  V  V24  1  0.49861396  0.75050244  0.25026334  1
  V  V25  1  -0.00031643  -0.00310679  -0.00788802  1
  V  V26  1  0.75334862  0.50978491  0.75096426  1
  V  V27  1  0.61691524  0.50656595  0.63007734  1
  V  V28  1  0.25117841  0.49857214  0.74553555  1
  V  V29  1  0.50008013  0.62826249  0.12119947  1
  V  V30  1  0.24949633  0.75428065  0.49857927  1
  V  V31  1  0.11527994  0.86880096  0.75666720  1
  V  V32  1  0.00019947  0.25067054  0.25102930  1
  V  V33  1  0.12577039  0.00247353  0.12136147  1
  V  V34  1  0.38405726  0.13103490  0.74882256  1
  V  V35  1  0.37979647  0.62669783  0.74568508  1
  V  V36  1  0.00297650  0.36808098  0.87417435  1
  V  V37  1  0.12339217  0.12344658  0.50117538  1
  V  V38  1  0.13111451  0.49418194  0.12393522  1
  V  V39  1  0.00178956  0.37790394  0.38187240  1
  V  V40  1  0.62537512  0.49996342  0.12327698  1
  V  V41  1  0.75179886  0.62462584  0.37617445  1
  V  V42  1  0.57243112  0.20180722  0.31896007  1
  V  V43  1  0.61788606  0.62700216  0.50716014  1
  V  V44  1  0.87853163  0.62945232  0.24647701  1
  V  V45  1  0.87519691  0.25074533  0.12177991  1
  V  V46  1  0.87998260  0.50070177  0.38344110  1
  V  V47  1  0.50182982  0.75634849  0.74704727  1
  V  V48  1  0.62116692  -0.00734618  0.62882237  1
  V  V49  1  0.87293562  0.87920394  -0.00326109  1
  V  V50  1  -0.00936248  0.12270301  0.62599926  1
  V  V51  1  0.37143681  -0.00390535  0.37176655  1
  V  V52  1  0.00062541  0.87483446  0.36923422  1
  V  V53  1  0.12457837  0.87236787  0.24586278  1
  V  V54  1  0.75234099  0.13602626  0.88925753  1
  V  V55  1  -0.00536842  0.62507182  0.61326978  1
  V  V56  1  0.62384360  0.12609582  0.50306312  1
  V  V57  1  0.12568673  0.36626819  0.74782340  1
  V  V58  1  0.24178436  0.62374139  0.87650129  1
  V  V59  1  0.62468661  0.62877519  -0.00244170  1
  V  V60  1  0.74394945  0.75463352  0.00722870  1
  V  V61  1  0.87701572  0.87364336  0.50087958  1
  V  V62  1  0.37490122  0.75313635  0.11402132  1
  V  V63  1  0.75298740  0.50062960  0.24877082  1
  V  V64  1  0.49692345  0.49319899  0.00024324  1
  V  V65  1  0.24972301  0.62340720  0.37431183  1
  V  V66  1  0.87464228  0.00388120  0.86660372  1
  V  V67  1  0.12122107  0.49874784  0.61727198  1
  V  V68  1  0.62255963  0.75962904  0.87426054  1
  V  V69  1  0.25294525  0.87424634  0.62519153  1
  V  V70  1  0.75277571  0.75077979  0.50564498  1
  V  V71  1  0.25518035  0.87832017  0.11668782  1
  V  V72  1  0.25243636  0.12349100  0.36820315  1
  V  V73  1  0.93732260  0.68269055  0.80162274  1
  V  V74  1  0.63627086  0.87549405  0.25109878  1
  V  V75  1  0.74669782  0.37143169  0.12094782  1
  V  V76  1  0.62279127  0.37273035  0.75270997  1
  V  V77  1  0.13207722  0.13298330  -0.01844122  1
  V  V78  1  0.75252261  0.37705805  0.62585777  1
  V  V79  1  0.60642100  0.12618093  0.00382380  1
  V  V80  1  0.12522326  0.24784081  0.37546230  1
  V  V81  1  0.87645093  0.49878991  0.87260819  1
  V  V82  1  0.62469205  0.74794276  0.37860698  1
  V  V83  1  0.24013664  0.74761235  -0.00323633  1
  V  V84  1  0.87234204  0.12153334  0.24758515  1
  Zn  Zn85  1  0.75483715  0.88688568  0.13182294  1
  Zn  Zn86  1  0.24978807  0.49682875  0.25046403  1
  Zn  Zn87  1  0.25712748  0.36592503  0.62703941  1
  Zn  Zn88  1  0.62497381  0.25249707  0.88160885  1
  Zn  Zn89  1  0.26973919  0.36256765  0.13165986  1
  Zn  Zn90  1  0.49907273  0.37866096  0.37866161  1
  Zn  Zn91  1  0.48399661  0.15253429  0.62036567  1
  Zn  Zn92  1  0.87913790  0.37538369  0.50383265  1
  Zn  Zn93  1  0.26423824  0.26631871  0.00083511  1
  Zn  Zn94  1  0.75128045  0.63118618  0.87386901  1
  Zn  Zn95  1  0.12329100  0.61979193  0.49648716  1
  Zn  Zn96  1  0.25700591  0.00289565  0.24220761  1
  Zn  Zn97  1  0.62414715  0.00911459  0.12073564  1
  Zn  Zn98  1  0.11547276  0.74842357  0.87264739  1
  Zn  Zn99  1  0.37763347  0.49651045  0.37844072  1
  Zn  Zn100  1  0.88081963  0.74952842  0.63300549  1
  Zn  Zn101  1  0.87899558  0.75622228  0.12956987  1
  Zn  Zn102  1  0.12916093  0.37435673  0.25028154  1
  Zn  Zn103  1  0.86612045  0.24062893  0.62740882  1
  Zn  Zn104  1  0.49599824  0.50308996  0.50191152  1
  Zn  Zn105  1  0.38284697  0.37777913  0.50522755  1
  Zn  Zn106  1  -0.00072260  -0.00138974  0.49872940  1
  Zn  Zn107  1  0.19066412  0.18850501  0.18488764  1
  Zn  Zn108  1  0.18345531  0.18275427  0.69055312  1
  Zn  Zn109  1  0.18749716  0.68860207  0.18645168  1
  Zn  Zn110  1  0.18500420  0.68548766  0.68764132  1
  Zn  Zn111  1  0.68923848  0.18619266  0.17671449  1
  Zn  Zn112  1  0.65960606  0.19952593  0.67587904  1
  Zn  Zn113  1  0.68716543  0.69080447  0.18723854  1
  Zn  Zn114  1  0.68750734  0.69025506  0.69127086  1
  Zn  Zn115  1  0.31889735  0.31415623  0.31035369  1
  Zn  Zn116  1  0.31115620  0.30880246  0.81591617  1
  Zn  Zn117  1  0.31000396  0.81183136  0.30650707  1
  Zn  Zn118  1  0.31069202  0.81476990  0.81095151  1
  Zn  Zn119  1  0.81307299  0.31407279  0.31035756  1
  Zn  Zn120  1  0.81283249  0.31413797  0.80815713  1
  Zn  Zn121  1  0.81595816  0.80623516  0.31666398  1
  Zn  Zn122  1  0.80563745  0.82104747  0.81909629  1
  Zn  Zn123  1  0.19167856  0.43339668  0.43610970  1
  Zn  Zn124  1  0.20247045  0.40218233  0.92460138  1
  Zn  Zn125  1  0.18750638  0.93636359  0.43847701  1
  Zn  Zn126  1  0.18915662  0.93805406  0.93601114  1
  Zn  Zn127  1  0.68695088  0.44269173  0.44034416  1
  Zn  Zn128  1  0.68737082  0.44012180  0.93730873  1
  Zn  Zn129  1  0.68670376  0.93639988  0.43869820  1
  Zn  Zn130  1  0.68506156  0.94232047  0.93581107  1
  Zn  Zn131  1  0.31425936  0.07957919  0.06147141  1
  Zn  Zn132  1  0.31312778  0.06310572  0.56365100  1
  Zn  Zn133  1  0.31069503  0.56105370  0.05747724  1
  Zn  Zn134  1  0.31154926  0.56374409  0.56260594  1
  Zn  Zn135  1  0.80641158  0.05786591  0.06453926  1
  Zn  Zn136  1  0.80946530  0.05914918  0.55586304  1
  Zn  Zn137  1  0.81445492  0.56225171  0.06004239  1
  Zn  Zn138  1  0.81152546  0.56431878  0.56494008  1
  Zn  Zn139  1  0.43676528  0.43320691  0.18693023  1
  Zn  Zn140  1  0.43575665  0.43140771  0.68477169  1
  Zn  Zn141  1  0.43949323  0.94460282  0.18828865  1
  Zn  Zn142  1  0.43492594  0.93591910  0.69243285  1
  Zn  Zn143  1  0.94106155  0.43960044  0.18998580  1
  Zn  Zn144  1  0.93831506  0.44004838  0.68754911  1
  Zn  Zn145  1  0.93846857  0.93739803  0.18637239  1
  Zn  Zn146  1  0.93552557  0.93927648  0.68855837  1
  Zn  Zn147  1  0.06248876  0.05963394  0.31039351  1
  Zn  Zn148  1  0.06066108  0.05863546  0.80824307  1
  Zn  Zn149  1  0.06210597  0.56072451  0.30813145  1
  Zn  Zn150  1  0.06807105  0.55105940  0.81193225  1
  Zn  Zn151  1  0.56276531  0.04053183  0.31602855  1
  Zn  Zn152  1  0.56294131  0.06351244  0.81540206  1
  Zn  Zn153  1  0.56227039  0.56182063  0.31314925  1
  Zn  Zn154  1  0.56092157  0.56599500  0.81349953  1
  Zn  Zn155  1  0.43350930  0.18061168  0.43606250  1
  Zn  Zn156  1  0.42965192  0.18719377  0.93929366  1
  Zn  Zn157  1  0.43392523  0.68340284  0.43941371  1
  Zn  Zn158  1  0.43492884  0.68644048  0.93468689  1
  Zn  Zn159  1  0.93484510  0.18921294  0.44060088  1
  Zn  Zn160  1  0.93817008  0.18459631  0.93623313  1
  Zn  Zn161  1  0.93881692  0.68805538  0.43789998  1
  Zn  Zn162  1  0.93664963  0.68807023  0.96242789  1
  Zn  Zn163  1  0.06524254  0.31287704  0.06135581  1
  Zn  Zn164  1  0.06432112  0.30835268  0.56426001  1
  Zn  Zn165  1  0.06268589  0.81562338  0.05697650  1
  Zn  Zn166  1  0.06344296  0.80844763  0.56221033  1
  Zn  Zn167  1  0.55529879  0.30589608  0.06254065  1
  Zn  Zn168  1  0.56365900  0.31557916  0.55967339  1
  Zn  Zn169  1  0.54133908  0.85170064  0.08163869  1
  Zn  Zn170  1  0.56218016  0.81394664  0.56413979  1
  O  O171  1  0.11899837  0.11161012  0.12287659  1
  O  O172  1  0.11560991  0.11699255  0.61776531  1
  O  O173  1  0.11248999  0.61910929  0.12959124  1
  O  O174  1  0.11454098  0.61734517  0.62413062  1
  O  O175  1  0.62159838  0.12706786  0.11010703  1
  O  O176  1  0.63829267  0.10471160  0.60783699  1
  O  O177  1  0.61908260  0.62223932  0.11796234  1
  O  O178  1  0.63312738  0.61943705  0.61844131  1
  O  O179  1  0.37814892  0.37736850  0.38355887  1
  O  O180  1  0.38393360  0.39139465  0.86366659  1
  O  O181  1  0.38155362  0.87656590  0.37309463  1
  O  O182  1  0.38371200  0.88595730  0.86873082  1
  O  O183  1  0.88193614  0.38457945  0.37584388  1
  O  O184  1  0.88131836  0.38168348  0.88069866  1
  O  O185  1  0.88239360  0.87895360  0.37747300  1
  O  O186  1  0.86810806  0.88843299  0.88781674  1
  O  O187  1  0.25719885  0.00341962  0.37668514  1
  O  O188  1  0.26382742  -0.00829497  0.86587746  1
  O  O189  1  0.24814229  0.51437309  0.37361206  1
  O  O190  1  0.25566372  0.50300325  0.86403488  1
  O  O191  1  0.75870202  0.00907351  0.37980574  1
  O  O192  1  0.75368776  0.01279385  0.86509535  1
  O  O193  1  0.75808745  0.50739396  0.36924607  1
  O  O194  1  0.75969637  0.50589543  0.87084859  1
  O  O195  1  0.23497045  0.51335542  0.12749783  1
  O  O196  1  0.24180905  0.50384275  0.63672900  1
  O  O197  1  0.24300523  0.99447908  0.12154440  1
  O  O198  1  0.24492825  0.99101216  0.62878196  1
  O  O199  1  0.74599891  0.49233476  0.12776664  1
  O  O200  1  0.74619951  0.49751438  0.63412939  1
  O  O201  1  0.73934609  0.99863041  0.12854146  1
  O  O202  1  0.74715719  0.99307056  0.63031820  1
  O  O203  1  -0.00190185  0.36475536  0.26154835  1
  O  O204  1  0.00462237  0.36832988  0.75452462  1
  O  O205  1  0.00630457  0.87592380  0.26075164  1
  O  O206  1  0.01675387  0.87777661  0.74317825  1
  O  O207  1  0.51762701  0.38252389  0.25438349  1
  O  O208  1  0.51229181  0.38668584  0.76043056  1
  O  O209  1  0.50930966  0.86610751  0.26501526  1
  O  O210  1  0.49607404  0.86169081  0.75923059  1
  O  O211  1  0.51905991  0.13595165  0.26832929  1
  O  O212  1  0.48760182  0.12110520  0.74720607  1
  O  O213  1  0.49469103  0.63222931  0.24209679  1
  O  O214  1  0.48631085  0.63637038  0.75665223  1
  O  O215  1  0.99352404  0.13005485  0.24355901  1
  O  O216  1  1.00564942  0.13314743  0.73901678  1
  O  O217  1  0.99296174  0.62133207  0.23543905  1
  O  O218  1  0.99869865  0.62354581  0.74572157  1
  O  O219  1  0.37509024  0.23771470  0.02060436  1
  O  O220  1  0.36120276  0.24180681  0.50148380  1
  O  O221  1  0.36556951  0.74445892  0.01035041  1
  O  O222  1  0.36691897  0.74538174  0.51145247  1
  O  O223  1  0.88315378  0.26420445  0.00490758  1
  O  O224  1  0.86186024  0.25173222  0.50558062  1
  O  O225  1  0.86385090  0.76308891  0.00060489  1
  O  O226  1  0.86815423  0.75539305  0.50229496  1
  O  O227  1  0.12880450  0.23674443  0.49478734  1
  O  O228  1  0.11392761  0.23135270  1.00118207  1
  O  O229  1  0.13221680  0.74723482  0.48878393  1
  O  O230  1  0.13476937  0.75349743  0.99171322  1
  O  O231  1  0.63992659  0.23804870  0.49558185  1
  O  O232  1  0.62116885  0.23597916  0.99610154  1
  O  O233  1  0.63360468  0.74570569  0.49920503  1
  O  O234  1  0.63107623  0.74684761  0.99370852  1
  O  O235  1  0.49568741  0.24421958  0.13422823  1
  O  O236  1  0.55444777  0.23566866  0.63382280  1
  O  O237  1  0.49038451  0.75134221  0.12897025  1
  O  O238  1  0.48961847  0.75740357  0.63205847  1
  O  O239  1  0.99486423  0.24578714  0.13309262  1
  O  O240  1  0.99633269  0.23985414  0.63032389  1
  O  O241  1  0.99913390  0.73585086  0.11514212  1
  O  O242  1  1.00039478  0.73198868  0.62413789  1
  O  O243  1  0.00329650  0.25298177  0.36833126  1
  O  O244  1  -0.00616657  0.25889912  0.86607820  1
  O  O245  1  0.01228679  0.75541340  0.37677066  1
  O  O246  1  -0.00553859  0.73497649  0.86913886  1
  O  O247  1  0.50740155  0.25162456  0.37990645  1
  O  O248  1  0.49593324  0.26611155  0.87875930  1
  O  O249  1  0.50250586  0.75281816  0.37349947  1
  O  O250  1  0.50174552  0.75739433  0.86737305  1
  O  O251  1  0.24225604  0.12968721  0.49399270  1
  O  O252  1  0.23266499  0.12512816  0.99527802  1
  O  O253  1  0.24611987  0.63711052  0.49095097  1
  O  O254  1  0.25203559  0.63368862  0.98806929  1
  O  O255  1  0.74376169  0.12918426  0.48736159  1
  O  O256  1  0.75286233  0.13110940  0.98928227  1
  O  O257  1  0.74590873  0.63686398  0.49882652  1
  O  O258  1  0.74480421  0.63398704  0.99678115  1
  O  O259  1  0.24355899  0.38498125  0.02415804  1
  O  O260  1  0.24650080  0.35427158  0.50035464  1
  O  O261  1  0.24571774  0.86710740  0.00995074  1
  O  O262  1  0.24446486  0.86214195  0.50712489  1
  O  O263  1  0.75965214  0.38191498  0.00813433  1
  O  O264  1  0.74910171  0.36916042  0.50740732  1
  O  O265  1  0.75411794  0.87046712  0.00171423  1
  O  O266  1  0.75496736  0.86519887  0.50664135  1
  O  O267  1  0.12637205  0.49758207  0.23879701  1
  O  O268  1  0.13244370  0.48975242  0.73943097  1
  O  O269  1  0.12496162  0.98833266  0.23961223  1
  O  O270  1  0.13237684  0.99059875  0.74452818  1
  O  O271  1  0.63356986  0.49645034  0.24197047  1
  O  O272  1  0.63378453  0.49877157  0.74785161  1
  O  O273  1  0.62869001  0.97810802  0.25225809  1
  O  O274  1  0.63207438  1.00463115  0.73876512  1
  O  O275  1  0.37396728  -0.00582396  0.26536143  1
  O  O276  1  0.36723695  0.00544699  0.75591863  1
  O  O277  1  0.37452481  0.51472289  0.24775221  1
  O  O278  1  0.36865729  0.50893762  0.75244488  1
  O  O279  1  0.87959108  0.00499415  0.26167338  1
  O  O280  1  0.86499686  -0.00272061  0.75989717  1
  O  O281  1  0.87100358  0.50953562  0.25706619  1
  O  O282  1  0.86977715  0.49581236  0.76446586  1
  O  O283  1  0.11811122  0.36715478  0.37307030  1
  O  O284  1  0.10722435  0.38970017  0.86077916  1
  O  O285  1  0.11959082  0.87075595  0.36648474  1
  O  O286  1  0.12617032  0.87318538  0.86087670  1
  O  O287  1  0.63088433  0.38053180  0.36256896  1
  O  O288  1  0.61628558  0.37962257  0.87012601  1
  O  O289  1  0.61967415  0.86624910  0.37044995  1
  O  O290  1  0.61290316  0.86665566  0.87830474  1
  O  O291  1  0.37830749  0.13034516  0.13465042  1
  O  O292  1  0.37655797  0.12013208  0.64030144  1
  O  O293  1  0.37987681  0.63243126  0.12914035  1
  O  O294  1  0.36802131  0.63705398  0.63525209  1
  O  O295  1  0.87987087  0.13011591  0.12742802  1
  O  O296  1  0.88668826  0.12001390  0.61750761  1
  O  O297  1  0.88469589  0.62463058  0.13134326  1
  O  O298  1  0.88982807  0.62512473  0.62462445  1
  O  O299  1  0.25357418  0.24647660  0.11757882  1
  O  O300  1  0.24036189  0.24381100  0.60935177  1
  O  O301  1  0.25361654  0.75542863  0.11553360  1
  O  O302  1  0.25307652  0.75470677  0.61690905  1
  O  O303  1  0.75942304  0.26464098  0.12887575  1
  O  O304  1  0.74789938  0.26108363  0.61834647  1
  O  O305  1  0.75548293  0.74959630  0.11402356  1
  O  O306  1  0.75444889  0.75744095  0.62233339  1
  O  O307  1  0.24356757  0.23948294  0.38393998  1
  O  O308  1  0.23588176  0.29063078  0.89329424  1
  O  O309  1  0.24165573  0.74472845  0.37904199  1
  O  O310  1  0.25331700  0.74140926  0.88168297  1
  O  O311  1  0.75891436  0.24081143  0.38160354  1
  O  O312  1  0.75562698  0.23735119  0.87177183  1
  O  O313  1  0.74678452  0.74337883  0.38701043  1
  O  O314  1  0.73923539  0.75201479  0.88361324  1
  O  O315  1  0.00403277  0.11326691  0.00468182  1
  O  O316  1  0.00739968  0.12347971  0.50581413  1
  O  O317  1  -0.00252705  0.61266659  0.01585163  1
  O  O318  1  0.00327528  0.62233553  0.50917839  1
  O  O319  1  0.50939943  0.11925274  -0.01125892  1
  O  O320  1  0.50756613  0.11723684  0.50449666  1
  O  O321  1  0.50484932  0.61943359  0.00378532  1
  O  O322  1  0.51518041  0.62911889  0.50073052  1
  O  O323  1  0.50492413  0.38273619  0.49782404  1
  O  O324  1  0.50770995  0.38886695  0.99210798  1
  O  O325  1  0.50406227  0.87986532  0.48857830  1
  O  O326  1  0.49144101  0.86254874  0.97993917  1
  O  O327  1  0.99811532  0.36573818  0.48643019  1
  O  O328  1  0.99403391  0.38030952  0.99161933  1
  O  O329  1  0.99637077  0.87360111  0.48835166  1
  O  O330  1  0.99162189  0.88845294  1.00119017  1
  O  O331  1  0.49796571  0.50180688  0.38072789  1
  O  O332  1  0.49247793  0.49849906  0.88229912  1
  O  O333  1  0.49013169  0.98844279  0.38435754  1
  O  O334  1  0.49021337  0.98649187  0.86895451  1
  O  O335  1  0.99263788  0.49070445  0.37026913  1
  O  O336  1  0.99294833  0.49525482  0.88229450  1
  O  O337  1  0.99330222  0.99080549  0.37681885  1
  O  O338  1  0.98709953  1.00573738  0.87997639  1
  O  O339  1  0.00726923  0.00343223  0.11625583  1
  O  O340  1  0.00551779  0.00505001  0.62208413  1
  O  O341  1  0.00586598  0.50723519  0.11921723  1
  O  O342  1  0.00767629  0.51249307  0.63009586  1
  O  O343  1  0.52137397  -0.04085301  0.11869536  1
  O  O344  1  0.50753962  -0.00943794  0.61899881  1
  O  O345  1  0.50523176  0.50618476  0.11697666  1
  O  O346  1  0.51497885  0.50246379  0.62941766  1
  O  O347  1  0.24683155  0.37972789  0.24588704  1
  O  O348  1  0.24171406  0.38202137  0.74636726  1
  O  O349  1  0.24136435  0.87748242  0.23653465  1
  O  O350  1  0.24289246  0.88351116  0.74186810  1
  O  O351  1  0.74634036  0.38277829  0.24124132  1
  O  O352  1  0.74644893  0.38859929  0.74529728  1
  O  O353  1  0.73946961  0.86604683  0.25737613  1
  O  O354  1  0.75068690  0.88349552  0.73955018  1
  O  O355  1  0.23572966  0.11810140  0.26586142  1
  O  O356  1  0.25287403  0.10975431  0.74579664  1
  O  O357  1  0.25777761  0.62782846  0.25718648  1
  O  O358  1  0.25803692  0.61887366  0.75537124  1
  O  O359  1  0.75474413  0.13234747  0.26082880  1
  O  O360  1  0.74223673  0.12196462  0.74804923  1
  O  O361  1  0.75692750  0.61970012  0.25383071  1
  O  O362  1  0.74991378  0.61466538  0.75415252  1
  O  O363  1  0.36321492  0.11101417  0.37922122  1
  O  O364  1  0.38016275  0.10964707  0.86442998  1
  O  O365  1  0.36507306  0.62808310  0.36488265  1
  O  O366  1  0.36648410  0.61563968  0.86658420  1
  O  O367  1  0.86926323  0.11651402  0.37116417  1
  O  O368  1  0.86249418  0.11772998  0.87670280  1
  O  O369  1  0.87333226  0.61972723  0.36810405  1
  O  O370  1  0.88079457  0.62365238  0.87090666  1
  O  O371  1  0.11345702  0.38788607  0.13135090  1
  O  O372  1  0.12646351  0.38099853  0.63148735  1
  O  O373  1  0.12833151  0.88328119  0.12812251  1
  O  O374  1  0.13392275  0.87689152  0.63028186  1
  O  O375  1  0.63241001  0.37933145  0.12889567  1
  O  O376  1  0.63736981  0.38853217  0.63490033  1
  O  O377  1  0.63635707  0.85151197  0.14861822  1
  O  O378  1  0.63675303  0.88541759  0.61750243  1
  O  O379  1  0.11228634  0.24685329  0.25542053  1
  O  O380  1  0.11486400  0.26088122  0.74357852  1
  O  O381  1  0.12951330  0.76345439  0.25553910  1
  O  O382  1  0.13086224  0.76437592  0.75242075  1
  O  O383  1  0.63097347  0.25850422  0.25379311  1
  O  O384  1  0.63845535  0.27151409  0.76459346  1
  O  O385  1  0.61848263  0.74975036  0.26234317  1
  O  O386  1  0.61432815  0.74558458  0.76038567  1
  O  O387  1  0.36985702  0.24423179  0.23861371  1
  O  O388  1  0.36654866  0.22912196  0.75722304  1
  O  O389  1  0.37836077  0.74041540  0.24057293  1
  O  O390  1  0.37882560  0.74477039  0.74175580  1
  O  O391  1  0.88480997  0.24355913  0.24519689  1
  O  O392  1  0.88797276  0.25531644  0.74322199  1
  O  O393  1  0.87307629  0.73473712  0.24846478  1
  O  O394  1  0.87444632  0.74904890  0.75439396  1
  O  O395  1  0.37734512  0.50285673  0.49802073  1
  O  O396  1  0.38500569  0.50648773  0.98905791  1
  O  O397  1  0.38704275  1.00208846  0.49494391  1
  O  O398  1  0.36658209  1.00629902  0.98387095  1
  O  O399  1  0.86901478  0.49996417  0.48630708  1
  O  O400  1  0.88203916  0.49160584  0.99086648  1
  O  O401  1  0.87643371  0.99100949  0.48739471  1
  O  O402  1  0.88043804  0.99734147  0.99185479  1
  O  O403  1  0.11749129  0.00515791  0.00270546  1
  O  O404  1  0.12420327  0.00876009  0.50539522  1
  O  O405  1  0.11155459  0.49527204  0.00589151  1
  O  O406  1  0.13366265  0.49907233  0.51369294  1
  O  O407  1  0.63250033  0.02199333  -0.00443227  1
  O  O408  1  0.61293728  0.00461073  0.50101993  1
  O  O409  1  0.61875905  0.50921142  0.00448792  1
  O  O410  1  0.62979851  0.51254420  0.51295616  1
  O  O411  1  0.38459619  0.35514984  0.12968835  1
  O  O412  1  0.36978475  0.37300850  0.61986747  1
  O  O413  1  0.36419908  0.86549498  0.13240041  1
  O  O414  1  0.36040006  0.86575752  0.63096965  1
  O  O415  1  0.87015510  0.37405817  0.11786820  1
  O  O416  1  0.86235305  0.37977489  0.62323974  1
  O  O417  1  0.87348101  0.87510976  0.11485585  1
  O  O418  1  0.86887662  0.87232911  0.61964502  1
  O  O419  1  0.12773115  0.12562879  0.38425366  1
  O  O420  1  0.11995033  0.12147916  0.88316912  1
  O  O421  1  0.12981632  0.63302436  0.37196605  1
  O  O422  1  0.13823960  0.62616042  0.86501582  1
  O  O423  1  0.62914595  0.12756093  0.37819428  1
  O  O424  1  0.63728982  0.12936543  0.87972847  1
  O  O425  1  0.63397744  0.62946377  0.38407378  1
  O  O426  1  0.62308775  0.63753984  0.88321043  1
