# generated using pymatgen
data_V85Zn86O256
_symmetry_space_group_name_H-M   'P 1'
_cell_length_a   16.94399470
_cell_length_b   16.94702219
_cell_length_c   16.95258117
_cell_angle_alpha   89.95547858
_cell_angle_beta   89.90732831
_cell_angle_gamma   90.06624528
_symmetry_Int_Tables_number   1
_chemical_formula_structural   V85Zn86O256
_chemical_formula_sum   'V85 Zn86 O256'
_cell_volume   4867.92689545
_cell_formula_units_Z   1
loop_
 _symmetry_equiv_pos_site_id
 _symmetry_equiv_pos_as_xyz
  1  'x, y, z'
loop_
 _atom_site_type_symbol
 _atom_site_label
 _atom_site_symmetry_multiplicity
 _atom_site_fract_x
 _atom_site_fract_y
 _atom_site_fract_z
 _atom_site_occupancy
  V  V0  1  0.62710155  0.50938448  0.11847036  1
  V  V1  1  -0.04292596  0.70434022  0.28888271  1
  V  V2  1  -0.00121389  0.63460718  0.62799952  1
  V  V3  1  -0.00773481  0.24645461  0.25307668  1
  V  V4  1  0.62193818  -0.00182223  0.12089154  1
  V  V5  1  0.75373533  0.74132534  0.50192055  1
  V  V6  1  0.81181961  0.69154490  0.18023473  1
  V  V7  1  0.74988703  0.11969736  0.87368600  1
  V  V8  1  0.25306348  0.77266564  0.00777191  1
  V  V9  1  0.25329188  0.62459106  0.37356822  1
  V  V10  1  0.12860532  0.37346106  0.74732212  1
  V  V11  1  0.00106821  0.50140512  0.50086529  1
  V  V12  1  0.87715708  0.37697391  0.50249340  1
  V  V13  1  0.13662860  0.25030943  0.37338646  1
  V  V14  1  0.50065164  0.86005795  0.37410879  1
  V  V15  1  0.24994498  0.75154965  0.49975020  1
  V  V16  1  -0.00546306  0.75660877  0.75854887  1
  V  V17  1  0.24829464  0.25014505  -0.00233415  1
  V  V18  1  0.25326174  0.87477433  0.62635859  1
  V  V19  1  0.87685893  0.12320584  0.74974672  1
  V  V20  1  0.74680797  -0.00489687  0.73497073  1
  V  V21  1  0.63220811  0.12157523  0.49981799  1
  V  V22  1  0.62451293  0.85850995  0.25390583  1
  V  V23  1  0.24913693  0.37519277  0.12437181  1
  V  V24  1  0.50385530  0.87797388  0.87864576  1
  V  V25  1  0.62631201  0.62905920  0.49071708  1
  V  V26  1  0.00261785  0.12947129  0.62904294  1
  V  V27  1  0.75167202  0.01498833  0.25145880  1
  V  V28  1  0.13210750  0.87392308  0.24561936  1
  V  V29  1  0.87387353  -0.01022013  0.87364223  1
  V  V30  1  0.75614043  0.87556480  0.12753577  1
  V  V31  1  0.12822381  0.75013747  0.36699085  1
  V  V32  1  0.50822611  0.12072346  0.62546949  1
  V  V33  1  0.12836483  0.62486545  -0.00624774  1
  V  V34  1  0.12842851  0.00074418  0.62341378  1
  V  V35  1  0.49872652  0.25230234  0.74361817  1
  V  V36  1  0.37432665  0.37341607  -0.00082897  1
  V  V37  1  0.38126917  -0.00157822  0.87715166  1
  V  V38  1  0.25322430  0.49739691  0.25076852  1
  V  V39  1  0.62131678  0.37422948  0.24593364  1
  V  V40  1  0.00222102  0.37665947  0.37348085  1
  V  V41  1  0.37149975  0.24465888  0.13504248  1
  V  V42  1  0.25237270  0.00049206  0.74808117  1
  V  V43  1  0.74953190  0.37289907  0.12520206  1
  V  V44  1  0.37395645  0.37290695  0.51766888  1
  V  V45  1  0.25478117  0.25365878  0.51605913  1
  V  V46  1  0.26044194  0.63231071  0.87397581  1
  V  V47  1  -0.00544964  0.12110732  0.12972529  1
  V  V48  1  0.75024620  0.73840485  -0.00452213  1
  V  V49  1  -0.00148243  0.88009116  0.36976707  1
  V  V50  1  0.25530709  0.50379090  0.75110632  1
  V  V51  1  0.25059144  0.12722793  0.87107848  1
  V  V52  1  0.11929905  0.12320792  -0.00309566  1
  V  V53  1  0.87469221  0.24601207  0.12805896  1
  V  V54  1  0.37260214  0.02010911  0.37631199  1
  V  V55  1  0.87648408  0.86524487  0.00042850  1
  V  V56  1  -0.00041036  0.37545916  0.87006817  1
  V  V57  1  0.74889054  0.24392990  -0.00069193  1
  V  V58  1  0.12927917  -0.00622719  0.12447692  1
  V  V59  1  0.12878321  0.49982886  0.62767653  1
  V  V60  1  0.50487609  0.51278681  -0.00124581  1
  V  V61  1  -0.00160455  -0.01007213  -0.00346430  1
  V  V62  1  0.62802950  0.24520004  0.37328910  1
  V  V63  1  0.37619061  0.74067649  0.63176376  1
  V  V64  1  0.62585018  0.74349863  0.87425177  1
  V  V65  1  0.74772139  0.37782789  0.63008614  1
  V  V66  1  0.86868593  0.49890376  0.86788534  1
  V  V67  1  0.50529846  0.49923776  0.50669461  1
  V  V68  1  0.13390024  0.12773496  0.49969064  1
  V  V69  1  0.00846835  0.63568409  0.12333342  1
  V  V70  1  0.87620307  0.37238629  -0.00181712  1
  V  V71  1  0.75487888  0.24853471  0.48985751  1
  V  V72  1  0.62628277  0.87407601  0.73688378  1
  V  V73  1  0.49939837  0.37333202  0.87797946  1
  V  V74  1  0.62413958  0.24634136  0.87462370  1
  V  V75  1  0.87844972  0.25014632  0.62964400  1
  V  V76  1  0.49739717  0.37375105  0.37514114  1
  V  V77  1  0.87578175  0.01380147  0.36821566  1
  V  V78  1  0.00290257  0.00033991  0.49589308  1
  V  V79  1  0.49278653  0.11827602  0.12384691  1
  V  V80  1  0.11616813  0.24801847  0.86969293  1
  V  V81  1  0.37711932  0.12901918  0.74298524  1
  V  V82  1  0.86555904  0.87913576  0.51015073  1
  V  V83  1  0.86514572  0.62477598  0.74410851  1
  V  V84  1  0.50610416  -0.00041759  0.49919607  1
  Zn  Zn85  1  0.61711086  0.11461415  -0.00374167  1
  Zn  Zn86  1  0.49334921  0.74324702  0.75759070  1
  Zn  Zn87  1  0.74252493  0.61539795  0.86893391  1
  Zn  Zn88  1  0.12142899  0.76309677  0.87698914  1
  Zn  Zn89  1  0.75086889  0.52026745  0.25481225  1
  Zn  Zn90  1  0.38489572  0.76698321  0.12967335  1
  Zn  Zn91  1  0.49339754  0.23878821  0.25368695  1
  Zn  Zn92  1  0.00062002  0.50118815  0.00161865  1
  Zn  Zn93  1  0.63137697  0.38192651  0.75530823  1
  Zn  Zn94  1  0.12417179  0.50072017  0.12308647  1
  Zn  Zn95  1  0.37770295  0.87755855  0.49888548  1
  Zn  Zn96  1  0.87443209  0.53021478  0.36813712  1
  Zn  Zn97  1  0.37895088  0.50506051  0.87167503  1
  Zn  Zn98  1  0.63801538  0.51173162  0.63600192  1
  Zn  Zn99  1  0.50524943  0.62433661  0.63243361  1
  Zn  Zn100  1  0.12018131  0.87591048  0.75188556  1
  Zn  Zn101  1  0.38950872  0.64109742  0.24954260  1
  Zn  Zn102  1  0.26166805  0.01216210  0.24782681  1
  Zn  Zn103  1  0.43317867  -0.06583043  0.04352872  1
  Zn  Zn104  1  0.37572062  0.50094513  0.37918909  1
  Zn  Zn105  1  0.12644907  0.62660283  0.50264189  1
  Zn  Zn106  1  0.12425422  0.37284736  0.24569967  1
  Zn  Zn107  1  0.18459949  0.18463872  0.18669621  1
  Zn  Zn108  1  0.18785322  0.19025702  0.68802715  1
  Zn  Zn109  1  0.22746255  0.67314252  0.16829904  1
  Zn  Zn110  1  0.18372258  0.68808797  0.69152153  1
  Zn  Zn111  1  0.68009762  0.18680147  0.18524935  1
  Zn  Zn112  1  0.68988588  0.18969361  0.68637037  1
  Zn  Zn113  1  0.55224480  0.67794977  0.18135710  1
  Zn  Zn114  1  0.68745093  0.69615990  0.67810629  1
  Zn  Zn115  1  0.31370638  0.31449574  0.31540616  1
  Zn  Zn116  1  0.31208976  0.31407212  0.80893175  1
  Zn  Zn117  1  0.31457987  0.82120231  0.30894127  1
  Zn  Zn118  1  0.31174784  0.81610229  0.81562695  1
  Zn  Zn119  1  0.81363986  0.38085876  0.31450286  1
  Zn  Zn120  1  0.81451134  0.30783943  0.81081239  1
  Zn  Zn121  1  0.80429286  0.82491962  0.32497006  1
  Zn  Zn122  1  0.81016768  0.81009052  0.80713332  1
  Zn  Zn123  1  0.18898573  0.43564114  0.44126514  1
  Zn  Zn124  1  0.18729675  0.44111217  0.93531002  1
  Zn  Zn125  1  0.19037734  0.93680958  0.43581264  1
  Zn  Zn126  1  0.18330022  0.94039335  0.92778332  1
  Zn  Zn127  1  0.68739815  0.43938844  0.44030907  1
  Zn  Zn128  1  0.68617508  0.43453812  0.93744427  1
  Zn  Zn129  1  0.68918859  0.93802202  0.43068781  1
  Zn  Zn130  1  0.68870082  0.92992385  0.93560890  1
  Zn  Zn131  1  0.30726623  0.06505919  0.06055656  1
  Zn  Zn132  1  0.31889713  0.06453104  0.56022766  1
  Zn  Zn133  1  0.31998101  0.56313267  0.06074206  1
  Zn  Zn134  1  0.31113409  0.55944514  0.56067572  1
  Zn  Zn135  1  0.81212609  0.05900554  0.06227608  1
  Zn  Zn136  1  0.81601275  0.06345649  0.55672659  1
  Zn  Zn137  1  0.81458389  0.55466384  0.05868842  1
  Zn  Zn138  1  0.81564171  0.56293611  0.56067474  1
  Zn  Zn139  1  0.46012444  0.48212121  0.20550076  1
  Zn  Zn140  1  0.44243712  0.44139706  0.69204952  1
  Zn  Zn141  1  0.43608555  0.93568626  0.20427043  1
  Zn  Zn142  1  0.44132926  0.93518865  0.68770873  1
  Zn  Zn143  1  0.93939991  0.44349624  0.18645756  1
  Zn  Zn144  1  0.94079163  0.43981412  0.68903840  1
  Zn  Zn145  1  0.94021073  0.93314459  0.19052594  1
  Zn  Zn146  1  0.93941465  0.94247198  0.68595090  1
  Zn  Zn147  1  0.09564263  0.07748759  0.29905619  1
  Zn  Zn148  1  0.06071244  0.05577037  0.81166619  1
  Zn  Zn149  1  0.07487244  0.55730253  0.31488884  1
  Zn  Zn150  1  0.06025725  0.56454655  0.81301460  1
  Zn  Zn151  1  0.56332371  0.06002979  0.30918230  1
  Zn  Zn152  1  0.56519064  0.05883086  0.80857578  1
  Zn  Zn153  1  0.56972554  0.55573476  0.31872531  1
  Zn  Zn154  1  0.56154163  0.56328848  0.80444186  1
  Zn  Zn155  1  0.44135161  0.19282365  0.44421562  1
  Zn  Zn156  1  0.43691348  0.18429989  0.93951797  1
  Zn  Zn157  1  0.43401595  0.68442806  0.44303046  1
  Zn  Zn158  1  0.43670066  0.69794505  0.94677781  1
  Zn  Zn159  1  0.94396975  0.18981574  0.44010162  1
  Zn  Zn160  1  0.93639558  0.18319784  0.93752950  1
  Zn  Zn161  1  0.93823944  0.69534603  0.45684241  1
  Zn  Zn162  1  0.93514081  0.68205522  0.93451017  1
  Zn  Zn163  1  0.06147622  0.31068417  0.05978640  1
  Zn  Zn164  1  0.06525371  0.31347736  0.56462696  1
  Zn  Zn165  1  0.06544877  0.80570825  0.06418718  1
  Zn  Zn166  1  0.06386942  0.81536612  0.56117556  1
  Zn  Zn167  1  0.55925372  0.30720663  0.06265426  1
  Zn  Zn168  1  0.56521222  0.31055721  0.56215536  1
  Zn  Zn169  1  0.56992140  0.81014813  0.06081547  1
  Zn  Zn170  1  0.56454341  0.80753712  0.55833341  1
  O  O171  1  0.11057384  0.11703538  0.11436517  1
  O  O172  1  0.12024537  0.12349695  0.61868042  1
  O  O173  1  0.12498799  0.62605501  0.11095948  1
  O  O174  1  0.11715153  0.61727753  0.62501019  1
  O  O175  1  0.61740269  0.11460937  0.11934182  1
  O  O176  1  0.61663034  0.12941998  0.61692102  1
  O  O177  1  0.63108836  0.60764117  0.12813802  1
  O  O178  1  0.62502650  0.62519405  0.61202941  1
  O  O179  1  0.38851346  0.37467408  0.38170811  1
  O  O180  1  0.38235939  0.37625953  0.88063038  1
  O  O181  1  0.39235892  0.88199925  0.37780759  1
  O  O182  1  0.38763815  0.88592022  0.86790684  1
  O  O183  1  0.89520528  0.36103357  0.38921234  1
  O  O184  1  0.88186276  0.37675742  0.87528406  1
  O  O185  1  0.88431628  0.88545940  0.38393882  1
  O  O186  1  0.86885764  0.88392607  0.88166801  1
  O  O187  1  0.27163750  -0.00035942  0.38601213  1
  O  O188  1  0.25697464  0.00983880  0.86559619  1
  O  O189  1  0.24928579  0.50661585  0.37162518  1
  O  O190  1  0.25225144  0.51273237  0.86871784  1
  O  O191  1  0.76088509  -0.00159301  0.36180716  1
  O  O192  1  0.75738382  0.00297896  0.86914742  1
  O  O193  1  0.76300352  0.48006002  0.36834599  1
  O  O194  1  0.76325873  0.49699514  0.87964008  1
  O  O195  1  0.24994775  0.48907514  0.13148917  1
  O  O196  1  0.23689021  0.50826909  0.63355896  1
  O  O197  1  0.23230387  1.00563246  0.12555650  1
  O  O198  1  0.24956083  0.99361420  0.62681929  1
  O  O199  1  0.74403327  0.48753643  0.12307224  1
  O  O200  1  0.75582786  0.48091868  0.61720216  1
  O  O201  1  0.74689421  0.99151737  0.13286265  1
  O  O202  1  0.75703153  1.00592774  0.63687066  1
  O  O203  1  0.00360290  0.36912564  0.25864866  1
  O  O204  1  0.01034440  0.37831682  0.76227011  1
  O  O205  1  0.00175496  0.86421922  0.26381940  1
  O  O206  1  -0.00378064  0.85891038  0.73964322  1
  O  O207  1  0.50715551  0.38250995  0.25886182  1
  O  O208  1  0.49972519  0.36727559  0.76180162  1
  O  O209  1  0.51416597  0.87936647  0.26520896  1
  O  O210  1  0.51119826  0.87180024  0.75764841  1
  O  O211  1  0.50727682  0.12484666  0.23147563  1
  O  O212  1  0.49786733  0.12998968  0.74299552  1
  O  O213  1  0.49708554  0.59556505  0.24202476  1
  O  O214  1  0.49531807  0.63053675  0.74545225  1
  O  O215  1  1.00660966  0.13266470  0.23975275  1
  O  O216  1  0.99458625  0.11701722  0.73639541  1
  O  O217  1  1.01304501  0.62811663  0.24407176  1
  O  O218  1  0.99219073  0.63333476  0.74431062  1
  O  O219  1  0.36506905  0.25321697  0.00409549  1
  O  O220  1  0.37006324  0.26364204  0.50060549  1
  O  O221  1  0.35581508  0.75102247  0.00532276  1
  O  O222  1  0.36294895  0.75356005  0.50828174  1
  O  O223  1  0.86983957  0.25376524  0.00490405  1
  O  O224  1  0.87079773  0.25238917  0.50992078  1
  O  O225  1  0.87004880  0.76025711  -0.00839505  1
  O  O226  1  0.86462568  0.76584576  0.50301428  1
  O  O227  1  0.13463431  0.24717793  0.49743966  1
  O  O228  1  0.12851040  0.24346883  0.98991462  1
  O  O229  1  0.13729761  0.75216887  0.49308536  1
  O  O230  1  0.13537253  0.74437304  0.99440590  1
  O  O231  1  0.63237494  0.24180229  0.49325455  1
  O  O232  1  0.62917811  0.24580565  0.98779809  1
  O  O233  1  0.63020695  0.73472799  0.49834136  1
  O  O234  1  0.64081199  0.75679766  0.98704406  1
  O  O235  1  0.48685632  0.24347976  0.12765179  1
  O  O236  1  0.50708618  0.24371818  0.63849026  1
  O  O237  1  0.49792853  0.74395942  0.11138755  1
  O  O238  1  0.48224728  0.75158511  0.62043674  1
  O  O239  1  0.99735805  0.24129298  0.13103048  1
  O  O240  1  0.99185874  0.24174181  0.62003625  1
  O  O241  1  0.99805189  0.73641831  0.13241813  1
  O  O242  1  1.00523763  0.73859709  0.62812984  1
  O  O243  1  0.01013613  0.25570175  0.36980547  1
  O  O244  1  0.00961916  0.25440667  0.87732146  1
  O  O245  1  0.00909657  0.75537087  0.37630355  1
  O  O246  1  -0.00148050  0.74685858  0.86115773  1
  O  O247  1  0.50792066  0.25684717  0.37250690  1
  O  O248  1  0.50671787  0.25238502  0.86811194  1
  O  O249  1  0.49801346  0.76178495  0.38273258  1
  O  O250  1  0.50686465  0.75876510  0.87672155  1
  O  O251  1  0.24359074  0.13620087  0.50848742  1
  O  O252  1  0.23905100  0.12984061  0.98989112  1
  O  O253  1  0.24894865  0.63115529  0.48999456  1
  O  O254  1  0.24369711  0.62666677  0.98677022  1
  O  O255  1  0.74359419  0.13470344  0.50389554  1
  O  O256  1  0.74996816  0.12817293  0.99104295  1
  O  O257  1  0.74653181  0.63335755  0.50008493  1
  O  O258  1  0.75996540  0.63554069  0.99637711  1
  O  O259  1  0.25292550  0.37037264  0.00336061  1
  O  O260  1  0.26705835  0.37195081  0.49930950  1
  O  O261  1  0.25025813  0.87013273  -0.01121113  1
  O  O262  1  0.25236947  0.86759126  0.50785252  1
  O  O263  1  0.75367357  0.36519391  0.00826710  1
  O  O264  1  0.75873383  0.36647266  0.50951221  1
  O  O265  1  0.75797607  0.86623682  0.00945903  1
  O  O266  1  0.76435691  0.88805884  0.50168816  1
  O  O267  1  0.13841308  0.49188974  0.24577116  1
  O  O268  1  0.13072631  0.49527840  0.74568676  1
  O  O269  1  0.10211191  0.98383830  0.23387875  1
  O  O270  1  0.13378076  1.00250746  0.73927824  1
  O  O271  1  0.63349682  0.48660511  0.24225416  1
  O  O272  1  0.62725396  0.49381932  0.74709933  1
  O  O273  1  0.63453532  0.99432811  0.24020101  1
  O  O274  1  0.63397853  0.98586889  0.75150126  1
  O  O275  1  0.37631924  0.00726641  0.27039087  1
  O  O276  1  0.37182713  0.00804845  0.75517626  1
  O  O277  1  0.35996388  0.49784567  0.25700035  1
  O  O278  1  0.35918375  0.49437967  0.75074800  1
  O  O279  1  0.86514356  -0.00587896  0.25630648  1
  O  O280  1  0.86963111  0.00181157  0.75732473  1
  O  O281  1  0.86398133  0.48121603  0.25981996  1
  O  O282  1  0.87905726  0.50948329  0.75664439  1
  O  O283  1  0.11601573  0.36740619  0.37842191  1
  O  O284  1  0.11753676  0.36814326  0.87090307  1
  O  O285  1  0.11768519  0.87048455  0.37099468  1
  O  O286  1  0.11850097  0.87746006  0.86546555  1
  O  O287  1  0.61665954  0.36561056  0.37012250  1
  O  O288  1  0.61783356  0.36361934  0.87532640  1
  O  O289  1  0.61653520  0.87854521  0.36252657  1
  O  O290  1  0.62052609  0.86764617  0.86501761  1
  O  O291  1  0.37789998  0.13200573  0.12189059  1
  O  O292  1  0.38889943  0.12233070  0.63574924  1
  O  O293  1  0.33914058  0.63722628  0.14046862  1
  O  O294  1  0.37198760  0.63916145  0.61887161  1
  O  O295  1  0.88682763  0.12930937  0.11842785  1
  O  O296  1  0.88377010  0.13104249  0.62764294  1
  O  O297  1  0.87691252  0.62827394  0.12969875  1
  O  O298  1  0.88620039  0.61884288  0.63201001  1
  O  O299  1  0.25237490  0.25042180  0.11916093  1
  O  O300  1  0.24720474  0.25581956  0.61563822  1
  O  O301  1  0.23823269  0.76905313  0.10845999  1
  O  O302  1  0.25455365  0.75531602  0.62077166  1
  O  O303  1  0.75306904  0.25103056  0.11731645  1
  O  O304  1  0.75946886  0.25667116  0.61608624  1
  O  O305  1  0.75510636  0.75371309  0.11722368  1
  O  O306  1  0.74126628  0.76372956  0.60116613  1
  O  O307  1  0.23929436  0.25790254  0.38502630  1
  O  O308  1  0.23952066  0.24514166  0.87682287  1
  O  O309  1  0.24673605  0.74647876  0.38276315  1
  O  O310  1  0.24757460  0.74255136  0.87916817  1
  O  O311  1  0.74310694  0.26102356  0.38753812  1
  O  O312  1  0.74312895  0.24205878  0.87769508  1
  O  O313  1  0.74493002  0.76972453  0.40314312  1
  O  O314  1  0.74413217  0.74751437  0.88047499  1
  O  O315  1  0.00253252  0.11408683  0.00465259  1
  O  O316  1  0.00873097  0.12093411  0.51239214  1
  O  O317  1  0.00850610  0.62758769  0.00594520  1
  O  O318  1  0.00399053  0.61853881  0.51025209  1
  O  O319  1  0.50140747  0.12796907  0.01513030  1
  O  O320  1  0.50950334  0.12188665  0.50829706  1
  O  O321  1  0.49662576  0.61068343  -0.00586938  1
  O  O322  1  0.51025179  0.61677093  0.50164533  1
  O  O323  1  0.49372627  0.37739977  0.49724166  1
  O  O324  1  0.49477195  0.37148338  0.98836701  1
  O  O325  1  0.50676692  0.88292484  0.48847829  1
  O  O326  1  0.51222901  0.87942309  0.98356830  1
  O  O327  1  0.99811441  0.38389940  0.49750066  1
  O  O328  1  0.99478595  0.37344625  0.98767800  1
  O  O329  1  0.99545846  0.87984470  0.49030243  1
  O  O330  1  0.99122008  0.88085719  1.00810672  1
  O  O331  1  0.50176212  0.48956311  0.39051575  1
  O  O332  1  0.50027763  0.49023934  0.88454921  1
  O  O333  1  0.49469338  1.00138821  0.38572251  1
  O  O334  1  0.49249705  0.99383373  0.86876502  1
  O  O335  1  1.00285523  0.49307409  0.38273172  1
  O  O336  1  0.99028314  0.49126718  0.87622093  1
  O  O337  1  0.99765413  0.99330177  0.37862077  1
  O  O338  1  0.98819040  1.00394922  0.88648676  1
  O  O339  1  -0.00019152  0.00448200  0.11448917  1
  O  O340  1  0.00936325  0.00716063  0.61701996  1
  O  O341  1  0.00262010  0.51428924  0.12299558  1
  O  O342  1  0.00885034  0.50721514  0.61943191  1
  O  O343  1  0.50574298  0.00207097  0.12347853  1
  O  O344  1  0.49871521  0.00680309  0.61103543  1
  O  O345  1  0.51178835  0.48854724  0.10531363  1
  O  O346  1  0.50261226  0.49969722  0.61477928  1
  O  O347  1  0.24864919  0.37855808  0.24202560  1
  O  O348  1  0.23596189  0.38628605  0.75870217  1
  O  O349  1  0.23344876  0.89242596  0.26185991  1
  O  O350  1  0.24950566  0.88248893  0.74119581  1
  O  O351  1  0.73883492  0.36071074  0.23234944  1
  O  O352  1  0.75234987  0.36561142  0.73347879  1
  O  O353  1  0.73890929  0.87824264  0.24447369  1
  O  O354  1  0.73773052  0.88120145  0.74985002  1
  O  O355  1  0.20458977  0.10775779  0.26347211  1
  O  O356  1  0.25988085  0.12298548  0.75096039  1
  O  O357  1  0.23895550  0.61425347  0.26642473  1
  O  O358  1  0.24240994  0.61971353  0.76551642  1
  O  O359  1  0.74757072  0.11404825  0.24332432  1
  O  O360  1  0.75498198  0.11755597  0.75523579  1
  O  O361  1  0.75440118  0.63657763  0.23832906  1
  O  O362  1  0.76207491  0.63391970  0.74580235  1
  O  O363  1  0.37905357  0.11930786  0.38284073  1
  O  O364  1  0.37308330  0.12073531  0.86226751  1
  O  O365  1  0.36700738  0.62190568  0.37267594  1
  O  O366  1  0.36267664  0.62683256  0.87968893  1
  O  O367  1  0.88415287  0.11274762  0.38023769  1
  O  O368  1  0.86997301  0.11516094  0.86883816  1
  O  O369  1  0.90095311  0.64387217  0.36018424  1
  O  O370  1  0.87194022  0.61415449  0.86441868  1
  O  O371  1  0.13734445  0.37242629  0.12161188  1
  O  O372  1  0.11845608  0.38518828  0.63691289  1
  O  O373  1  0.11650476  0.88070052  0.13481222  1
  O  O374  1  0.13726219  0.88080936  0.62633031  1
  O  O375  1  0.62985692  0.37460344  0.12998365  1
  O  O376  1  0.64223831  0.37021671  0.62468048  1
  O  O377  1  0.63530657  0.87895792  0.13480919  1
  O  O378  1  0.61564967  0.87258540  0.63838503  1
  O  O379  1  0.11626719  0.25381064  0.25960599  1
  O  O380  1  0.12850928  0.25932611  0.75832734  1
  O  O381  1  0.13321617  0.75794823  0.26399579  1
  O  O382  1  0.10814941  0.75015656  0.75173092  1
  O  O383  1  0.61960412  0.25836148  0.25618903  1
  O  O384  1  0.61962874  0.25152338  0.76086811  1
  O  O385  1  0.62158600  0.76074132  0.24470916  1
  O  O386  1  0.62615945  0.76170629  0.75558865  1
  O  O387  1  0.37266558  0.25156886  0.23878781  1
  O  O388  1  0.38565499  0.24142876  0.75509818  1
  O  O389  1  0.36851758  0.75174485  0.24470450  1
  O  O390  1  0.37171004  0.75613885  0.73421729  1
  O  O391  1  0.89029810  0.25534773  0.24324877  1
  O  O392  1  0.87299438  0.24022655  0.73734766  1
  O  O393  1  0.86662515  0.75640440  0.24544604  1
  O  O394  1  0.88558464  0.74159317  0.75073205  1
  O  O395  1  0.38246663  0.48849769  0.50063899  1
  O  O396  1  0.38751001  0.49223396  0.99844056  1
  O  O397  1  0.38786687  0.99910309  0.49334556  1
  O  O398  1  0.37100793  1.00956505  0.98188411  1
  O  O399  1  0.88876981  0.49958151  0.49274883  1
  O  O400  1  0.87954424  0.48849183  0.99109717  1
  O  O401  1  0.88356428  0.99504816  0.49206883  1
  O  O402  1  0.87867544  0.98808670  0.99308711  1
  O  O403  1  0.11471250  0.00158002  0.00449997  1
  O  O404  1  0.12463317  0.00921183  0.50352725  1
  O  O405  1  0.12169645  0.50962730  0.00048004  1
  O  O406  1  0.11732958  0.49965554  0.50916383  1
  O  O407  1  0.63665252  -0.00451352  0.01635274  1
  O  O408  1  0.62293726  0.01436164  0.49083313  1
  O  O409  1  0.61426006  0.49626058  0.00295110  1
  O  O410  1  0.62098758  0.50633220  0.50774529  1
  O  O411  1  0.35976162  0.36182687  0.11553077  1
  O  O412  1  0.38099270  0.37521762  0.61567262  1
  O  O413  1  0.37830093  0.88448361  0.12549902  1
  O  O414  1  0.36560949  0.86973733  0.62164461  1
  O  O415  1  0.86800988  0.36719271  0.11827531  1
  O  O416  1  0.87288742  0.36792372  0.62237486  1
  O  O417  1  0.86344580  0.87907003  0.11759252  1
  O  O418  1  0.88205839  0.88370561  0.60751346  1
  O  O419  1  0.11376249  0.13821298  0.39524196  1
  O  O420  1  0.12657595  0.13110834  0.87528805  1
  O  O421  1  0.13114444  0.63517233  0.38150618  1
  O  O422  1  0.12910740  0.62822378  0.88410621  1
  O  O423  1  0.62103948  0.13894833  0.37993223  1
  O  O424  1  0.63027306  0.12853269  0.87593347  1
  O  O425  1  0.63162846  0.61520596  0.39132134  1
  O  O426  1  0.62655854  0.63929391  0.86935364  1
