# generated using pymatgen
data_V85Zn86O256
_symmetry_space_group_name_H-M   'P 1'
_cell_length_a   16.93865923
_cell_length_b   16.92651292
_cell_length_c   16.93777832
_cell_angle_alpha   89.90189872
_cell_angle_beta   89.98025801
_cell_angle_gamma   89.93386898
_symmetry_Int_Tables_number   1
_chemical_formula_structural   V85Zn86O256
_chemical_formula_sum   'V85 Zn86 O256'
_cell_volume   4856.26101660
_cell_formula_units_Z   1
loop_
 _symmetry_equiv_pos_site_id
 _symmetry_equiv_pos_as_xyz
  1  'x, y, z'
loop_
 _atom_site_type_symbol
 _atom_site_label
 _atom_site_symmetry_multiplicity
 _atom_site_fract_x
 _atom_site_fract_y
 _atom_site_fract_z
 _atom_site_occupancy
  V  V0  1  0.50450234  0.75525545  0.74704269  1
  V  V1  1  0.25314478  0.87786691  0.62004281  1
  V  V2  1  0.87242077  0.00240623  0.37529031  1
  V  V3  1  0.62782403  0.49470261  0.62936860  1
  V  V4  1  0.87220479  0.87456799  0.50969885  1
  V  V5  1  0.87311443  0.49538372  0.87990372  1
  V  V6  1  0.73289627  0.13373557  0.37509149  1
  V  V7  1  0.00375412  0.36789510  0.87749721  1
  V  V8  1  0.76709461  0.36873507  0.63406881  1
  V  V9  1  0.12802762  0.62449048  0.00008433  1
  V  V10  1  -0.00870080  0.12953658  0.62220166  1
  V  V11  1  0.62287147  0.87301657  0.24979761  1
  V  V12  1  0.75181078  0.38108779  0.12108152  1
  V  V13  1  -0.00535598  0.25123948  0.74537424  1
  V  V14  1  0.50215111  0.62497155  0.62351148  1
  V  V15  1  0.25044123  0.75250603  -0.00208660  1
  V  V16  1  0.62473295  0.12681521  -0.00054631  1
  V  V17  1  0.24495612  0.62160490  0.37845229  1
  V  V18  1  -0.01670463  0.74738146  0.24661234  1
  V  V19  1  -0.00101015  0.88076018  0.89164520  1
  V  V20  1  0.12317629  0.86915973  0.25107431  1
  V  V21  1  0.50668166  0.87830602  0.86994650  1
  V  V22  1  0.12247231  -0.00217058  0.62457872  1
  V  V23  1  0.37415309  0.62273680  0.74862255  1
  V  V24  1  0.75417704  0.74659922  0.50532605  1
  V  V25  1  0.49914795  0.00139417  0.00002413  1
  V  V26  1  0.76391500  0.50311928  0.25462070  1
  V  V27  1  0.12620640  0.50398683  0.61669061  1
  V  V28  1  -0.00305472  0.87423605  0.37463262  1
  V  V29  1  0.50567294  0.37168466  0.37535579  1
  V  V30  1  0.37742697  0.75489002  0.61466253  1
  V  V31  1  0.49817599  0.12463116  0.12423357  1
  V  V32  1  0.24406010  0.25225356  -0.00746215  1
  V  V33  1  0.62978704  0.61908999  0.49833861  1
  V  V34  1  0.24215093  0.74820193  0.49965250  1
  V  V35  1  0.37447213  0.12004666  0.25443640  1
  V  V36  1  0.25108224  0.87389650  0.12507898  1
  V  V37  1  0.62563723  0.74722624  0.37511495  1
  V  V38  1  0.50311526  0.24999654  0.74768936  1
  V  V39  1  0.60567605  0.62036343  0.00000471  1
  V  V40  1  -0.01142477  0.62728830  0.12807461  1
  V  V41  1  0.37728606  0.37572654  0.49925606  1
  V  V42  1  0.12685691  0.37242251  0.75170885  1
  V  V43  1  0.48394919  0.88000343  0.38323173  1
  V  V44  1  0.79537740  0.68252315  0.93036914  1
  V  V45  1  0.73685121  0.87388107  0.62888488  1
  V  V46  1  0.87465389  0.12451961  0.25019927  1
  V  V47  1  0.00143125  0.24921467  0.24878489  1
  V  V48  1  0.24467291  -0.00275000  0.74828455  1
  V  V49  1  0.25249538  0.49497315  0.24718269  1
  V  V50  1  0.12242823  -0.00189020  0.11868460  1
  V  V51  1  0.00179305  0.62964539  0.61899964  1
  V  V52  1  0.37462591  0.38111200  0.00385201  1
  V  V53  1  0.37698082  0.87610068  -0.00075207  1
  V  V54  1  0.25305060  -0.00359843  0.25776454  1
  V  V55  1  -0.00138275  0.00252658  0.49849878  1
  V  V56  1  0.49680154  0.01854303  0.50582690  1
  V  V57  1  0.87621368  0.25538994  0.11985522  1
  V  V58  1  -0.00199309  0.49538009  -0.00004591  1
  V  V59  1  0.37842477  0.24454562  0.62437660  1
  V  V60  1  0.36584275  0.25257480  0.12583757  1
  V  V61  1  0.50003214  0.49966526  0.49972010  1
  V  V62  1  0.37783124  0.12431620  0.74763455  1
  V  V63  1  0.50094623  0.74080452  0.24902101  1
  V  V64  1  0.12529142  0.24835558  0.37266557  1
  V  V65  1  0.61184676  0.50422023  0.12780846  1
  V  V66  1  0.75096686  0.25477086  -0.00077900  1
  V  V67  1  -0.00141474  0.11923530  0.11754427  1
  V  V68  1  -0.00484097  0.38216080  0.37363539  1
  V  V69  1  0.50742333  0.24941547  0.25099530  1
  V  V70  1  0.74843708  -0.00286190  0.24771276  1
  V  V71  1  0.00068464  0.76186717  0.74481056  1
  V  V72  1  0.76510069  0.61985867  0.37116519  1
  V  V73  1  0.24875134  0.24802522  0.50070444  1
  V  V74  1  0.37449277  0.00105600  0.87273987  1
  V  V75  1  0.74914733  0.51062597  0.75699907  1
  V  V76  1  0.76023606  0.85928384  0.11677435  1
  V  V77  1  0.13025792  0.49276589  0.12309774  1
  V  V78  1  0.38090297  0.74280341  0.12362900  1
  V  V79  1  0.87427062  -0.00180642  0.88698557  1
  V  V80  1  0.74458176  0.00034725  0.75017944  1
  V  V81  1  0.12730017  0.75747994  0.86801105  1
  V  V82  1  0.62431749  0.74739425  0.87883268  1
  V  V83  1  0.87576362  0.63318473  0.74427203  1
  V  V84  1  0.49807073  0.38205666  0.87770548  1
  Zn  Zn85  1  0.62569906  -0.00443057  0.12232554  1
  Zn  Zn86  1  0.37411801  0.50422288  0.88117963  1
  Zn  Zn87  1  0.12203876  0.12457226  -0.00771356  1
  Zn  Zn88  1  0.62738743  0.37548964  0.75714055  1
  Zn  Zn89  1  0.12372444  0.12529450  0.49878896  1
  Zn  Zn90  1  0.62275092  0.25395477  0.87863051  1
  Zn  Zn91  1  0.24882543  0.50012218  0.75147157  1
  Zn  Zn92  1  0.86960558  0.37810897  0.49280349  1
  Zn  Zn93  1  0.75336100  0.12645761  0.87734361  1
  Zn  Zn94  1  0.24936950  0.37516027  0.62617467  1
  Zn  Zn95  1  0.62306500  0.01411020  0.62027370  1
  Zn  Zn96  1  0.87453419  0.12491325  0.75036060  1
  Zn  Zn97  1  0.62908708  0.37464250  0.25301128  1
  Zn  Zn98  1  0.37495238  0.50246285  0.37377046  1
  Zn  Zn99  1  0.12004031  0.74413863  0.37820833  1
  Zn  Zn100  1  0.75059851  0.23693810  0.51285738  1
  Zn  Zn101  1  0.13184492  0.37138081  0.24531908  1
  Zn  Zn102  1  -0.00296242  0.50964966  0.49112329  1
  Zn  Zn103  1  0.25082625  0.12005133  0.37688992  1
  Zn  Zn104  1  0.24954488  0.62502122  0.87148246  1
  Zn  Zn105  1  0.37670397  0.62190260  0.24889590  1
  Zn  Zn106  1  0.24334150  0.12922946  0.87028503  1
  Zn  Zn107  1  0.18770694  0.18349389  0.18501717  1
  Zn  Zn108  1  0.18367255  0.18666382  0.68693430  1
  Zn  Zn109  1  0.18752730  0.68297306  0.18753183  1
  Zn  Zn110  1  0.18683753  0.68896343  0.68614845  1
  Zn  Zn111  1  0.68795220  0.18580454  0.18483576  1
  Zn  Zn112  1  0.68966179  0.18681410  0.69575476  1
  Zn  Zn113  1  0.68884751  0.68275918  0.18563080  1
  Zn  Zn114  1  0.68772437  0.68794097  0.68821995  1
  Zn  Zn115  1  0.31489638  0.31169103  0.31357594  1
  Zn  Zn116  1  0.31349738  0.31542819  0.81356479  1
  Zn  Zn117  1  0.31139804  0.80670871  0.31193652  1
  Zn  Zn118  1  0.31603073  0.81444107  0.80620263  1
  Zn  Zn119  1  0.81266479  0.31297703  0.30865211  1
  Zn  Zn120  1  0.81561425  0.31670144  0.81392376  1
  Zn  Zn121  1  0.80860104  0.81389391  0.31615591  1
  Zn  Zn122  1  0.81836171  0.82112694  0.80747748  1
  Zn  Zn123  1  0.18550609  0.43391799  0.43596921  1
  Zn  Zn124  1  0.19204747  0.43678455  0.93438773  1
  Zn  Zn125  1  0.18623433  0.93315106  0.43946019  1
  Zn  Zn126  1  0.18581677  0.93933534  0.93385319  1
  Zn  Zn127  1  0.64911596  0.37798414  0.48140312  1
  Zn  Zn128  1  0.68439621  0.44147242  0.94003547  1
  Zn  Zn129  1  0.68179084  0.94002238  0.43674043  1
  Zn  Zn130  1  0.68797482  0.93644913  0.93833460  1
  Zn  Zn131  1  0.30933113  0.06448970  0.06493601  1
  Zn  Zn132  1  0.31794455  0.06170845  0.55829297  1
  Zn  Zn133  1  0.31166139  0.56415485  0.06268685  1
  Zn  Zn134  1  0.31080664  0.56484679  0.56327655  1
  Zn  Zn135  1  0.80980531  0.06163202  0.06449048  1
  Zn  Zn136  1  0.80730077  0.06170378  0.56182963  1
  Zn  Zn137  1  0.81147534  0.55969694  0.06566181  1
  Zn  Zn138  1  0.81854668  0.55492835  0.56211150  1
  Zn  Zn139  1  0.43439077  0.43405070  0.18895204  1
  Zn  Zn140  1  0.43871218  0.43457868  0.68605323  1
  Zn  Zn141  1  0.43828576  0.93376630  0.18852247  1
  Zn  Zn142  1  0.43890702  0.93878100  0.68216694  1
  Zn  Zn143  1  0.94096760  0.43520701  0.18659941  1
  Zn  Zn144  1  0.94242589  0.44748862  0.69284293  1
  Zn  Zn145  1  0.93554520  0.93495410  0.18393547  1
  Zn  Zn146  1  0.93169264  0.94210038  0.68983370  1
  Zn  Zn147  1  0.06349375  0.06161288  0.30877950  1
  Zn  Zn148  1  0.06185477  0.06319307  0.81228825  1
  Zn  Zn149  1  0.06617220  0.56461762  0.30715112  1
  Zn  Zn150  1  0.06312348  0.56299173  0.80935875  1
  Zn  Zn151  1  0.55800049  0.05588358  0.31333499  1
  Zn  Zn152  1  0.56497398  0.06700917  0.81138205  1
  Zn  Zn153  1  0.56799917  0.55787768  0.31494956  1
  Zn  Zn154  1  0.55925651  0.56516243  0.81481423  1
  Zn  Zn155  1  0.43489654  0.18875806  0.43205510  1
  Zn  Zn156  1  0.43296988  0.19140300  0.93460255  1
  Zn  Zn157  1  0.43495192  0.68692974  0.43415092  1
  Zn  Zn158  1  0.43685127  0.68942412  0.93435708  1
  Zn  Zn159  1  0.92921632  0.19490260  0.44054469  1
  Zn  Zn160  1  0.93677463  0.18688595  0.93661724  1
  Zn  Zn161  1  0.93738069  0.69088995  0.43840620  1
  Zn  Zn162  1  0.95611783  0.68635091  0.93506415  1
  Zn  Zn163  1  0.06245813  0.31280183  0.06174378  1
  Zn  Zn164  1  0.06150276  0.31474089  0.56130887  1
  Zn  Zn165  1  0.06202097  0.80869671  0.06491313  1
  Zn  Zn166  1  0.06349318  0.81706703  0.56441288  1
  Zn  Zn167  1  0.56028277  0.31563872  0.06506696  1
  Zn  Zn168  1  0.57347412  0.19904232  0.55864757  1
  Zn  Zn169  1  0.56637931  0.81122540  0.06236588  1
  Zn  Zn170  1  0.56573665  0.81406751  0.55774618  1
  O  O171  1  0.11606409  0.11441740  0.12536603  1
  O  O172  1  0.11557761  0.11403289  0.62165023  1
  O  O173  1  0.12003119  0.61929497  0.11226635  1
  O  O174  1  0.11896246  0.61232070  0.63124052  1
  O  O175  1  0.61793890  0.12255146  0.11465546  1
  O  O176  1  0.63091398  0.12724452  0.62373701  1
  O  O177  1  0.62598466  0.61446876  0.11396564  1
  O  O178  1  0.62176803  0.61684742  0.61866859  1
  O  O179  1  0.38139608  0.37575729  0.38674983  1
  O  O180  1  0.38079051  0.37728208  0.88436447  1
  O  O181  1  0.38617175  0.87276405  0.36937392  1
  O  O182  1  0.38688689  0.87940958  0.87810908  1
  O  O183  1  0.89257914  0.37361841  0.36514290  1
  O  O184  1  0.88657212  0.38887206  0.87163927  1
  O  O185  1  0.87721840  0.88305778  0.38390270  1
  O  O186  1  0.88773997  0.88434251  0.87590434  1
  O  O187  1  0.24262166  -0.00130519  0.36173255  1
  O  O188  1  0.25862320  -0.00661871  0.86246261  1
  O  O189  1  0.25011747  0.50547357  0.37043912  1
  O  O190  1  0.25550073  0.50616985  0.86994148  1
  O  O191  1  0.75211840  0.00491712  0.36406384  1
  O  O192  1  0.76064095  -0.00373102  0.87090419  1
  O  O193  1  0.74844361  0.50613797  0.35737244  1
  O  O194  1  0.75826482  0.49584384  0.86724877  1
  O  O195  1  0.24109319  0.50654495  0.13314375  1
  O  O196  1  0.23766063  0.49918318  0.62657043  1
  O  O197  1  0.24335161  0.99271841  0.13459504  1
  O  O198  1  0.24549547  0.99593051  0.62578069  1
  O  O199  1  0.74326258  0.49531702  0.13144429  1
  O  O200  1  0.74615002  0.50177729  0.64217195  1
  O  O201  1  0.74691156  0.99667972  0.13793331  1
  O  O202  1  0.74690713  0.99214842  0.63178835  1
  O  O203  1  0.00619713  0.36734755  0.25630821  1
  O  O204  1  0.00588794  0.37078926  0.75706333  1
  O  O205  1  0.00606957  0.86818739  0.25260421  1
  O  O206  1  -0.00575633  0.86438877  0.75103543  1
  O  O207  1  0.49910325  0.36593722  0.25764188  1
  O  O208  1  0.49979209  0.36708900  0.75762587  1
  O  O209  1  0.50682635  0.86922108  0.25968980  1
  O  O210  1  0.49612300  0.86669598  0.75674497  1
  O  O211  1  0.49360013  0.12877054  0.24554731  1
  O  O212  1  0.48567624  0.13247867  0.75737311  1
  O  O213  1  0.50043120  0.63764896  0.25803014  1
  O  O214  1  0.49450995  0.63335537  0.74232041  1
  O  O215  1  0.99477226  0.13092976  0.24049535  1
  O  O216  1  1.00025441  0.13384001  0.74116304  1
  O  O217  1  1.00573449  0.63554553  0.24024496  1
  O  O218  1  0.99432537  0.63582694  0.74489753  1
  O  O219  1  0.36579250  0.25554816  0.00783878  1
  O  O220  1  0.37040281  0.25487261  0.50597328  1
  O  O221  1  0.37234299  0.75675969  0.00476908  1
  O  O222  1  0.36711606  0.74569759  0.51087724  1
  O  O223  1  0.86722278  0.24484563  0.01207801  1
  O  O224  1  0.85949569  0.26370236  0.49257777  1
  O  O225  1  0.86030996  0.73542842  -0.01750081  1
  O  O226  1  0.86176678  0.75956938  0.49540262  1
  O  O227  1  0.13323251  0.24918693  0.49256529  1
  O  O228  1  0.14138283  0.24891472  1.00908168  1
  O  O229  1  0.13805265  0.75568139  0.49999541  1
  O  O230  1  0.12889073  0.74441845  0.99040106  1
  O  O231  1  0.64118558  0.26687675  0.50196969  1
  O  O232  1  0.63283360  0.24467326  1.00305801  1
  O  O233  1  0.63634102  0.74232659  0.49499618  1
  O  O234  1  0.61875888  0.73700033  0.98935754  1
  O  O235  1  0.49029912  0.24284341  0.13081849  1
  O  O236  1  0.49184734  0.24936010  0.63835249  1
  O  O237  1  0.49233806  0.75815816  0.13567556  1
  O  O238  1  0.49637671  0.74847082  0.62919028  1
  O  O239  1  0.99314959  0.24609086  0.12916909  1
  O  O240  1  1.00415901  0.24169413  0.63161772  1
  O  O241  1  1.00277532  0.74029093  0.13361442  1
  O  O242  1  1.01012677  0.74395591  0.63445147  1
  O  O243  1  0.00703446  0.25388167  0.36619863  1
  O  O244  1  -0.00208995  0.26336863  0.87285422  1
  O  O245  1  0.00149725  0.75607196  0.36684328  1
  O  O246  1  0.00746188  0.76374074  0.86890576  1
  O  O247  1  0.49381958  0.25877697  0.36278044  1
  O  O248  1  0.49603804  0.25947466  0.86390248  1
  O  O249  1  0.50498661  0.75764302  0.36838581  1
  O  O250  1  0.50566590  0.75766898  0.86691824  1
  O  O251  1  0.25017097  0.13570374  0.49690738  1
  O  O252  1  0.25110249  0.13929409  1.00007327  1
  O  O253  1  0.25244971  0.63467972  0.49258539  1
  O  O254  1  0.24355815  0.63403053  0.99631159  1
  O  O255  1  0.75293298  0.12117169  0.47944097  1
  O  O256  1  0.74121024  0.13422961  1.00130711  1
  O  O257  1  0.74832156  0.62900417  0.49648546  1
  O  O258  1  0.74177775  0.62504144  0.99583685  1
  O  O259  1  0.25846591  0.36207531  -0.00254128  1
  O  O260  1  0.25797492  0.36447721  0.49997902  1
  O  O261  1  0.25665859  0.87087892  0.00359097  1
  O  O262  1  0.25062581  0.86871559  0.51116714  1
  O  O263  1  0.74559046  0.37047884  0.01259267  1
  O  O264  1  0.75366779  0.39058333  0.53058535  1
  O  O265  1  0.73965266  0.87591129  0.01909284  1
  O  O266  1  0.75360311  0.86832560  0.50474756  1
  O  O267  1  0.13324846  0.49893748  0.23827521  1
  O  O268  1  0.12449160  0.49014248  0.74107111  1
  O  O269  1  0.13018534  0.98738101  0.24216219  1
  O  O270  1  0.13821772  1.00370002  0.74060050  1
  O  O271  1  0.63266487  0.50069624  0.23678084  1
  O  O272  1  0.63431280  0.50659630  0.74796759  1
  O  O273  1  0.63028988  0.98995998  0.24864477  1
  O  O274  1  0.64009340  1.00396387  0.75325507  1
  O  O275  1  0.36516439  0.00656164  0.24271160  1
  O  O276  1  0.36913504  0.00775718  0.75002898  1
  O  O277  1  0.36771263  0.50314619  0.25008763  1
  O  O278  1  0.37509809  0.51454283  0.74261680  1
  O  O279  1  0.86646897  0.00326176  0.25489960  1
  O  O280  1  0.86346311  0.00129501  0.76021121  1
  O  O281  1  0.86267932  0.49916860  0.24231752  1
  O  O282  1  0.87248955  0.51505176  0.76245648  1
  O  O283  1  0.11884268  0.36185003  0.37050815  1
  O  O284  1  0.11498422  0.38243784  0.86521317  1
  O  O285  1  0.11556472  0.87276873  0.36679712  1
  O  O286  1  0.11135447  0.87090404  0.87639820  1
  O  O287  1  0.60917953  0.38255830  0.37139658  1
  O  O288  1  0.61451920  0.37473075  0.87698437  1
  O  O289  1  0.62329587  0.86603889  0.36373892  1
  O  O290  1  0.61328473  0.86568658  0.88105569  1
  O  O291  1  0.37988188  0.13111363  0.13366366  1
  O  O292  1  0.37126744  0.13720976  0.63136966  1
  O  O293  1  0.37316892  0.63923020  0.12507304  1
  O  O294  1  0.38225247  0.63425025  0.62910770  1
  O  O295  1  0.88014809  0.12928962  0.13072474  1
  O  O296  1  0.88776290  0.11706833  0.62624348  1
  O  O297  1  0.88961017  0.62194852  0.11967262  1
  O  O298  1  0.88647620  0.62224330  0.63586827  1
  O  O299  1  0.26131279  0.24633062  0.11966322  1
  O  O300  1  0.25544589  0.25177697  0.61633087  1
  O  O301  1  0.25594824  0.75535937  0.11871556  1
  O  O302  1  0.25622717  0.75703537  0.61948446  1
  O  O303  1  0.75564881  0.25787408  0.11841212  1
  O  O304  1  0.75432544  0.26697458  0.63761610  1
  O  O305  1  0.74889979  0.75996437  0.12956850  1
  O  O306  1  0.74548649  0.75809001  0.61636429  1
  O  O307  1  0.24275052  0.24822045  0.38130724  1
  O  O308  1  0.25435657  0.24877609  0.88884087  1
  O  O309  1  0.24791809  0.74383499  0.38380357  1
  O  O310  1  0.24308697  0.75426351  0.87798967  1
  O  O311  1  0.74820139  0.23373761  0.36118948  1
  O  O312  1  0.75206021  0.25372322  0.88973607  1
  O  O313  1  0.74373914  0.74144916  0.38131481  1
  O  O314  1  0.74196409  0.75173082  0.87080733  1
  O  O315  1  0.00215062  0.13088506  0.01412123  1
  O  O316  1  -0.00119158  0.12082673  0.50457255  1
  O  O317  1  0.00999344  0.61502185  0.00536101  1
  O  O318  1  -0.00078144  0.63088572  0.51430936  1
  O  O319  1  0.50380973  0.12274407  0.00325849  1
  O  O320  1  0.50190991  0.12367916  0.49776238  1
  O  O321  1  0.50676503  0.62408602  0.00067987  1
  O  O322  1  0.50669789  0.61986712  0.50383777  1
  O  O323  1  0.49165215  0.38178007  0.49199235  1
  O  O324  1  0.48791867  0.36603695  0.99005488  1
  O  O325  1  0.49732192  0.86722476  0.48374734  1
  O  O326  1  0.49596732  0.88106404  0.99293041  1
  O  O327  1  1.00169205  0.37112243  0.47972352  1
  O  O328  1  1.00562631  0.38718494  0.99321463  1
  O  O329  1  0.99037305  0.87959803  0.49601049  1
  O  O330  1  1.00065383  0.87297926  0.99008816  1
  O  O331  1  0.49572396  0.49446477  0.38147171  1
  O  O332  1  0.49368608  0.48683429  0.86905057  1
  O  O333  1  0.50027680  0.98644370  0.38378626  1
  O  O334  1  0.49609180  0.99397904  0.87738928  1
  O  O335  1  1.01221286  0.48557555  0.37195795  1
  O  O336  1  0.99382589  0.49679014  0.88217099  1
  O  O337  1  0.99385172  0.99475706  0.37806818  1
  O  O338  1  0.99038643  0.98719490  0.86974762  1
  O  O339  1  0.00837076  0.00775729  0.13179397  1
  O  O340  1  0.00626831  0.00398532  0.62053312  1
  O  O341  1  0.00754902  0.50507952  0.11755625  1
  O  O342  1  0.01169883  0.51171216  0.62717883  1
  O  O343  1  0.50047560  0.00604581  0.11839109  1
  O  O344  1  0.50291355  -0.00032763  0.61082039  1
  O  O345  1  0.51330633  0.49777306  0.13124783  1
  O  O346  1  0.50857451  0.50494148  0.62192991  1
  O  O347  1  0.25073230  0.38924929  0.25589464  1
  O  O348  1  0.24181225  0.37590721  0.74690894  1
  O  O349  1  0.24358907  0.87777624  0.24572362  1
  O  O350  1  0.25589583  0.88469585  0.73466817  1
  O  O351  1  0.74778804  0.38482231  0.24093204  1
  O  O352  1  0.74963823  0.38734856  0.74739815  1
  O  O353  1  0.74205229  0.88046606  0.24551626  1
  O  O354  1  0.75380899  0.88242168  0.73803988  1
  O  O355  1  0.25678177  0.11363480  0.24897864  1
  O  O356  1  0.25974418  0.11769008  0.74761823  1
  O  O357  1  0.25150569  0.61457272  0.25709372  1
  O  O358  1  0.26078854  0.62798140  0.75003192  1
  O  O359  1  0.75348690  0.11612584  0.25422997  1
  O  O360  1  0.75646498  0.11781051  0.75920910  1
  O  O361  1  0.74838924  0.61356003  0.25638615  1
  O  O362  1  0.76093598  0.62228941  0.74917107  1
  O  O363  1  0.37076936  0.12790911  0.35855332  1
  O  O364  1  0.36886474  0.11749959  0.86654970  1
  O  O365  1  0.36189811  0.62395169  0.37138025  1
  O  O366  1  0.37554769  0.62522742  0.86344271  1
  O  O367  1  0.87261087  0.11779534  0.36525494  1
  O  O368  1  0.87743444  0.11031483  0.87466135  1
  O  O369  1  0.86415873  0.62694155  0.37804072  1
  O  O370  1  0.86785481  0.62359898  0.87425186  1
  O  O371  1  0.12235965  0.38884450  0.12463434  1
  O  O372  1  0.12345745  0.38706520  0.63105126  1
  O  O373  1  0.12969719  0.87878126  0.13110729  1
  O  O374  1  0.13318398  0.89015647  0.62229911  1
  O  O375  1  0.63113120  0.38877232  0.12522718  1
  O  O376  1  0.63544026  0.39170025  0.63661869  1
  O  O377  1  0.62896229  0.87426009  0.13835151  1
  O  O378  1  0.63456162  0.87833219  0.62297981  1
  O  O379  1  0.12155571  0.24992748  0.25417998  1
  O  O380  1  0.11543670  0.26428820  0.74416740  1
  O  O381  1  0.12344055  0.76137212  0.24896595  1
  O  O382  1  0.11849678  0.74690613  0.76232085  1
  O  O383  1  0.61091528  0.25282655  0.23925232  1
  O  O384  1  0.61541690  0.25277966  0.75781178  1
  O  O385  1  0.61850323  0.75321493  0.25368701  1
  O  O386  1  0.61255966  0.74077311  0.76215049  1
  O  O387  1  0.38017860  0.24338242  0.24189399  1
  O  O388  1  0.37770439  0.24436566  0.74266933  1
  O  O389  1  0.38326063  0.74905716  0.24074470  1
  O  O390  1  0.38579205  0.74209931  0.74137044  1
  O  O391  1  0.87928126  0.24390684  0.23754350  1
  O  O392  1  0.89057593  0.24823881  0.75731622  1
  O  O393  1  0.88458659  0.75500088  0.25381178  1
  O  O394  1  0.88527238  0.74107016  0.75712654  1
  O  O395  1  0.38116860  0.49178817  0.50331942  1
  O  O396  1  0.37003305  0.48555159  1.00409652  1
  O  O397  1  0.39559671  1.00362948  0.49876978  1
  O  O398  1  0.37896553  0.99597098  0.99467039  1
  O  O399  1  0.88681488  0.49076523  0.50365524  1
  O  O400  1  0.88496981  0.50619325  0.99127731  1
  O  O401  1  0.87853693  0.99326193  0.49403779  1
  O  O402  1  0.86954668  1.00123338  0.98658696  1
  O  O403  1  0.13189386  -0.00094223  0.01578729  1
  O  O404  1  0.11641803  0.00207215  0.50491780  1
  O  O405  1  0.12189561  0.50728421  0.00338010  1
  O  O406  1  0.11926064  0.49464017  0.51355001  1
  O  O407  1  0.61747515  0.00895061  0.00036754  1
  O  O408  1  0.60380094  -0.00754147  0.49935806  1
  O  O409  1  0.62511666  0.51223668  0.01061970  1
  O  O410  1  0.61735901  0.49728692  0.51117832  1
  O  O411  1  0.38032035  0.36327365  0.11705158  1
  O  O412  1  0.37473392  0.36460314  0.61465617  1
  O  O413  1  0.36958760  0.86647465  0.11934514  1
  O  O414  1  0.36842492  0.86464694  0.62732821  1
  O  O415  1  0.86675173  0.36657140  0.12718437  1
  O  O416  1  0.86759738  0.38045134  0.63796626  1
  O  O417  1  0.85967237  0.87589872  0.12630908  1
  O  O418  1  0.86632818  0.88052807  0.61275564  1
  O  O419  1  0.12583392  0.13592533  0.37472202  1
  O  O420  1  0.13160875  0.11397939  0.88032812  1
  O  O421  1  0.13855071  0.62749786  0.37168464  1
  O  O422  1  0.12237931  0.63446942  0.88501449  1
  O  O423  1  0.63467734  0.12257684  0.36735364  1
  O  O424  1  0.62632912  0.13047009  0.88900628  1
  O  O425  1  0.63338385  0.62823047  0.38265548  1
  O  O426  1  0.62035736  0.62965353  0.88953321  1
