# generated using pymatgen
data_V85Zn86O256
_symmetry_space_group_name_H-M   'P 1'
_cell_length_a   16.95784176
_cell_length_b   16.95787686
_cell_length_c   16.95294294
_cell_angle_alpha   90.04962350
_cell_angle_beta   89.92347176
_cell_angle_gamma   90.01240214
_symmetry_Int_Tables_number   1
_chemical_formula_structural   V85Zn86O256
_chemical_formula_sum   'V85 Zn86 O256'
_cell_volume   4875.13442592
_cell_formula_units_Z   1
loop_
 _symmetry_equiv_pos_site_id
 _symmetry_equiv_pos_as_xyz
  1  'x, y, z'
loop_
 _atom_site_type_symbol
 _atom_site_label
 _atom_site_symmetry_multiplicity
 _atom_site_fract_x
 _atom_site_fract_y
 _atom_site_fract_z
 _atom_site_occupancy
  V  V0  1  0.00383533  0.00257464  -0.00049168  1
  V  V1  1  0.12645783  0.00875096  0.61980277  1
  V  V2  1  0.75094822  0.37261940  0.62981861  1
  V  V3  1  0.25332325  0.62555955  0.87545735  1
  V  V4  1  -0.00019909  0.87878863  0.37352747  1
  V  V5  1  0.37786712  0.75254971  0.11971762  1
  V  V6  1  0.68386171  0.43627911  0.18657002  1
  V  V7  1  0.36749509  0.49715112  0.38662473  1
  V  V8  1  0.24233513  0.49850303  0.25159669  1
  V  V9  1  0.00342158  0.49628779  -0.00296002  1
  V  V10  1  0.37243110  0.25174235  0.12386095  1
  V  V11  1  0.24393914  0.12521538  0.38310928  1
  V  V12  1  0.37712366  -0.00151635  0.88254027  1
  V  V13  1  0.49685917  0.37792558  0.39170616  1
  V  V14  1  0.25193744  0.37572895  0.62300468  1
  V  V15  1  0.50057444  0.87719256  0.37809642  1
  V  V16  1  0.36891492  0.62088530  0.25232758  1
  V  V17  1  0.74476387  0.50536390  0.75985411  1
  V  V18  1  0.74871092  0.12587083  0.37718633  1
  V  V19  1  0.86257140  0.25054483  0.12319725  1
  V  V20  1  0.25483061  0.87590517  0.62360798  1
  V  V21  1  0.37656864  0.87653326  0.49823349  1
  V  V22  1  0.75348786  0.00117431  0.74963645  1
  V  V23  1  0.00135076  0.01178664  0.49926659  1
  V  V24  1  0.87952370  0.14037284  0.74330210  1
  V  V25  1  0.50023895  0.74754397  0.25066930  1
  V  V26  1  0.75719974  0.25216239  0.50494871  1
  V  V27  1  0.62898390  0.12888948  0.00327327  1
  V  V28  1  0.23973694  0.49372457  0.75123231  1
  V  V29  1  0.87643692  0.12647061  0.24973269  1
  V  V30  1  0.75570764  0.87375935  0.62137826  1
  V  V31  1  0.62136085  0.74407509  0.38558599  1
  V  V32  1  0.13217945  0.75563368  0.87666314  1
  V  V33  1  0.12465174  0.00223576  0.12301841  1
  V  V34  1  0.87622808  0.00144451  0.87536059  1
  V  V35  1  0.62068499  0.51024076  0.61926913  1
  V  V36  1  0.12618613  0.87651901  0.74903877  1
  V  V37  1  0.75163683  0.13264135  0.87957052  1
  V  V38  1  0.74102133  0.61410986  0.37228442  1
  V  V39  1  0.62739747  0.25967707  0.37383715  1
  V  V40  1  0.75677843  0.74587696  0.49630977  1
  V  V41  1  0.63349223  0.62667745  -0.00144037  1
  V  V42  1  0.06768515  0.31104518  0.70457762  1
  V  V43  1  0.86804822  0.50407220  0.88254719  1
  V  V44  1  0.50414949  0.49384807  0.00171580  1
  V  V45  1  0.24428474  0.74238783  0.48326071  1
  V  V46  1  0.12509973  0.86951589  0.25093442  1
  V  V47  1  0.24038975  0.12685516  0.87856649  1
  V  V48  1  0.86891863  0.61903156  0.24624754  1
  V  V49  1  0.61576970  0.37595368  0.75525566  1
  V  V50  1  0.00464678  0.12764233  0.12217786  1
  V  V51  1  0.50345309  0.61823549  0.12433719  1
  V  V52  1  0.87109969  0.74763881  0.11478959  1
  V  V53  1  0.62612530  0.87269041  0.25169815  1
  V  V54  1  0.00044936  0.87076744  0.87742709  1
  V  V55  1  0.25423901  0.87688346  0.11905113  1
  V  V56  1  0.61619506  0.25268932  0.87883837  1
  V  V57  1  0.74930043  0.86981102  0.11853645  1
  V  V58  1  0.88009579  0.49788893  0.37768178  1
  V  V59  1  0.38035177  0.12577323  0.75244975  1
  V  V60  1  0.86142523  0.36645985  0.00139748  1
  V  V61  1  0.49805006  0.87256423  0.88404677  1
  V  V62  1  0.50023773  0.12564218  0.12760350  1
  V  V63  1  0.23592129  0.24717730  -0.00275467  1
  V  V64  1  0.12567707  0.25604183  0.37501651  1
  V  V65  1  0.24940808  0.00132893  0.24998870  1
  V  V66  1  0.50004157  0.26276097  0.25210625  1
  V  V67  1  0.01019917  0.36036425  0.87949745  1
  V  V68  1  0.38075652  0.62293736  0.74739250  1
  V  V69  1  0.25498910  0.75230934  0.00103528  1
  V  V70  1  0.75108727  -0.00022420  0.25062190  1
  V  V71  1  -0.00043617  0.74628276  0.25010161  1
  V  V72  1  0.63822427  0.74790909  0.87734750  1
  V  V73  1  0.00331639  0.26200659  0.24827247  1
  V  V74  1  0.24062866  0.37574758  0.12674282  1
  V  V75  1  0.38212493  0.49568197  0.87362609  1
  V  V76  1  0.62584402  0.00039108  0.12582783  1
  V  V77  1  0.37368729  0.12718781  0.25233589  1
  V  V78  1  0.50604782  0.74810948  0.74788296  1
  V  V79  1  0.37624976  0.37133541  -0.00537727  1
  V  V80  1  0.37982347  0.74083673  0.62207873  1
  V  V81  1  0.12846051  0.62299911  0.00187527  1
  V  V82  1  0.62423651  0.00160221  0.62387864  1
  V  V83  1  0.62729018  0.87435017  0.75166587  1
  V  V84  1  0.37869538  0.25305993  0.61614925  1
  Zn  Zn85  1  0.49803160  -0.00383310  0.00472316  1
  Zn  Zn86  1  0.25365788  0.00011469  0.75091325  1
  Zn  Zn87  1  0.00294351  0.13869906  0.62586448  1
  Zn  Zn88  1  0.00651976  0.38492615  0.37179498  1
  Zn  Zn89  1  0.87113754  0.87136771  -0.00207668  1
  Zn  Zn90  1  0.09713724  0.64360257  0.50131685  1
  Zn  Zn91  1  0.62387123  0.12745010  0.50245003  1
  Zn  Zn92  1  -0.00165263  0.62462304  0.12140907  1
  Zn  Zn93  1  0.88128107  0.87262797  0.50458718  1
  Zn  Zn94  1  0.49659592  0.25449182  0.75209014  1
  Zn  Zn95  1  0.50208169  0.00323351  0.50005990  1
  Zn  Zn96  1  0.50127080  0.12696290  0.62359135  1
  Zn  Zn97  1  0.11831830  0.49786998  0.13329820  1
  Zn  Zn98  1  0.92602738  0.68781651  0.58785355  1
  Zn  Zn99  1  0.87364895  -0.00014943  0.37768896  1
  Zn  Zn100  1  0.24774726  0.25154430  0.50181907  1
  Zn  Zn101  1  0.37624484  0.00274039  0.37600905  1
  Zn  Zn102  1  0.88040216  0.62229684  0.74851442  1
  Zn  Zn103  1  0.88157969  0.37467144  0.50916105  1
  Zn  Zn104  1  -0.01216197  0.75233138  0.73692778  1
  Zn  Zn105  1  0.49329903  0.51615469  0.50723316  1
  Zn  Zn106  1  0.00954054  0.50409098  0.52364667  1
  Zn  Zn107  1  0.18556723  0.19004910  0.18962045  1
  Zn  Zn108  1  0.19757586  0.18435031  0.68940581  1
  Zn  Zn109  1  0.18712575  0.68652432  0.18823828  1
  Zn  Zn110  1  0.19318187  0.69474591  0.68803901  1
  Zn  Zn111  1  0.68493642  0.19169570  0.19332613  1
  Zn  Zn112  1  0.68823769  0.18839197  0.69181792  1
  Zn  Zn113  1  0.68580440  0.68417415  0.18792860  1
  Zn  Zn114  1  0.73597224  0.67420836  0.67465552  1
  Zn  Zn115  1  0.31076182  0.31717993  0.31369310  1
  Zn  Zn116  1  0.30999132  0.31007951  0.81106367  1
  Zn  Zn117  1  0.31532458  0.81391813  0.30748155  1
  Zn  Zn118  1  0.31727173  0.81497416  0.81019194  1
  Zn  Zn119  1  0.81021118  0.31583635  0.30654673  1
  Zn  Zn120  1  0.80669089  0.31682653  0.81862994  1
  Zn  Zn121  1  0.81397999  0.80950543  0.31033985  1
  Zn  Zn122  1  0.81591999  0.81112406  0.81238062  1
  Zn  Zn123  1  0.18188917  0.44105857  0.43696741  1
  Zn  Zn124  1  0.18954213  0.43718068  0.93581641  1
  Zn  Zn125  1  0.18568210  0.93680644  0.43692317  1
  Zn  Zn126  1  0.18866480  0.94334701  0.93930768  1
  Zn  Zn127  1  0.68749759  0.43566445  0.43838672  1
  Zn  Zn128  1  0.68327720  0.43424493  0.94537086  1
  Zn  Zn129  1  0.68707728  0.93616637  0.44001271  1
  Zn  Zn130  1  0.68526729  0.94105970  0.93703537  1
  Zn  Zn131  1  0.31303816  0.06422992  0.06057037  1
  Zn  Zn132  1  0.31685287  0.06291818  0.56352039  1
  Zn  Zn133  1  0.31485510  0.56013843  0.06522955  1
  Zn  Zn134  1  0.21017310  0.55940179  0.56572142  1
  Zn  Zn135  1  0.81501620  0.06126428  0.06250776  1
  Zn  Zn136  1  0.81723929  0.06368940  0.56272448  1
  Zn  Zn137  1  0.81134463  0.55658206  0.06523719  1
  Zn  Zn138  1  0.80263019  0.55466213  0.55730329  1
  Zn  Zn139  1  0.43243181  0.43736504  0.18594982  1
  Zn  Zn140  1  0.43740096  0.43714167  0.68457129  1
  Zn  Zn141  1  0.43770303  0.93809049  0.19030217  1
  Zn  Zn142  1  0.44076138  0.93670291  0.69106475  1
  Zn  Zn143  1  0.92914146  0.43979145  0.18276731  1
  Zn  Zn144  1  0.92926408  0.43660549  0.69568097  1
  Zn  Zn145  1  0.93528802  0.93752912  0.18673325  1
  Zn  Zn146  1  0.94030999  0.93835890  0.68700380  1
  Zn  Zn147  1  0.06395995  0.06505164  0.31031568  1
  Zn  Zn148  1  0.06145764  0.06192716  0.80773328  1
  Zn  Zn149  1  0.06954060  0.57578806  0.32386691  1
  Zn  Zn150  1  0.06132330  0.57014228  0.69455954  1
  Zn  Zn151  1  0.56364533  0.06521043  0.31341386  1
  Zn  Zn152  1  0.56291179  0.06216247  0.81437284  1
  Zn  Zn153  1  0.55861861  0.55637581  0.31164264  1
  Zn  Zn154  1  0.56336745  0.56385018  0.81571317  1
  Zn  Zn155  1  0.43871461  0.18652861  0.43879137  1
  Zn  Zn156  1  0.43717172  0.18421235  0.94032642  1
  Zn  Zn157  1  0.42974993  0.68463730  0.43591342  1
  Zn  Zn158  1  0.44231274  0.68517192  0.93690633  1
  Zn  Zn159  1  0.93815153  0.19011801  0.43577162  1
  Zn  Zn160  1  0.93715924  0.18591754  0.93919386  1
  Zn  Zn161  1  0.94050412  0.68455729  0.42183236  1
  Zn  Zn162  1  0.98837687  0.64450006  0.88158966  1
  Zn  Zn163  1  0.05925108  0.31219061  0.06275821  1
  Zn  Zn164  1  0.06722125  0.32056355  0.54335860  1
  Zn  Zn165  1  0.06175494  0.81202029  0.06373338  1
  Zn  Zn166  1  0.06587334  0.82256239  0.56042790  1
  Zn  Zn167  1  0.56368258  0.31168233  0.06378532  1
  Zn  Zn168  1  0.56743739  0.31315630  0.56530073  1
  Zn  Zn169  1  0.56523829  0.80849925  0.06256922  1
  Zn  Zn170  1  0.56681440  0.68619217  0.56862571  1
  O  O171  1  0.11241111  0.11880641  0.13210458  1
  O  O172  1  0.12557316  0.11193336  0.63376055  1
  O  O173  1  0.12280865  0.62398217  0.11245657  1
  O  O174  1  0.13202425  0.62847056  0.62127097  1
  O  O175  1  0.62193084  0.12233879  0.12111631  1
  O  O176  1  0.62602701  0.11366103  0.62864958  1
  O  O177  1  0.61088949  0.63345468  0.11434366  1
  O  O178  1  0.63491698  0.61356144  0.63119598  1
  O  O179  1  0.38199129  0.38796276  0.37248988  1
  O  O180  1  0.36943676  0.38053157  0.88605227  1
  O  O181  1  0.38200000  0.87731737  0.37964626  1
  O  O182  1  0.38564237  0.88483102  0.87021767  1
  O  O183  1  0.87175691  0.39297620  0.36750189  1
  O  O184  1  0.88062156  0.37518085  0.88812512  1
  O  O185  1  0.88849098  0.87970101  0.36945015  1
  O  O186  1  0.88512130  0.88255087  0.87744943  1
  O  O187  1  0.24973388  0.00818724  0.36770551  1
  O  O188  1  0.25959189  0.00936393  0.87666720  1
  O  O189  1  0.26086044  0.49083332  0.36626923  1
  O  O190  1  0.26193631  0.50305141  0.86777816  1
  O  O191  1  0.74928242  0.00874476  0.36984473  1
  O  O192  1  0.75419941  0.00831203  0.86811494  1
  O  O193  1  0.75436025  0.50991616  0.37779954  1
  O  O194  1  0.76023177  0.48717715  0.87449728  1
  O  O195  1  0.24776241  0.49178270  0.13141510  1
  O  O196  1  0.25666529  0.49128640  0.64320825  1
  O  O197  1  0.24736102  0.99473632  0.12859282  1
  O  O198  1  0.24667903  0.99145085  0.62421130  1
  O  O199  1  0.75249375  0.49134350  0.13446299  1
  O  O200  1  0.73654879  0.49204252  0.63740868  1
  O  O201  1  0.74510827  0.99438261  0.13231643  1
  O  O202  1  0.74691261  0.99863270  0.63290102  1
  O  O203  1  -0.00600912  0.36478307  0.24879358  1
  O  O204  1  -0.00065046  0.36784991  0.76395685  1
  O  O205  1  0.00776177  0.87196279  0.25141039  1
  O  O206  1  0.00984521  0.87724396  0.75997834  1
  O  O207  1  0.49158534  0.36494035  0.25576458  1
  O  O208  1  0.51200278  0.37576340  0.75096298  1
  O  O209  1  0.50399004  0.86899837  0.25956350  1
  O  O210  1  0.50788155  0.86733113  0.75921846  1
  O  O211  1  0.49088927  0.13315978  0.24792407  1
  O  O212  1  0.48961427  0.12571544  0.75015482  1
  O  O213  1  0.49114832  0.62715141  0.24153259  1
  O  O214  1  0.48883269  0.63272401  0.75768104  1
  O  O215  1  0.99222053  0.13148242  0.24286893  1
  O  O216  1  0.98384014  0.12264050  0.74944320  1
  O  O217  1  0.99265808  0.63330909  0.24570993  1
  O  O218  1  0.99919456  0.63539918  0.76705213  1
  O  O219  1  0.36970240  0.25608741  0.00479100  1
  O  O220  1  0.37122295  0.24717697  0.51272651  1
  O  O221  1  0.37303001  0.74486357  0.01261792  1
  O  O222  1  0.36945557  0.76128476  0.50572745  1
  O  O223  1  0.87649868  0.25825873  0.00766794  1
  O  O224  1  0.86154456  0.25614512  0.49204921  1
  O  O225  1  0.87798976  0.75247842  0.01596930  1
  O  O226  1  0.86521808  0.75255597  0.49349893  1
  O  O227  1  0.12774372  0.24569857  0.48066538  1
  O  O228  1  0.13709244  0.24938502  1.00541919  1
  O  O229  1  0.14338560  0.75928098  0.50401133  1
  O  O230  1  0.13512534  0.74552117  0.99899615  1
  O  O231  1  0.63469301  0.24950209  0.48972870  1
  O  O232  1  0.62170566  0.23695388  0.99593507  1
  O  O233  1  0.63059953  0.74920815  0.48780789  1
  O  O234  1  0.61969763  0.73562960  0.99256273  1
  O  O235  1  0.49363910  0.24567208  0.13434834  1
  O  O236  1  0.49355875  0.25002955  0.62878432  1
  O  O237  1  0.49320628  0.74493511  0.13045903  1
  O  O238  1  0.49648847  0.75112550  0.63937103  1
  O  O239  1  0.99504439  0.24277848  0.13117248  1
  O  O240  1  1.01432024  0.25778199  0.63307993  1
  O  O241  1  0.99082914  0.75045450  0.13413599  1
  O  O242  1  0.99485310  0.76703975  0.62453841  1
  O  O243  1  0.01008639  0.25094622  0.36649745  1
  O  O244  1  0.00147019  0.26107043  0.88302733  1
  O  O245  1  -0.00604900  0.76289614  0.35714842  1
  O  O246  1  0.01317838  0.76466706  0.88010628  1
  O  O247  1  0.50409746  0.25922575  0.37173159  1
  O  O248  1  0.51252909  0.24327454  0.87480892  1
  O  O249  1  0.50449085  0.75554914  0.36900425  1
  O  O250  1  0.50297780  0.75685126  0.86701967  1
  O  O251  1  0.25693677  0.12569758  0.48552413  1
  O  O252  1  0.25424812  0.13230710  0.98788516  1
  O  O253  1  0.25927855  0.64477840  0.50191558  1
  O  O254  1  0.24799332  0.62875575  0.99641855  1
  O  O255  1  0.75022377  0.13270210  0.49291841  1
  O  O256  1  0.74229684  0.11790398  0.99142203  1
  O  O257  1  0.74916419  0.63434569  0.48518753  1
  O  O258  1  0.73135627  0.61683845  1.00743610  1
  O  O259  1  0.25595493  0.36729528  0.00408425  1
  O  O260  1  0.23898249  0.37601909  0.51991286  1
  O  O261  1  0.24746707  0.87314105  0.01311792  1
  O  O262  1  0.25866814  0.87120768  0.50463446  1
  O  O263  1  0.76291202  0.37058446  -0.00094854  1
  O  O264  1  0.74993166  0.36879267  0.51075953  1
  O  O265  1  0.74966990  0.88349185  0.01488764  1
  O  O266  1  0.75428582  0.86877098  0.50523992  1
  O  O267  1  0.13777623  0.50992526  0.25188691  1
  O  O268  1  0.14354838  0.50885175  0.76048674  1
  O  O269  1  0.13029758  0.99119961  0.24254329  1
  O  O270  1  0.12941782  0.99014414  0.74383294  1
  O  O271  1  0.62469667  0.49954156  0.24122293  1
  O  O272  1  0.62718065  0.49359444  0.74952213  1
  O  O273  1  0.63033542  0.99410451  0.24495226  1
  O  O274  1  0.63802986  0.99866826  0.74878682  1
  O  O275  1  0.36793968  0.01007447  0.25128812  1
  O  O276  1  0.37548537  0.00725362  0.76015710  1
  O  O277  1  0.36528960  0.50656541  0.25249455  1
  O  O278  1  0.37458554  0.50695875  0.75721294  1
  O  O279  1  0.86869334  0.00982214  0.25067556  1
  O  O280  1  0.86599133  0.00507118  0.75583385  1
  O  O281  1  0.87639355  0.51311417  0.25480612  1
  O  O282  1  0.86377822  0.49993646  0.76849672  1
  O  O283  1  0.12602105  0.36128145  0.37200017  1
  O  O284  1  0.10880910  0.37747191  0.88084487  1
  O  O285  1  0.11357548  0.88096787  0.36203221  1
  O  O286  1  0.12280449  0.87586684  0.86882679  1
  O  O287  1  0.61437105  0.36794687  0.37892411  1
  O  O288  1  0.62933351  0.36350631  0.87072477  1
  O  O289  1  0.61832808  0.86677843  0.37151825  1
  O  O290  1  0.61820360  0.87021547  0.87131667  1
  O  O291  1  0.37784753  0.13095254  0.13450849  1
  O  O292  1  0.37521823  0.13279976  0.63511592  1
  O  O293  1  0.38436683  0.63170940  0.13018551  1
  O  O294  1  0.37240359  0.63963474  0.63478748  1
  O  O295  1  0.88428467  0.13047949  0.12954807  1
  O  O296  1  0.87692098  0.12768108  0.63960616  1
  O  O297  1  0.87530404  0.63031008  0.12941410  1
  O  O298  1  0.84192654  0.62697942  0.63505892  1
  O  O299  1  0.25448035  0.25520031  0.11933868  1
  O  O300  1  0.25849868  0.25681833  0.62511845  1
  O  O301  1  0.25840174  0.75743907  0.12103045  1
  O  O302  1  0.26281670  0.76449339  0.62205475  1
  O  O303  1  0.76353059  0.24122604  0.12847731  1
  O  O304  1  0.73987582  0.25827083  0.61575301  1
  O  O305  1  0.75678121  0.75962846  0.13186856  1
  O  O306  1  0.73673892  0.76322220  0.60706686  1
  O  O307  1  0.24117137  0.24519534  0.37324005  1
  O  O308  1  0.25436414  0.23562034  0.88252730  1
  O  O309  1  0.25697206  0.75461997  0.38488414  1
  O  O310  1  0.25175555  0.74898631  0.88242461  1
  O  O311  1  0.74277204  0.24621976  0.37851234  1
  O  O312  1  0.73930758  0.23649796  0.87285200  1
  O  O313  1  0.74098517  0.74562968  0.38017501  1
  O  O314  1  0.73613476  0.76165002  0.88038468  1
  O  O315  1  -0.00407819  0.11632243  0.01011879  1
  O  O316  1  -0.00550762  0.11644082  0.50523838  1
  O  O317  1  0.01282139  0.61472389  -0.00683751  1
  O  O318  1  -0.01789507  0.62331554  0.50684436  1
  O  O319  1  0.50767759  0.12293160  0.01154828  1
  O  O320  1  0.50489137  0.12147472  0.50331556  1
  O  O321  1  0.50397641  0.61574237  0.00753709  1
  O  O322  1  0.49963084  0.62901704  0.50098258  1
  O  O323  1  0.50134995  0.38019182  0.49328888  1
  O  O324  1  0.48966351  0.38296048  1.00513490  1
  O  O325  1  0.49199669  0.87564692  0.48465259  1
  O  O326  1  0.50565239  0.87455321  0.98814271  1
  O  O327  1  0.99553662  0.38723407  0.49004709  1
  O  O328  1  0.99396409  0.37761416  0.99364072  1
  O  O329  1  1.00012615  0.88661762  0.48711375  1
  O  O330  1  0.99940458  0.88302150  0.99390378  1
  O  O331  1  0.48869211  0.49248718  0.37799280  1
  O  O332  1  0.48784180  0.50269591  0.88353785  1
  O  O333  1  0.49905209  0.99139895  0.37430129  1
  O  O334  1  0.49521953  0.99071708  0.87713444  1
  O  O335  1  0.98455177  0.50331600  0.36690724  1
  O  O336  1  0.98391159  0.48715743  0.88880747  1
  O  O337  1  1.00022423  0.99820626  0.38094949  1
  O  O338  1  0.99897937  0.99181121  0.88169302  1
  O  O339  1  0.00257577  0.00655075  0.11842980  1
  O  O340  1  0.01009870  0.00005810  0.61641769  1
  O  O341  1  -0.00003779  0.50116741  0.11101252  1
  O  O342  1  -0.00219018  0.49868802  0.63687829  1
  O  O343  1  0.50742398  0.00594878  0.12730787  1
  O  O344  1  0.51126287  -0.00006031  0.62557880  1
  O  O345  1  0.49002164  0.50904544  0.11483207  1
  O  O346  1  0.51574443  0.49883597  0.62587902  1
  O  O347  1  0.25588249  0.38485952  0.23775337  1
  O  O348  1  0.25140661  0.38773469  0.74827787  1
  O  O349  1  0.24309420  0.87881175  0.24112866  1
  O  O350  1  0.24713993  0.87882739  0.74104993  1
  O  O351  1  0.73297046  0.36951997  0.24719188  1
  O  O352  1  0.73877535  0.38164413  0.74799499  1
  O  O353  1  0.74457182  0.88031475  0.24394756  1
  O  O354  1  0.74687572  0.88395913  0.74629013  1
  O  O355  1  0.25807377  0.12231261  0.25448056  1
  O  O356  1  0.26304804  0.12197437  0.76289820  1
  O  O357  1  0.26186721  0.61739340  0.24062566  1
  O  O358  1  0.26329080  0.61906061  0.75655397  1
  O  O359  1  0.75542695  0.12108443  0.25753995  1
  O  O360  1  0.75949571  0.11905353  0.75757823  1
  O  O361  1  0.75811544  0.63251440  0.25987123  1
  O  O362  1  0.74283015  0.60703398  0.76585529  1
  O  O363  1  0.36790912  0.12677410  0.36446387  1
  O  O364  1  0.37171294  0.11749198  0.87034741  1
  O  O365  1  0.37786996  0.61033594  0.36191535  1
  O  O366  1  0.37122728  0.61719324  0.87019519  1
  O  O367  1  0.86335925  0.12672931  0.36825672  1
  O  O368  1  0.86827510  0.12043814  0.86998469  1
  O  O369  1  0.86458495  0.61435510  0.36510347  1
  O  O370  1  0.87490998  0.60411422  0.88819343  1
  O  O371  1  0.13655321  0.37749800  0.12065238  1
  O  O372  1  0.12946826  0.36422269  0.63974004  1
  O  O373  1  0.13256563  0.88167862  0.13145947  1
  O  O374  1  0.13700468  0.88481312  0.63248049  1
  O  O375  1  0.62585316  0.38401346  0.11986526  1
  O  O376  1  0.63146966  0.38305407  0.63609855  1
  O  O377  1  0.63056776  0.87774202  0.13103495  1
  O  O378  1  0.63944921  0.89187143  0.63656526  1
  O  O379  1  0.11445362  0.24815178  0.25872944  1
  O  O380  1  0.12413982  0.24706328  0.75478173  1
  O  O381  1  0.11669590  0.76219356  0.23933459  1
  O  O382  1  0.13090983  0.76615519  0.75749756  1
  O  O383  1  0.61156941  0.24424336  0.26356942  1
  O  O384  1  0.62258767  0.25741339  0.76016729  1
  O  O385  1  0.61785544  0.75556219  0.25727677  1
  O  O386  1  0.61871229  0.75395506  0.76018332  1
  O  O387  1  0.37959495  0.24449173  0.24601454  1
  O  O388  1  0.37711008  0.24181987  0.74526914  1
  O  O389  1  0.37946649  0.74080789  0.24119268  1
  O  O390  1  0.38368660  0.74434809  0.74386873  1
  O  O391  1  0.88186512  0.24459947  0.24388905  1
  O  O392  1  0.86833388  0.23777730  0.75668965  1
  O  O393  1  0.88122610  0.73934522  0.24331083  1
  O  O394  1  0.87368263  0.73778444  0.75644971  1
  O  O395  1  0.37093976  0.50411138  0.48440813  1
  O  O396  1  0.38035745  0.49205676  0.99291411  1
  O  O397  1  0.37773555  0.98782929  0.49825149  1
  O  O398  1  0.37968781  1.00380915  0.98809179  1
  O  O399  1  0.87053643  0.49623817  0.48431624  1
  O  O400  1  0.87829524  0.48604879  0.99818248  1
  O  O401  1  0.88544345  0.99654765  0.49768444  1
  O  O402  1  0.88628710  0.99733058  0.99407116  1
  O  O403  1  0.11231626  -0.00269757  0.00734355  1
  O  O404  1  0.11677672  -0.00368256  0.50884678  1
  O  O405  1  0.11969319  0.50679147  -0.00065721  1
  O  O406  1  0.12617582  0.51430346  0.50001572  1
  O  O407  1  0.62185007  0.01126556  0.00773317  1
  O  O408  1  0.62551104  0.00242386  0.51121308  1
  O  O409  1  0.61112535  0.51026768  -0.00767527  1
  O  O410  1  0.62616856  0.49861997  0.51761737  1
  O  O411  1  0.36488780  0.37038079  0.11335727  1
  O  O412  1  0.36536943  0.36475604  0.63239204  1
  O  O413  1  0.36676744  0.86541254  0.13281580  1
  O  O414  1  0.37270993  0.87060667  0.61796204  1
  O  O415  1  0.88025098  0.36404128  0.11064443  1
  O  O416  1  0.85550460  0.37835643  0.62848487  1
  O  O417  1  0.86521439  0.86715206  0.12650444  1
  O  O418  1  0.85945746  0.88272124  0.62631454  1
  O  O419  1  0.13621090  0.13631826  0.36527314  1
  O  O420  1  0.14242271  0.11569237  0.87060828  1
  O  O421  1  0.11563234  0.64769596  0.38966336  1
  O  O422  1  0.13609276  0.63813662  0.88912219  1
  O  O423  1  0.63706022  0.13313872  0.37515147  1
  O  O424  1  0.63170758  0.12858798  0.88387604  1
  O  O425  1  0.63080212  0.63249481  0.36487960  1
  O  O426  1  0.61937278  0.63393438  0.88925837  1
