# generated using pymatgen
data_V85Zn86O256
_symmetry_space_group_name_H-M   'P 1'
_cell_length_a   16.93136304
_cell_length_b   16.93731562
_cell_length_c   16.93140109
_cell_angle_alpha   89.99731499
_cell_angle_beta   90.04455087
_cell_angle_gamma   89.97861919
_symmetry_Int_Tables_number   1
_chemical_formula_structural   V85Zn86O256
_chemical_formula_sum   'V85 Zn86 O256'
_cell_volume   4855.44722631
_cell_formula_units_Z   1
loop_
 _symmetry_equiv_pos_site_id
 _symmetry_equiv_pos_as_xyz
  1  'x, y, z'
loop_
 _atom_site_type_symbol
 _atom_site_label
 _atom_site_symmetry_multiplicity
 _atom_site_fract_x
 _atom_site_fract_y
 _atom_site_fract_z
 _atom_site_occupancy
  V  V0  1  0.50238586  0.87933528  0.87996197  1
  V  V1  1  0.64644643  0.75300203  0.39077241  1
  V  V2  1  0.87059785  0.75657100  0.61182173  1
  V  V3  1  0.62221941  0.12594100  -0.00418712  1
  V  V4  1  -0.00359337  0.50107470  0.00096713  1
  V  V5  1  0.75298668  0.75028098  -0.00124219  1
  V  V6  1  0.25417374  0.49814982  0.25397741  1
  V  V7  1  0.37640329  0.37576996  -0.00397498  1
  V  V8  1  0.62498425  0.50197813  0.63929371  1
  V  V9  1  0.37952016  0.24561312  0.12083325  1
  V  V10  1  0.62745346  0.75203658  0.87506995  1
  V  V11  1  0.64117417  0.62010864  0.50567458  1
  V  V12  1  0.49954762  0.86379518  0.38079464  1
  V  V13  1  0.50384869  0.00101242  0.50501680  1
  V  V14  1  0.72359471  0.24444719  0.49343955  1
  V  V15  1  0.50944181  0.62521836  0.12533919  1
  V  V16  1  -0.00290449  0.37706460  0.86585564  1
  V  V17  1  0.62434748  0.35518920  0.75238956  1
  V  V18  1  0.12881220  0.49194823  0.62432339  1
  V  V19  1  0.86982237  0.61840658  0.26721562  1
  V  V20  1  0.25336135  0.87600214  0.12627790  1
  V  V21  1  0.86866759  0.62610142  0.74778097  1
  V  V22  1  0.24228611  -0.00357532  0.75208966  1
  V  V23  1  0.62975508  0.62097920  0.00070454  1
  V  V24  1  0.37534529  0.39684752  0.49193902  1
  V  V25  1  0.50696628  0.75016706  0.25239022  1
  V  V26  1  0.25161368  0.74912524  0.50090716  1
  V  V27  1  0.37850320  0.50584428  0.86906364  1
  V  V28  1  0.37807941  0.12875429  0.74939214  1
  V  V29  1  0.12151053  0.25189963  0.87210792  1
  V  V30  1  0.75538417  0.88605283  0.62013747  1
  V  V31  1  -0.00204599  0.00093785  -0.00151416  1
  V  V32  1  0.37877344  0.62062699  0.25202164  1
  V  V33  1  0.86014050  0.11819872  0.25521838  1
  V  V34  1  0.12643351  0.87463838  0.24964410  1
  V  V35  1  -0.00253374  0.24909556  0.24903745  1
  V  V36  1  0.49516796  0.11378100  0.11697951  1
  V  V37  1  0.13326069  0.12243577  0.49796196  1
  V  V38  1  -0.00000758  0.12400183  0.62124495  1
  V  V39  1  0.50136167  0.13535631  0.62668445  1
  V  V40  1  0.36434624  0.26320618  0.62927712  1
  V  V41  1  0.74508320  0.13613634  0.87158887  1
  V  V42  1  0.87134494  0.24843472  0.60982594  1
  V  V43  1  0.37815593  0.75006904  0.12378288  1
  V  V44  1  0.86808162  0.49901370  0.86688962  1
  V  V45  1  0.62495918  0.00264879  0.63377099  1
  V  V46  1  0.37439998  0.74803370  0.63349056  1
  V  V47  1  0.12104405  0.62690577  0.00160826  1
  V  V48  1  0.86800247  0.12272892  0.74562416  1
  V  V49  1  0.50014412  0.74850382  0.75210114  1
  V  V50  1  0.00118128  0.62434667  0.62423192  1
  V  V51  1  0.12587187  0.75615962  0.87265018  1
  V  V52  1  -0.00623640  0.87842722  0.37718635  1
  V  V53  1  0.50542664  0.49962211  -0.00219616  1
  V  V54  1  0.39820373  0.14916233  0.28096450  1
  V  V55  1  0.24023362  0.87285773  0.63192293  1
  V  V56  1  0.12466689  0.37514300  0.24991472  1
  V  V57  1  0.60693530  0.37669041  0.25590672  1
  V  V58  1  -0.00319498  0.12481592  0.12773679  1
  V  V59  1  0.12448651  0.00102786  0.12615074  1
  V  V60  1  0.12336260  0.50226236  0.12130142  1
  V  V61  1  -0.01397344  0.37641950  0.37765708  1
  V  V62  1  0.13765840  0.24805606  0.37313317  1
  V  V63  1  0.00283918  0.74167994  0.24341173  1
  V  V64  1  0.37811727  0.00095540  0.88064505  1
  V  V65  1  0.12721239  0.74741230  0.37285242  1
  V  V66  1  0.49826693  0.62429046  0.62183223  1
  V  V67  1  0.75438917  0.87902972  0.13034745  1
  V  V68  1  0.24814206  0.12574676  0.87418553  1
  V  V69  1  0.25173565  0.49633508  0.74887228  1
  V  V70  1  0.36942466  -0.00559378  0.37796505  1
  V  V71  1  0.62782494  -0.00065809  0.12791642  1
  V  V72  1  0.87967392  0.73645550  0.12138804  1
  V  V73  1  0.25398232  0.01337630  0.25378546  1
  V  V74  1  0.25374533  0.62732334  0.87196702  1
  V  V75  1  0.37269188  0.87161200  0.50665527  1
  V  V76  1  0.73863131  0.37934049  0.12623278  1
  V  V77  1  0.74980512  0.37692042  0.62236989  1
  V  V78  1  0.86241903  -0.00013857  0.87191359  1
  V  V79  1  0.00351916  0.75439505  0.74847517  1
  V  V80  1  0.12168348  0.12699823  -0.00031117  1
  V  V81  1  0.24922067  0.37408696  0.12301417  1
  V  V82  1  0.50392150  0.36160960  0.87062060  1
  V  V83  1  0.12629540  0.61923164  0.49768614  1
  V  V84  1  0.00125293  0.88009287  0.86933512  1
  Zn  Zn85  1  0.25556270  0.62073641  0.37654676  1
  Zn  Zn86  1  0.25154079  0.75226854  -0.00050284  1
  Zn  Zn87  1  0.71735377  0.12054126  0.37801520  1
  Zn  Zn88  1  0.86821048  0.25125350  0.12392421  1
  Zn  Zn89  1  0.56790239  0.24530438  0.34833090  1
  Zn  Zn90  1  0.75478918  0.49264034  0.25648243  1
  Zn  Zn91  1  0.12801448  0.37212349  0.74415294  1
  Zn  Zn92  1  -0.02291067  0.50348017  0.48283146  1
  Zn  Zn93  1  -0.00619655  -0.00363837  0.50120395  1
  Zn  Zn94  1  0.24752422  0.25810165  0.50574601  1
  Zn  Zn95  1  0.63278122  0.87895089  0.25834848  1
  Zn  Zn96  1  0.74832450  0.62154865  0.86942732  1
  Zn  Zn97  1  0.74762584  0.25266604  -0.00030597  1
  Zn  Zn98  1  0.87066980  0.37268825  0.00114689  1
  Zn  Zn99  1  0.85192679  -0.00563670  0.37831662  1
  Zn  Zn100  1  0.24702321  0.25200794  -0.00311264  1
  Zn  Zn101  1  0.63678699  0.87919180  0.75482266  1
  Zn  Zn102  1  0.12113302  -0.00367423  0.62557648  1
  Zn  Zn103  1  0.38242250  0.88147281  0.00552332  1
  Zn  Zn104  1  -0.00398811  0.25297222  0.74501769  1
  Zn  Zn105  1  0.45666964  0.45087282  0.34223826  1
  Zn  Zn106  1  0.87669649  0.87528893  0.00132395  1
  Zn  Zn107  1  0.19135275  0.18906905  0.18753858  1
  Zn  Zn108  1  0.18632948  0.18474694  0.68902787  1
  Zn  Zn109  1  0.19050522  0.68515228  0.18464865  1
  Zn  Zn110  1  0.18731586  0.68369251  0.69042925  1
  Zn  Zn111  1  0.67991990  0.19505844  0.18584536  1
  Zn  Zn112  1  0.68927988  0.18398607  0.68291591  1
  Zn  Zn113  1  0.69081702  0.69070202  0.19161601  1
  Zn  Zn114  1  0.68924710  0.69613423  0.68517528  1
  Zn  Zn115  1  0.33419114  0.30375632  0.32239114  1
  Zn  Zn116  1  0.31345624  0.31347745  0.81167347  1
  Zn  Zn117  1  0.31363064  0.80983192  0.31090669  1
  Zn  Zn118  1  0.31488378  0.81529916  0.81369229  1
  Zn  Zn119  1  0.80533314  0.30549791  0.30944752  1
  Zn  Zn120  1  0.81243706  0.31219867  0.80365809  1
  Zn  Zn121  1  0.81758803  0.80840388  0.30713568  1
  Zn  Zn122  1  0.81469154  0.81482058  0.80739107  1
  Zn  Zn123  1  0.19017890  0.43234506  0.43797264  1
  Zn  Zn124  1  0.18665795  0.43848648  0.93431826  1
  Zn  Zn125  1  0.18269754  0.93656122  0.43903795  1
  Zn  Zn126  1  0.18833537  0.93750025  0.93971922  1
  Zn  Zn127  1  0.68781273  0.42530433  0.43611991  1
  Zn  Zn128  1  0.68778581  0.43474079  0.93356890  1
  Zn  Zn129  1  0.68893056  0.93971292  0.44549977  1
  Zn  Zn130  1  0.68529493  0.94009287  0.94603035  1
  Zn  Zn131  1  0.30835858  0.06294717  0.06018166  1
  Zn  Zn132  1  0.31288232  0.06100965  0.56612893  1
  Zn  Zn133  1  0.31314842  0.56348053  0.05940232  1
  Zn  Zn134  1  0.31237126  0.56688165  0.56735093  1
  Zn  Zn135  1  0.81088595  0.06463884  0.06133956  1
  Zn  Zn136  1  0.81064037  0.06321251  0.55093116  1
  Zn  Zn137  1  0.81137692  0.55615907  0.06338052  1
  Zn  Zn138  1  0.80964673  0.56009519  0.56205252  1
  Zn  Zn139  1  0.43845319  0.43954412  0.17398369  1
  Zn  Zn140  1  0.44189405  0.44071290  0.68979363  1
  Zn  Zn141  1  0.44167902  0.93913150  0.19343814  1
  Zn  Zn142  1  0.43617383  0.93729018  0.69416570  1
  Zn  Zn143  1  0.93341213  0.43606265  0.18443821  1
  Zn  Zn144  1  0.91992169  0.45245414  0.65843553  1
  Zn  Zn145  1  0.93510098  0.93585272  0.19067835  1
  Zn  Zn146  1  0.93551106  0.93996061  0.68766862  1
  Zn  Zn147  1  0.06418113  0.06447787  0.31279823  1
  Zn  Zn148  1  0.05806967  0.06566999  0.80820659  1
  Zn  Zn149  1  0.06135206  0.56004860  0.30973108  1
  Zn  Zn150  1  0.06172665  0.56383874  0.81080028  1
  Zn  Zn151  1  0.56368879  0.05434621  0.31555045  1
  Zn  Zn152  1  0.56127148  0.06481154  0.81194914  1
  Zn  Zn153  1  0.61743352  0.54275516  0.33835871  1
  Zn  Zn154  1  0.56222430  0.56651851  0.81186357  1
  Zn  Zn155  1  0.42902877  0.18359386  0.45233789  1
  Zn  Zn156  1  0.43750797  0.18535700  0.94047715  1
  Zn  Zn157  1  0.47335234  0.63870754  0.41349006  1
  Zn  Zn158  1  0.43844650  0.68973425  0.93858730  1
  Zn  Zn159  1  0.94074954  0.18541202  0.43392352  1
  Zn  Zn160  1  0.93251042  0.18984602  0.93647556  1
  Zn  Zn161  1  0.94231942  0.69061418  0.43591783  1
  Zn  Zn162  1  0.93821405  0.68589519  0.93423853  1
  Zn  Zn163  1  0.05757727  0.31535935  0.05887686  1
  Zn  Zn164  1  0.05853568  0.31003100  0.55697393  1
  Zn  Zn165  1  0.06173898  0.81389031  0.06010834  1
  Zn  Zn166  1  0.06282479  0.80956775  0.55895254  1
  Zn  Zn167  1  0.56425484  0.30719535  0.06473626  1
  Zn  Zn168  1  0.55309345  0.31945095  0.56471666  1
  Zn  Zn169  1  0.56707008  0.81419059  0.06174526  1
  Zn  Zn170  1  0.56698180  0.81476735  0.56595145  1
  O  O171  1  0.11921391  0.12018371  0.12121082  1
  O  O172  1  0.11589114  0.12474775  0.61901121  1
  O  O173  1  0.13077683  0.62066637  0.10908933  1
  O  O174  1  0.11962937  0.62258783  0.61590695  1
  O  O175  1  0.61474639  0.11858696  0.12138209  1
  O  O176  1  0.61138153  0.11757515  0.63100219  1
  O  O177  1  0.61681977  0.63279233  0.11778837  1
  O  O178  1  0.62347501  0.62250520  0.62286666  1
  O  O179  1  0.37207320  0.38936510  0.38414335  1
  O  O180  1  0.38324644  0.38334023  0.87836963  1
  O  O181  1  0.38040566  0.87647532  0.38345003  1
  O  O182  1  0.38244938  0.88350969  0.87866360  1
  O  O183  1  0.88771546  0.36857941  0.36596542  1
  O  O184  1  0.88009458  0.38206901  0.87090691  1
  O  O185  1  0.89061783  0.87680011  0.36328778  1
  O  O186  1  0.88287695  0.88389245  0.87522851  1
  O  O187  1  0.25799364  -0.01396062  0.36507390  1
  O  O188  1  0.25392818  0.00472211  0.86976720  1
  O  O189  1  0.24066729  0.50158298  0.35677489  1
  O  O190  1  0.25802338  0.50824110  0.87163876  1
  O  O191  1  0.73831548  0.00793055  0.37446889  1
  O  O192  1  0.76023489  0.00331300  0.87970470  1
  O  O193  1  0.72241186  0.50340382  0.36655078  1
  O  O194  1  0.76445279  0.50110598  0.87513042  1
  O  O195  1  0.24624153  0.49349781  0.12910928  1
  O  O196  1  0.24097675  0.51049164  0.63732770  1
  O  O197  1  0.24694693  0.99450954  0.13348967  1
  O  O198  1  0.24864110  0.98983422  0.63418741  1
  O  O199  1  0.75365580  0.48420777  0.13084208  1
  O  O200  1  0.73955575  0.48526574  0.62462437  1
  O  O201  1  0.74385573  0.98993284  0.12126965  1
  O  O202  1  0.74197659  0.99432052  0.62092003  1
  O  O203  1  0.00573156  0.36771582  0.25322700  1
  O  O204  1  0.00282122  0.37645865  0.76056918  1
  O  O205  1  0.00786750  0.86439571  0.25393158  1
  O  O206  1  -0.00128776  0.87089484  0.76080296  1
  O  O207  1  0.49846591  0.38401353  0.25247369  1
  O  O208  1  0.51374421  0.37963106  0.75827914  1
  O  O209  1  0.50284926  0.86721382  0.26329494  1
  O  O210  1  0.50109955  0.86494401  0.76191341  1
  O  O211  1  0.48544333  0.11483738  0.23826368  1
  O  O212  1  0.48505914  0.12008722  0.74338232  1
  O  O213  1  0.49400252  0.63271516  0.23576074  1
  O  O214  1  0.50556086  0.64095846  0.74132723  1
  O  O215  1  0.99798378  0.13212369  0.24362829  1
  O  O216  1  0.99258462  0.12821890  0.73617220  1
  O  O217  1  0.99305068  0.63577895  0.25266645  1
  O  O218  1  0.99489919  0.63548517  0.74315513  1
  O  O219  1  0.36985334  0.25720488  0.00482313  1
  O  O220  1  0.36585765  0.25221404  0.51927420  1
  O  O221  1  0.37396647  0.75234770  0.01311732  1
  O  O222  1  0.36611350  0.75752200  0.51672218  1
  O  O223  1  0.86981202  0.25345615  0.00398332  1
  O  O224  1  0.87286021  0.24515643  0.50851186  1
  O  O225  1  0.87035290  0.75010777  0.00394325  1
  O  O226  1  0.88450753  0.75145796  0.51427793  1
  O  O227  1  0.12947170  0.24485692  0.49140720  1
  O  O228  1  0.12218480  0.24555756  0.98826298  1
  O  O229  1  0.13066503  0.73775638  0.49505171  1
  O  O230  1  0.12634122  0.74363678  0.99221232  1
  O  O231  1  0.62356764  0.25308161  0.50062153  1
  O  O232  1  0.62613854  0.23173057  1.00342277  1
  O  O233  1  0.62889415  0.74793314  0.49538007  1
  O  O234  1  0.63410372  0.74106664  0.99567558  1
  O  O235  1  0.48599614  0.23798796  0.11862871  1
  O  O236  1  0.48734667  0.23916887  0.62343725  1
  O  O237  1  0.49673850  0.74505507  0.12787795  1
  O  O238  1  0.49313393  0.75090810  0.63458868  1
  O  O239  1  1.00236115  0.24625838  0.13654110  1
  O  O240  1  0.99017306  0.24450470  0.62458933  1
  O  O241  1  0.99265675  0.75490872  0.13167613  1
  O  O242  1  0.99663263  0.74528984  0.63077739  1
  O  O243  1  0.00831569  0.25747538  0.36350489  1
  O  O244  1  0.00484129  0.25768853  0.87133872  1
  O  O245  1  0.00729483  0.75854994  0.36523620  1
  O  O246  1  0.00589374  0.75860058  0.86836723  1
  O  O247  1  0.44511148  0.23089374  0.34930733  1
  O  O248  1  0.49389464  0.26293289  0.87765831  1
  O  O249  1  0.50110149  0.75547328  0.37497866  1
  O  O250  1  0.50517700  0.75476629  0.86935294  1
  O  O251  1  0.23625665  0.12571378  0.50823351  1
  O  O252  1  0.23880247  0.12643349  0.99156726  1
  O  O253  1  0.24401554  0.63082428  0.49694789  1
  O  O254  1  0.24246967  0.62682434  0.98848795  1
  O  O255  1  0.74054665  0.14109505  0.50141831  1
  O  O256  1  0.74261397  0.12591870  0.98939281  1
  O  O257  1  0.74017773  0.63271813  0.51203476  1
  O  O258  1  0.74432763  0.63019656  0.99883325  1
  O  O259  1  0.25490675  0.37852737  0.00846134  1
  O  O260  1  0.26723894  0.37573720  0.50101042  1
  O  O261  1  0.25225470  0.87507004  0.01489627  1
  O  O262  1  0.25268588  0.86895734  0.50975849  1
  O  O263  1  0.74636397  0.37465108  0.01026667  1
  O  O264  1  0.74049923  0.35974496  0.51234910  1
  O  O265  1  0.75302008  0.86553611  0.00882481  1
  O  O266  1  0.74763071  0.87285059  0.51986122  1
  O  O267  1  0.13094213  0.49638197  0.23847390  1
  O  O268  1  0.13374673  0.50014055  0.74336041  1
  O  O269  1  0.13511988  0.99726414  0.24507261  1
  O  O270  1  0.13838297  1.00642444  0.74942141  1
  O  O271  1  0.62419308  0.47923645  0.24006207  1
  O  O272  1  0.62665894  0.50126512  0.74190873  1
  O  O273  1  0.61715230  0.99461757  0.23406526  1
  O  O274  1  0.61869894  0.99674603  0.73777651  1
  O  O275  1  0.36959020  0.00032090  0.26288089  1
  O  O276  1  0.36434037  0.00703909  0.76004255  1
  O  O277  1  0.37031736  0.50690876  0.24460223  1
  O  O278  1  0.37042518  0.49961645  0.76211484  1
  O  O279  1  0.87621678  0.01510384  0.25198990  1
  O  O280  1  0.88006507  0.01293495  0.75880833  1
  O  O281  1  0.87857128  0.51631634  0.24751331  1
  O  O282  1  0.88309322  0.51387440  0.75391582  1
  O  O283  1  0.12175817  0.36646431  0.36572258  1
  O  O284  1  0.11771268  0.36704349  0.87396331  1
  O  O285  1  0.12061858  0.86591514  0.36637489  1
  O  O286  1  0.11959639  0.86378874  0.87961549  1
  O  O287  1  0.61094145  0.36273845  0.36138321  1
  O  O288  1  0.61949087  0.37644698  0.86051265  1
  O  O289  1  0.61772764  0.86419706  0.38063140  1
  O  O290  1  0.62060086  0.87181612  0.87561105  1
  O  O291  1  0.38117918  0.13018785  0.11724231  1
  O  O292  1  0.37811026  0.13199912  0.63394576  1
  O  O293  1  0.38295726  0.63242863  0.12817936  1
  O  O294  1  0.38477467  0.63660717  0.62459786  1
  O  O295  1  0.88046930  0.12568684  0.13569704  1
  O  O296  1  0.87834056  0.12973292  0.62873568  1
  O  O297  1  0.87460119  0.63482329  0.12372517  1
  O  O298  1  0.88326402  0.63958979  0.63017095  1
  O  O299  1  0.25227112  0.25937322  0.11717233  1
  O  O300  1  0.26043189  0.25153518  0.63027427  1
  O  O301  1  0.26002576  0.75850076  0.12537888  1
  O  O302  1  0.25556015  0.75409470  0.62664843  1
  O  O303  1  0.74844930  0.26319565  0.12226466  1
  O  O304  1  0.75206487  0.25267463  0.61325327  1
  O  O305  1  0.75788236  0.75372978  0.11429107  1
  O  O306  1  0.76685878  0.75859155  0.62557833  1
  O  O307  1  0.24062118  0.25310773  0.37425161  1
  O  O308  1  0.24072561  0.24516264  0.87524192  1
  O  O309  1  0.24331395  0.74800192  0.37950396  1
  O  O310  1  0.24367620  0.74614687  0.87553350  1
  O  O311  1  0.74614080  0.24850774  0.39126902  1
  O  O312  1  0.75228510  0.23874797  0.87417255  1
  O  O313  1  0.74415162  0.75820250  0.37983652  1
  O  O314  1  0.74971731  0.75096754  0.88628910  1
  O  O315  1  0.00293279  0.12106575  0.00688227  1
  O  O316  1  0.00955648  0.12848113  0.51027417  1
  O  O317  1  0.00993079  0.61535629  -0.00869663  1
  O  O318  1  0.00749927  0.62073306  0.50579104  1
  O  O319  1  0.50665660  0.12213142  0.00564101  1
  O  O320  1  0.49050282  0.11194643  0.51532950  1
  O  O321  1  0.50944061  0.62132503  0.00398671  1
  O  O322  1  0.51641986  0.63918137  0.52000119  1
  O  O323  1  0.47433683  0.37182278  0.50298308  1
  O  O324  1  0.50001498  0.38334493  0.99305488  1
  O  O325  1  0.49194696  0.87735748  0.49839162  1
  O  O326  1  0.50016204  0.86905873  0.98549691  1
  O  O327  1  1.00164970  0.37407601  0.48012469  1
  O  O328  1  0.99769568  0.38403026  0.98571162  1
  O  O329  1  1.00699019  0.87256620  0.48069275  1
  O  O330  1  0.99904902  0.88159829  0.98722444  1
  O  O331  1  0.51154108  0.53762159  0.37540977  1
  O  O332  1  0.49429826  0.49947805  0.88183151  1
  O  O333  1  0.49309424  0.98331075  0.38541377  1
  O  O334  1  0.49021785  0.99156285  0.86846111  1
  O  O335  1  1.00316768  0.48301251  0.37185308  1
  O  O336  1  0.99374790  0.49484846  0.87978049  1
  O  O337  1  1.00734041  0.98152811  0.36866670  1
  O  O338  1  0.99473496  0.99511442  0.87745105  1
  O  O339  1  0.00515431  0.00330330  0.12057151  1
  O  O340  1  0.00239314  0.00802108  0.62365353  1
  O  O341  1  0.00578951  0.49276698  0.10847186  1
  O  O342  1  0.01578884  0.51862906  0.63684657  1
  O  O343  1  0.50313128  0.00735643  0.12266579  1
  O  O344  1  0.50219149  0.00400668  0.62232579  1
  O  O345  1  0.49596275  0.51175993  0.10606254  1
  O  O346  1  0.50846329  0.51389369  0.63191448  1
  O  O347  1  0.24746144  0.38106418  0.23674027  1
  O  O348  1  0.24672258  0.39156114  0.75806153  1
  O  O349  1  0.24703951  0.87998551  0.23973434  1
  O  O350  1  0.25288375  0.88367177  0.74426587  1
  O  O351  1  0.74047523  0.37166950  0.24072015  1
  O  O352  1  0.73207313  0.36751941  0.74054082  1
  O  O353  1  0.74910532  0.86563502  0.23483684  1
  O  O354  1  0.75117745  0.87081666  0.73236624  1
  O  O355  1  0.26125665  0.11494941  0.24894632  1
  O  O356  1  0.25876675  0.11825924  0.75556560  1
  O  O357  1  0.26063930  0.61521636  0.24524614  1
  O  O358  1  0.24541447  0.61659018  0.76534391  1
  O  O359  1  0.75864983  0.13437116  0.25126261  1
  O  O360  1  0.75597560  0.12457947  0.75678848  1
  O  O361  1  0.76751837  0.62620164  0.24779297  1
  O  O362  1  0.76466870  0.63510286  0.75006107  1
  O  O363  1  0.37144392  0.10304543  0.38157672  1
  O  O364  1  0.36973268  0.12066436  0.86917318  1
  O  O365  1  0.37240444  0.63515399  0.35534647  1
  O  O366  1  0.36700213  0.61840203  0.88144250  1
  O  O367  1  0.87832875  0.12561535  0.35817803  1
  O  O368  1  0.86730062  0.11871399  0.86652040  1
  O  O369  1  0.87812568  0.62602167  0.36659623  1
  O  O370  1  0.87570793  0.61792582  0.86423624  1
  O  O371  1  0.13186882  0.37975281  0.12730457  1
  O  O372  1  0.11729758  0.38852917  0.62289806  1
  O  O373  1  0.13265159  0.88080407  0.12949287  1
  O  O374  1  0.13622518  0.87295521  0.62251482  1
  O  O375  1  0.63206338  0.37465705  0.12851885  1
  O  O376  1  0.62334814  0.38200605  0.63613438  1
  O  O377  1  0.63435894  0.88181234  0.12479521  1
  O  O378  1  0.63597429  0.88307373  0.62978658  1
  O  O379  1  0.12042593  0.25343752  0.25520395  1
  O  O380  1  0.12144816  0.25176808  0.75979889  1
  O  O381  1  0.12021099  0.75135032  0.25085635  1
  O  O382  1  0.11312129  0.74541867  0.75796690  1
  O  O383  1  0.61087965  0.26923947  0.23897007  1
  O  O384  1  0.62013308  0.25715691  0.74538760  1
  O  O385  1  0.62238801  0.74968077  0.26799959  1
  O  O386  1  0.61894025  0.75440672  0.75831563  1
  O  O387  1  0.35560980  0.23970687  0.23016834  1
  O  O388  1  0.37122415  0.24243978  0.74115369  1
  O  O389  1  0.38265746  0.74550281  0.23835625  1
  O  O390  1  0.38222933  0.75415236  0.74187045  1
  O  O391  1  0.88358041  0.23911807  0.24751026  1
  O  O392  1  0.87520740  0.23523272  0.74214140  1
  O  O393  1  0.88382278  0.73802678  0.24164631  1
  O  O394  1  0.88893311  0.74561164  0.74475043  1
  O  O395  1  0.37549353  0.49649179  0.50434294  1
  O  O396  1  0.38279117  0.49565039  0.98950769  1
  O  O397  1  0.37961489  0.99007937  0.49837133  1
  O  O398  1  0.36921334  1.00013595  0.98513334  1
  O  O399  1  0.88997706  0.48814203  0.54905479  1
  O  O400  1  0.88256405  0.49934383  0.98849984  1
  O  O401  1  0.88234974  1.00781141  0.48776023  1
  O  O402  1  0.88236024  1.00077113  0.99039406  1
  O  O403  1  0.11861376  0.00624632  0.00573058  1
  O  O404  1  0.11820698  0.00796943  0.50184163  1
  O  O405  1  0.11857022  0.50767476  0.00051304  1
  O  O406  1  0.12867984  0.50914355  0.50633483  1
  O  O407  1  0.62715902  0.01161071  0.01450148  1
  O  O408  1  0.60834775  -0.00707436  0.51370340  1
  O  O409  1  0.62018353  0.51290951  -0.00841285  1
  O  O410  1  0.62966591  0.51666049  0.51398857  1
  O  O411  1  0.36865790  0.36673924  0.11629116  1
  O  O412  1  0.37749513  0.36488084  0.62953491  1
  O  O413  1  0.37119701  0.86993892  0.12635203  1
  O  O414  1  0.36494252  0.86960165  0.62498951  1
  O  O415  1  0.86217475  0.37179071  0.12337524  1
  O  O416  1  0.85745784  0.35705745  0.64241353  1
  O  O417  1  0.86975249  0.86585497  0.12314349  1
  O  O418  1  0.86948955  0.86710699  0.62724321  1
  O  O419  1  0.11920726  0.13547602  0.38443744  1
  O  O420  1  0.12584597  0.13336655  0.87800145  1
  O  O421  1  0.12538687  0.62886176  0.38184178  1
  O  O422  1  0.13024844  0.63536562  0.88193764  1
  O  O423  1  0.60448058  0.14086579  0.36939673  1
  O  O424  1  0.63408892  0.11617575  0.88202066  1
  O  O425  1  0.62532111  0.64429945  0.39718572  1
  O  O426  1  0.62860806  0.63346171  0.88240573  1
