# generated using pymatgen
data_V85Zn86O256
_symmetry_space_group_name_H-M   'P 1'
_cell_length_a   16.97695571
_cell_length_b   16.98844405
_cell_length_c   16.98414287
_cell_angle_alpha   90.00226387
_cell_angle_beta   89.96431826
_cell_angle_gamma   90.03286917
_symmetry_Int_Tables_number   1
_chemical_formula_structural   V85Zn86O256
_chemical_formula_sum   'V85 Zn86 O256'
_cell_volume   4898.42990951
_cell_formula_units_Z   1
loop_
 _symmetry_equiv_pos_site_id
 _symmetry_equiv_pos_as_xyz
  1  'x, y, z'
loop_
 _atom_site_type_symbol
 _atom_site_label
 _atom_site_symmetry_multiplicity
 _atom_site_fract_x
 _atom_site_fract_y
 _atom_site_fract_z
 _atom_site_occupancy
  V  V0  1  0.68312902  0.31925487  0.70031148  1
  V  V1  1  0.25257985  0.75089846  -0.00203245  1
  V  V2  1  0.37107976  0.12277541  0.25215030  1
  V  V3  1  0.12093748  0.50861852  0.12668500  1
  V  V4  1  0.11796339  0.37783069  0.25974173  1
  V  V5  1  0.62778828  0.24154970  0.38672246  1
  V  V6  1  0.37908352  0.37943778  -0.00079549  1
  V  V7  1  0.50903484  0.75274798  0.24833653  1
  V  V8  1  -0.01158196  0.12724390  0.62761356  1
  V  V9  1  0.51412866  0.12766887  0.62805465  1
  V  V10  1  -0.00002662  0.63708300  0.63185662  1
  V  V11  1  0.50322558  0.87862079  0.86827772  1
  V  V12  1  0.12448493  0.12737140  0.49996218  1
  V  V13  1  0.63408668  0.87546217  0.74510938  1
  V  V14  1  0.12448539  0.62582174  0.50016667  1
  V  V15  1  0.75816849  0.00340743  0.75218610  1
  V  V16  1  0.25025625  0.37267729  0.62689383  1
  V  V17  1  0.62535050  0.74704128  0.87208338  1
  V  V18  1  0.87269257  0.62411616  0.24873754  1
  V  V19  1  0.37350847  0.23861041  0.63136234  1
  V  V20  1  0.87022928  0.49985509  0.37952104  1
  V  V21  1  0.86533306  0.88087580  0.49872251  1
  V  V22  1  0.37633128  0.62481755  0.24948488  1
  V  V23  1  0.75726394  0.50030541  0.74921272  1
  V  V24  1  0.49975759  0.12574293  0.12518003  1
  V  V25  1  0.13344648  0.25075494  0.37352169  1
  V  V26  1  -0.00490516  0.88170728  0.37611689  1
  V  V27  1  0.61545384  0.62494049  0.50054693  1
  V  V28  1  0.49872465  0.00767000  0.49682218  1
  V  V29  1  0.75528693  0.62161391  0.87564477  1
  V  V30  1  0.87188690  0.11406072  0.25292678  1
  V  V31  1  0.75283944  0.12591770  0.88008369  1
  V  V32  1  0.38212358  0.75057623  0.12469458  1
  V  V33  1  0.12312437  0.00265412  0.62346196  1
  V  V34  1  0.38061677  0.74770034  0.62056580  1
  V  V35  1  0.75616481  0.26260091  0.01144339  1
  V  V36  1  0.37864556  0.37267343  0.49924413  1
  V  V37  1  0.38050531  0.00700513  0.86829783  1
  V  V38  1  0.50425251  0.87870003  0.37114874  1
  V  V39  1  0.49446761  0.25204049  0.75566395  1
  V  V40  1  0.11501095  0.87393594  0.74724315  1
  V  V41  1  0.86914528  0.75480979  0.12072463  1
  V  V42  1  0.62221205  0.50682422  0.63322473  1
  V  V43  1  0.12576286  0.75266628  0.86702921  1
  V  V44  1  0.25327316  0.49925372  0.75151607  1
  V  V45  1  0.49722411  0.25469853  0.25944693  1
  V  V46  1  0.62720852  0.25664989  0.88002083  1
  V  V47  1  0.12428662  0.37425782  0.75412039  1
  V  V48  1  -0.00820566  0.87313445  0.88722229  1
  V  V49  1  -0.03415175  0.34531555  0.40030862  1
  V  V50  1  0.37503722  0.88083545  0.49275765  1
  V  V51  1  0.25085912  0.87626939  0.62425931  1
  V  V52  1  0.61438294  0.62071381  -0.00144498  1
  V  V53  1  0.25120288  0.75114894  0.49790227  1
  V  V54  1  0.74572997  0.62486727  0.38125236  1
  V  V55  1  0.62503913  0.37597069  0.26072723  1
  V  V56  1  -0.00609482  0.50083537  0.49950410  1
  V  V57  1  0.12345824  0.75006277  0.37330019  1
  V  V58  1  0.62537040  -0.00273502  0.13707160  1
  V  V59  1  0.24614782  0.24563593  0.00062178  1
  V  V60  1  0.25419269  -0.00082048  0.24833856  1
  V  V61  1  0.12575782  0.50027055  0.62449903  1
  V  V62  1  0.12092828  0.25176201  0.87772202  1
  V  V63  1  0.86672286  0.75190266  0.62830249  1
  V  V64  1  0.24988226  0.87607727  0.12266483  1
  V  V65  1  0.24458783  0.37507577  0.12656765  1
  V  V66  1  -0.00521753  0.25290303  0.75096453  1
  V  V67  1  0.38155476  0.62308880  0.74335522  1
  V  V68  1  0.25483879  0.11561523  0.37512411  1
  V  V69  1  0.25256221  0.00223940  0.74955282  1
  V  V70  1  0.49997205  0.75024743  0.74329681  1
  V  V71  1  0.25143039  0.49922515  0.25437076  1
  V  V72  1  0.63023936  -0.00276044  0.62175620  1
  V  V73  1  0.38453160  0.49493305  0.37559290  1
  V  V74  1  0.38079744  0.87744597  -0.00348615  1
  V  V75  1  0.12370027  0.87393087  0.24607228  1
  V  V76  1  0.36956181  0.24760417  0.12739963  1
  V  V77  1  0.11218368  -0.00478554  0.11693020  1
  V  V78  1  0.25393950  0.62501994  0.87332590  1
  V  V79  1  0.62115810  0.48635782  0.11606081  1
  V  V80  1  0.25272854  0.12373927  0.87085518  1
  V  V81  1  0.94332522  0.45163034  -0.05799094  1
  V  V82  1  0.25112132  0.62442295  0.37610166  1
  V  V83  1  0.10700414  0.11581577  -0.00234414  1
  V  V84  1  -0.00490168  0.74642154  0.24969726  1
  Zn  Zn85  1  0.87898235  0.12622259  0.75880285  1
  Zn  Zn86  1  -0.00584758  0.00105007  0.49748635  1
  Zn  Zn87  1  0.91152632  0.02393942  0.92914626  1
  Zn  Zn88  1  0.49729017  0.61816815  0.12013874  1
  Zn  Zn89  1  -0.03666326  0.58488717  0.07688494  1
  Zn  Zn90  1  0.12432483  0.61850903  -0.00521277  1
  Zn  Zn91  1  0.50626821  0.38383241  0.87351055  1
  Zn  Zn92  1  0.38052274  0.50375409  0.88246629  1
  Zn  Zn93  1  0.50757456  0.00536270  -0.00375180  1
  Zn  Zn94  1  -0.00361107  0.23770796  0.24332033  1
  Zn  Zn95  1  0.86928336  0.25387493  0.13335610  1
  Zn  Zn96  1  0.88206156  0.62798482  0.75754206  1
  Zn  Zn97  1  0.62749460  0.75078442  0.37213926  1
  Zn  Zn98  1  0.74600794  -0.00207304  0.26805308  1
  Zn  Zn99  1  0.74661066  0.87569020  0.13534116  1
  Zn  Zn100  1  0.74709308  0.74968056  0.50117360  1
  Zn  Zn101  1  0.78137072  0.26969517  0.49060087  1
  Zn  Zn102  1  0.74882417  0.49526014  0.24620786  1
  Zn  Zn103  1  0.49955944  0.50028194  0.50567252  1
  Zn  Zn104  1  0.75563840  0.75523519  -0.00489030  1
  Zn  Zn105  1  0.62697859  0.12690121  0.00436845  1
  Zn  Zn106  1  0.25297177  0.24657287  0.50256068  1
  Zn  Zn107  1  0.14605744  0.20566341  0.16111846  1
  Zn  Zn108  1  0.18357794  0.18759535  0.68874404  1
  Zn  Zn109  1  0.19154058  0.69012919  0.18909614  1
  Zn  Zn110  1  0.19197355  0.68830837  0.68579029  1
  Zn  Zn111  1  0.68806932  0.18511708  0.19427592  1
  Zn  Zn112  1  0.74812381  0.13757558  0.62525194  1
  Zn  Zn113  1  0.68783865  0.67822074  0.18522986  1
  Zn  Zn114  1  0.68886050  0.68102252  0.68752780  1
  Zn  Zn115  1  0.30905288  0.31173594  0.31412465  1
  Zn  Zn116  1  0.31345639  0.30998803  0.81389878  1
  Zn  Zn117  1  0.31556593  0.81373113  0.31120257  1
  Zn  Zn118  1  0.31332837  0.81573749  0.80787060  1
  Zn  Zn119  1  0.80375578  0.30504889  0.30434995  1
  Zn  Zn120  1  0.81965297  0.31959609  0.82977830  1
  Zn  Zn121  1  0.80670915  0.81650777  0.31265603  1
  Zn  Zn122  1  0.81255284  0.80937831  0.80923050  1
  Zn  Zn123  1  0.19094889  0.43782904  0.44285526  1
  Zn  Zn124  1  0.18490753  0.43659332  0.94182130  1
  Zn  Zn125  1  0.18339588  0.93792965  0.43554446  1
  Zn  Zn126  1  0.18799848  0.93604561  0.93552721  1
  Zn  Zn127  1  0.68305037  0.43653295  0.43853018  1
  Zn  Zn128  1  0.69022673  0.43814994  0.93506481  1
  Zn  Zn129  1  0.68305718  0.93303246  0.44041480  1
  Zn  Zn130  1  0.73084513  0.95942940  0.96811135  1
  Zn  Zn131  1  0.31128325  0.06081291  0.05905451  1
  Zn  Zn132  1  0.31395543  0.06251765  0.56251217  1
  Zn  Zn133  1  0.30816277  0.56261782  0.06517260  1
  Zn  Zn134  1  0.31353520  0.56134624  0.56183446  1
  Zn  Zn135  1  0.81336352  0.07220256  0.07597214  1
  Zn  Zn136  1  0.77477625  0.09634286  0.42909710  1
  Zn  Zn137  1  0.79775304  0.55998405  0.06062184  1
  Zn  Zn138  1  0.81158433  0.43854361  0.56939705  1
  Zn  Zn139  1  0.43977621  0.43508117  0.18415097  1
  Zn  Zn140  1  0.43913472  0.43448178  0.68907942  1
  Zn  Zn141  1  0.44034912  0.93788720  0.18626792  1
  Zn  Zn142  1  0.43889122  0.93950895  0.68426426  1
  Zn  Zn143  1  0.93654363  0.43284424  0.20129630  1
  Zn  Zn144  1  0.94453990  0.44609256  0.69837762  1
  Zn  Zn145  1  0.93226747  0.93482808  0.18818799  1
  Zn  Zn146  1  0.93679576  0.93436420  0.68343556  1
  Zn  Zn147  1  0.06436312  0.06125643  0.30635375  1
  Zn  Zn148  1  0.06223375  0.05943546  0.81321636  1
  Zn  Zn149  1  0.05847204  0.56276268  0.31450400  1
  Zn  Zn150  1  0.06699772  0.56353896  0.81195072  1
  Zn  Zn151  1  0.55930330  0.06739260  0.31773173  1
  Zn  Zn152  1  0.57091330  0.06904867  0.80907622  1
  Zn  Zn153  1  0.56150329  0.56284427  0.30855913  1
  Zn  Zn154  1  0.56038916  0.55948832  0.81304279  1
  Zn  Zn155  1  0.43631569  0.18738261  0.43926492  1
  Zn  Zn156  1  0.43664792  0.18941365  0.93885731  1
  Zn  Zn157  1  0.43945708  0.68804317  0.43353765  1
  Zn  Zn158  1  0.43968008  0.68930380  0.93339264  1
  Zn  Zn159  1  0.94288154  0.17376062  0.42814042  1
  Zn  Zn160  1  0.93530493  0.19894024  0.93886788  1
  Zn  Zn161  1  0.93366827  0.68828869  0.43991092  1
  Zn  Zn162  1  0.94214778  0.69083530  0.93246286  1
  Zn  Zn163  1  0.02106056  0.33668335  0.08059213  1
  Zn  Zn164  1  -0.04620839  0.31263030  0.57150979  1
  Zn  Zn165  1  0.04851105  0.77700550  0.05004219  1
  Zn  Zn166  1  0.06195288  0.81513305  0.55847820  1
  Zn  Zn167  1  0.56157689  0.30675528  0.06468333  1
  Zn  Zn168  1  0.55791884  0.31665223  0.56487891  1
  Zn  Zn169  1  0.59688233  0.83984091  0.03626816  1
  Zn  Zn170  1  0.56336544  0.81500965  0.55863836  1
  O  O171  1  0.13347334  0.10592421  0.10636372  1
  O  O172  1  0.12190922  0.11794799  0.61748320  1
  O  O173  1  0.13536764  0.61170109  0.12895731  1
  O  O174  1  0.11970754  0.62285308  0.62050877  1
  O  O175  1  0.61198884  0.12332139  0.12876664  1
  O  O176  1  0.61569182  0.11759154  0.62195567  1
  O  O177  1  0.61903937  0.61842087  0.11322582  1
  O  O178  1  0.62611413  0.61424455  0.61721378  1
  O  O179  1  0.36452791  0.38337654  0.38647765  1
  O  O180  1  0.36936403  0.37336668  0.89263861  1
  O  O181  1  0.38063115  0.86975278  0.38819361  1
  O  O182  1  0.38675401  0.88088590  0.87444342  1
  O  O183  1  0.87513214  0.38791975  0.36101183  1
  O  O184  1  0.88143622  0.39483763  0.88608424  1
  O  O185  1  0.88334668  0.86480211  0.39040945  1
  O  O186  1  0.89301364  0.86015993  0.87381130  1
  O  O187  1  0.24329275  0.00539233  0.36346807  1
  O  O188  1  0.25904243  0.00571519  0.87032536  1
  O  O189  1  0.25744288  0.50663862  0.37130041  1
  O  O190  1  0.25366444  0.51009331  0.87128239  1
  O  O191  1  0.73328459  0.00886559  0.38080820  1
  O  O192  1  0.73722107  0.01793665  0.86532732  1
  O  O193  1  0.75595221  0.50575961  0.37176943  1
  O  O194  1  0.74139716  0.51153135  0.86437296  1
  O  O195  1  0.24418527  0.49572239  0.13748467  1
  O  O196  1  0.24547647  0.49329388  0.63046618  1
  O  O197  1  0.24731941  0.99067015  0.12903593  1
  O  O198  1  0.24083398  0.99756655  0.62849946  1
  O  O199  1  0.72703744  0.50494630  0.13092570  1
  O  O200  1  0.73486119  0.49602362  0.63702266  1
  O  O201  1  0.73101823  1.00235514  0.13373425  1
  O  O202  1  0.73331827  1.01557489  0.63536136  1
  O  O203  1  0.01469792  0.37815047  0.27833250  1
  O  O204  1  0.01806723  0.37003527  0.74861264  1
  O  O205  1  0.00181882  0.86665594  0.25861270  1
  O  O206  1  0.01323030  0.87758637  0.75220879  1
  O  O207  1  0.50840168  0.36339737  0.24320535  1
  O  O208  1  0.49179892  0.35798166  0.75482185  1
  O  O209  1  0.48657404  0.86568850  0.26147975  1
  O  O210  1  0.50522948  0.86975783  0.75215736  1
  O  O211  1  0.48784561  0.13266513  0.24575495  1
  O  O212  1  0.50646668  0.13883168  0.74064720  1
  O  O213  1  0.49081530  0.63459360  0.24797156  1
  O  O214  1  0.48665119  0.63317962  0.75172090  1
  O  O215  1  0.98440279  0.12230917  0.25942452  1
  O  O216  1  1.00272557  0.13336697  0.74566315  1
  O  O217  1  0.98457363  0.63360618  0.26026050  1
  O  O218  1  1.00257532  0.62184416  0.73521337  1
  O  O219  1  0.36160631  0.25461303  0.00613742  1
  O  O220  1  0.37270386  0.25630492  0.50964659  1
  O  O221  1  0.36978957  0.75503935  0.00393815  1
  O  O222  1  0.37064223  0.75506560  0.50439256  1
  O  O223  1  0.86017966  0.25081701  0.00460081  1
  O  O224  1  0.90683025  0.27603540  0.47072824  1
  O  O225  1  0.87331731  0.74356512  0.01764606  1
  O  O226  1  0.87401946  0.75450339  0.51181879  1
  O  O227  1  0.13135732  0.23266914  0.49180107  1
  O  O228  1  0.13617905  0.23556708  0.99102873  1
  O  O229  1  0.13227054  0.74593280  0.49379320  1
  O  O230  1  0.14480904  0.75474102  0.98778146  1
  O  O231  1  0.61056986  0.25854272  0.48386071  1
  O  O232  1  0.63226035  0.24736465  0.99546435  1
  O  O233  1  0.62656991  0.73992261  0.50064027  1
  O  O234  1  0.61668470  0.74010931  0.98041731  1
  O  O235  1  0.49171195  0.24053231  0.13463076  1
  O  O236  1  0.49340085  0.24353676  0.63219316  1
  O  O237  1  0.48651001  0.75023062  0.12958876  1
  O  O238  1  0.48688847  0.75571849  0.62624308  1
  O  O239  1  1.04077124  0.24400101  0.13778562  1
  O  O240  1  1.00921070  0.23861785  0.63816283  1
  O  O241  1  0.98638599  0.75218407  0.14264732  1
  O  O242  1  1.00294188  0.73931121  0.62137415  1
  O  O243  1  0.01865271  0.25058263  0.37063859  1
  O  O244  1  0.01603636  0.24683043  0.86987075  1
  O  O245  1  0.00385861  0.75521887  0.36741441  1
  O  O246  1  0.01823551  0.75852793  0.87032123  1
  O  O247  1  0.50084592  0.24717503  0.36344407  1
  O  O248  1  0.50764759  0.24921354  0.86972872  1
  O  O249  1  0.49905935  0.75781808  0.36367855  1
  O  O250  1  0.50346935  0.75827934  0.86300067  1
  O  O251  1  0.24369571  0.12087880  0.49209862  1
  O  O252  1  0.24847851  0.12981041  0.98762191  1
  O  O253  1  0.24464065  0.63047439  0.49515185  1
  O  O254  1  0.25139589  0.63358407  0.99024187  1
  O  O255  1  0.77140424  0.16133154  0.51669921  1
  O  O256  1  0.74717443  0.13786388  0.99150700  1
  O  O257  1  0.73556008  0.62444402  0.48571252  1
  O  O258  1  0.73447178  0.62935836  0.99059723  1
  O  O259  1  0.25245982  0.36442290  0.00776117  1
  O  O260  1  0.25832250  0.37244732  0.51229602  1
  O  O261  1  0.26080561  0.86849378  0.00100645  1
  O  O262  1  0.25594122  0.87252512  0.50355977  1
  O  O263  1  0.74772963  0.36091265  -0.00268331  1
  O  O264  1  0.74983878  0.37486952  0.50158614  1
  O  O265  1  0.71469335  0.85982282  0.02168351  1
  O  O266  1  0.76199178  0.86905294  0.49923154  1
  O  O267  1  0.13267620  0.49679474  0.25208918  1
  O  O268  1  0.13285153  0.49289177  0.74642707  1
  O  O269  1  0.13469810  0.99271866  0.23946214  1
  O  O270  1  0.13154950  0.99320105  0.74198330  1
  O  O271  1  0.62097430  0.48679625  0.24439349  1
  O  O272  1  0.63298453  0.50872387  0.73854280  1
  O  O273  1  0.61769437  1.01129911  0.23935250  1
  O  O274  1  0.62940105  0.99107006  0.74309507  1
  O  O275  1  0.36086258  0.00319585  0.24358619  1
  O  O276  1  0.36947671  -0.00507328  0.76036740  1
  O  O277  1  0.37094944  0.50252883  0.25625119  1
  O  O278  1  0.36898888  0.50903309  0.74633289  1
  O  O279  1  0.87032801  0.00926191  0.24545172  1
  O  O280  1  0.85997935  -0.00758877  0.74546873  1
  O  O281  1  0.87304509  0.50833174  0.25892978  1
  O  O282  1  0.86130145  0.50916780  0.74583545  1
  O  O283  1  0.14060238  0.36308901  0.37258166  1
  O  O284  1  0.14001222  0.36280401  0.86578714  1
  O  O285  1  0.11858658  0.86658249  0.36769373  1
  O  O286  1  0.12363271  0.86954053  0.86460707  1
  O  O287  1  0.61679750  0.37331087  0.36280613  1
  O  O288  1  0.62188600  0.36201019  0.88203727  1
  O  O289  1  0.60714468  0.86757654  0.38209478  1
  O  O290  1  0.61199429  0.86602167  0.86313104  1
  O  O291  1  0.37672844  0.13048861  0.13037787  1
  O  O292  1  0.38118714  0.13589986  0.62233893  1
  O  O293  1  0.37555964  0.63226883  0.12940483  1
  O  O294  1  0.36878145  0.63535303  0.63156234  1
  O  O295  1  0.87602948  0.13589470  0.14269216  1
  O  O296  1  0.88884453  0.12346725  0.63571938  1
  O  O297  1  0.87129377  0.63006477  0.13541348  1
  O  O298  1  0.89377907  0.63969243  0.62515339  1
  O  O299  1  0.24645457  0.25334040  0.11610363  1
  O  O300  1  0.25645823  0.25502568  0.62733401  1
  O  O301  1  0.25961867  0.75504629  0.11630699  1
  O  O302  1  0.25941066  0.75663870  0.61697534  1
  O  O303  1  0.74569985  0.25003147  0.11419801  1
  O  O304  1  0.73794715  0.25570449  0.64846817  1
  O  O305  1  0.76276520  0.74511616  0.12865771  1
  O  O306  1  0.76453761  0.74267823  0.62298892  1
  O  O307  1  0.24538085  0.23743118  0.37906718  1
  O  O308  1  0.24455970  0.24051197  0.87996965  1
  O  O309  1  0.24550382  0.74482602  0.37903334  1
  O  O310  1  0.24899293  0.74614939  0.87903181  1
  O  O311  1  0.73161558  0.25588242  0.37818416  1
  O  O312  1  0.74513243  0.24460741  0.88111516  1
  O  O313  1  0.74689245  0.73902978  0.37680897  1
  O  O314  1  0.73937897  0.74530549  0.87447009  1
  O  O315  1  0.00639941  0.11845768  -0.01298720  1
  O  O316  1  0.00764019  0.12061146  0.50869046  1
  O  O317  1  0.01821881  0.65960504  0.01150926  1
  O  O318  1  0.00582323  0.61939353  0.50838370  1
  O  O319  1  0.49975657  0.12638562  0.01141179  1
  O  O320  1  0.49205878  0.11324467  0.50835270  1
  O  O321  1  0.50974453  0.62550680  -0.00336348  1
  O  O322  1  0.51064202  0.62203451  0.49487886  1
  O  O323  1  0.48210548  0.37994282  0.50666797  1
  O  O324  1  0.48017405  0.36391161  1.00212326  1
  O  O325  1  0.49059112  0.88279232  0.49383595  1
  O  O326  1  0.49873456  0.88039703  0.98496418  1
  O  O327  1  1.01081297  0.38835026  0.48910008  1
  O  O328  1  1.01451766  0.39172638  0.98320927  1
  O  O329  1  0.99393482  0.87557016  0.49076876  1
  O  O330  1  1.00604971  0.86525254  0.98545697  1
  O  O331  1  0.48633077  0.50199905  0.37565452  1
  O  O332  1  0.49206688  0.49529097  0.87065040  1
  O  O333  1  0.50103654  0.99361548  0.38564332  1
  O  O334  1  0.49658065  0.99635642  0.86986888  1
  O  O335  1  0.98883031  0.50588217  0.38777083  1
  O  O336  1  0.99477359  0.51690941  0.88311172  1
  O  O337  1  1.00941478  0.98394325  0.37627387  1
  O  O338  1  0.99971978  0.98145787  0.87304812  1
  O  O339  1  0.01376103  -0.01269297  0.12632565  1
  O  O340  1  0.01143286  0.00672576  0.62647101  1
  O  O341  1  0.01817054  0.50661502  0.14229205  1
  O  O342  1  0.00854886  0.51216541  0.61780395  1
  O  O343  1  0.49922546  0.01493618  0.12440030  1
  O  O344  1  0.50568459  0.00995252  0.62191963  1
  O  O345  1  0.51462115  0.50231834  0.12851005  1
  O  O346  1  0.51713926  0.49364766  0.62828216  1
  O  O347  1  0.24387831  0.38188719  0.24589426  1
  O  O348  1  0.24775043  0.37967468  0.74575861  1
  O  O349  1  0.24592728  0.87969924  0.24460076  1
  O  O350  1  0.24405570  0.88306417  0.74132676  1
  O  O351  1  0.72932283  0.37533681  0.24859443  1
  O  O352  1  0.74706412  0.37965442  0.75813098  1
  O  O353  1  0.74884031  0.88318434  0.24827007  1
  O  O354  1  0.73829618  0.88107264  0.75651620  1
  O  O355  1  0.25388840  0.11433421  0.25807804  1
  O  O356  1  0.24298726  0.11890392  0.76301172  1
  O  O357  1  0.25781844  0.62045072  0.25689811  1
  O  O358  1  0.25979731  0.62116847  0.75515701  1
  O  O359  1  0.76258558  0.12301750  0.25245876  1
  O  O360  1  0.75900503  0.11696856  0.75448831  1
  O  O361  1  0.75818364  0.62145604  0.26084903  1
  O  O362  1  0.75326383  0.61790840  0.75831668  1
  O  O363  1  0.36192601  0.12739915  0.37062492  1
  O  O364  1  0.36800085  0.11630824  0.87747732  1
  O  O365  1  0.36940414  0.61742109  0.37014881  1
  O  O366  1  0.36573320  0.62793902  0.86583617  1
  O  O367  1  0.86997681  0.12156481  0.36438482  1
  O  O368  1  0.86942885  0.12289408  0.87673530  1
  O  O369  1  0.86581354  0.61632317  0.37308033  1
  O  O370  1  0.86033538  0.63878512  0.87426200  1
  O  O371  1  0.12761865  0.39141084  0.14105447  1
  O  O372  1  0.14155813  0.38053915  0.63639698  1
  O  O373  1  0.13467998  0.87595535  0.12926076  1
  O  O374  1  0.12955249  0.88253096  0.62832377  1
  O  O375  1  0.61828333  0.38370806  0.13036307  1
  O  O376  1  0.62628364  0.37815406  0.63551855  1
  O  O377  1  0.60418147  0.89709206  0.13496334  1
  O  O378  1  0.61904460  0.88306887  0.63513433  1
  O  O379  1  0.13617441  0.26299303  0.26277878  1
  O  O380  1  0.12169399  0.25694589  0.75878397  1
  O  O381  1  0.11672532  0.75390748  0.25272181  1
  O  O382  1  0.13834776  0.76160285  0.75674603  1
  O  O383  1  0.61600006  0.25862070  0.25814707  1
  O  O384  1  0.61896763  0.26058966  0.75888447  1
  O  O385  1  0.61089747  0.74321935  0.24657859  1
  O  O386  1  0.62180548  0.75481305  0.75324461  1
  O  O387  1  0.37811622  0.24641428  0.24513038  1
  O  O388  1  0.38046782  0.24842060  0.74316484  1
  O  O389  1  0.37759333  0.74404196  0.24065772  1
  O  O390  1  0.37714827  0.74489088  0.73868946  1
  O  O391  1  0.88016030  0.24288806  0.25296479  1
  O  O392  1  0.89344920  0.25456745  0.76533332  1
  O  O393  1  0.87900681  0.74197654  0.24698241  1
  O  O394  1  0.87600798  0.74942260  0.73284843  1
  O  O395  1  0.37535688  0.49342505  0.49279683  1
  O  O396  1  0.36572551  0.48291243  1.00384204  1
  O  O397  1  0.38350318  0.98942295  0.50774290  1
  O  O398  1  0.37857906  0.99384346  0.98552057  1
  O  O399  1  0.88454135  0.50029952  0.49278688  1
  O  O400  1  0.89243421  0.51337034  1.01416274  1
  O  O401  1  0.87683588  0.97942387  0.50794859  1
  O  O402  1  0.83778270  0.99135899  1.00265537  1
  O  O403  1  0.12927048  0.00486235  0.00428043  1
  O  O404  1  0.12313319  0.00804041  0.50782529  1
  O  O405  1  0.13467562  0.50384356  0.02086285  1
  O  O406  1  0.12038168  0.50761153  0.50574680  1
  O  O407  1  0.62465726  0.00880279  0.01698087  1
  O  O408  1  0.61033570  -0.01020354  0.51357914  1
  O  O409  1  0.62595982  0.50328708  0.00920720  1
  O  O410  1  0.62118564  0.50633918  0.51198444  1
  O  O411  1  0.36559599  0.36771926  0.11796442  1
  O  O412  1  0.36520653  0.36729456  0.62244757  1
  O  O413  1  0.37113995  0.86846439  0.11717826  1
  O  O414  1  0.36957469  0.86864279  0.61541243  1
  O  O415  1  0.91560144  0.35769265  0.12547441  1
  O  O416  1  0.88805988  0.38146642  0.62765723  1
  O  O417  1  0.87156816  0.85718126  0.12877947  1
  O  O418  1  0.88506807  0.85871805  0.61286779  1
  O  O419  1  0.13431217  0.12763930  0.37953742  1
  O  O420  1  0.13281369  0.12764830  0.88045824  1
  O  O421  1  0.13023108  0.63112083  0.38007645  1
  O  O422  1  0.13896973  0.63445234  0.87218754  1
  O  O423  1  0.62012475  0.14213554  0.37813123  1
  O  O424  1  0.63367287  0.13985223  0.87571969  1
  O  O425  1  0.62876438  0.62465111  0.37970992  1
  O  O426  1  0.63035761  0.63165306  0.87600445  1
