# generated using pymatgen
data_V85Zn86O256
_symmetry_space_group_name_H-M   'P 1'
_cell_length_a   16.91733544
_cell_length_b   16.93002442
_cell_length_c   16.92516002
_cell_angle_alpha   89.98928552
_cell_angle_beta   89.99882885
_cell_angle_gamma   89.99359633
_symmetry_Int_Tables_number   1
_chemical_formula_structural   V85Zn86O256
_chemical_formula_sum   'V85 Zn86 O256'
_cell_volume   4847.55023493
_cell_formula_units_Z   1
loop_
 _symmetry_equiv_pos_site_id
 _symmetry_equiv_pos_as_xyz
  1  'x, y, z'
loop_
 _atom_site_type_symbol
 _atom_site_label
 _atom_site_symmetry_multiplicity
 _atom_site_fract_x
 _atom_site_fract_y
 _atom_site_fract_z
 _atom_site_occupancy
  V  V0  1  0.38678447  0.12587005  0.24574736  1
  V  V1  1  0.12230827  0.00324728  0.12584499  1
  V  V2  1  0.87266733  -0.00204917  0.37141960  1
  V  V3  1  0.12336520  0.50939198  0.62795444  1
  V  V4  1  0.62689731  0.37475507  0.75051537  1
  V  V5  1  0.62034382  0.49983389  0.62522956  1
  V  V6  1  0.86709220  -0.00204408  0.87088013  1
  V  V7  1  0.62498054  0.87150108  0.23658818  1
  V  V8  1  -0.00183069  0.00177584  -0.00092395  1
  V  V9  1  0.24213865  -0.00214977  0.74907265  1
  V  V10  1  0.75876308  0.37852005  0.62200308  1
  V  V11  1  0.75990474  0.61891284  0.88315184  1
  V  V12  1  0.74967071  -0.01062759  0.23346052  1
  V  V13  1  0.49383697  0.73980575  0.25199151  1
  V  V14  1  0.12615359  0.75543062  0.87400532  1
  V  V15  1  0.37336577  0.38123587  0.00224646  1
  V  V16  1  0.00085984  -0.00109156  0.49451459  1
  V  V17  1  0.49382267  0.74345694  0.73928504  1
  V  V18  1  -0.00273019  0.75561918  0.25879972  1
  V  V19  1  -0.00524176  0.38083962  0.87225161  1
  V  V20  1  0.50188764  0.87406149  0.37700285  1
  V  V21  1  0.87081679  0.12356321  0.74849116  1
  V  V22  1  0.00369745  0.87762238  0.86705551  1
  V  V23  1  0.87796221  0.37386865  0.00368779  1
  V  V24  1  0.49857867  0.37611983  0.87564837  1
  V  V25  1  0.37725294  -0.00134814  0.87590703  1
  V  V26  1  0.75529753  0.61936333  0.37700695  1
  V  V27  1  0.74326511  0.75495626  0.00303042  1
  V  V28  1  0.37861940  0.00056175  0.37875889  1
  V  V29  1  -0.01915563  0.38285163  0.36910692  1
  V  V30  1  -0.00314605  0.74789268  0.74084100  1
  V  V31  1  0.62476474  0.24729097  0.87595158  1
  V  V32  1  0.75454392  0.24941988  0.00205332  1
  V  V33  1  0.37630421  0.86709939  0.50675209  1
  V  V34  1  0.25109910  0.25066007  0.00129691  1
  V  V35  1  0.25015036  0.12464322  0.87560199  1
  V  V36  1  0.25068649  -0.00024741  0.25248266  1
  V  V37  1  0.24718156  0.37275167  0.13557008  1
  V  V38  1  -0.00421084  0.50376614  -0.00285806  1
  V  V39  1  0.74870011  0.12308714  0.87324463  1
  V  V40  1  0.50067626  0.87229549  0.87540227  1
  V  V41  1  0.12242191  0.49628190  0.13252267  1
  V  V42  1  0.24701395  0.86715230  0.62990792  1
  V  V43  1  -0.00068746  0.62721564  0.12502125  1
  V  V44  1  0.62245574  0.38081380  0.24769759  1
  V  V45  1  0.88052530  0.87219895  0.49752614  1
  V  V46  1  0.63144178  0.12263047  0.49706147  1
  V  V47  1  0.87138385  0.75868087  0.12409349  1
  V  V48  1  0.24906619  0.61681744  0.87151961  1
  V  V49  1  0.51237805  0.50315633  0.00394215  1
  V  V50  1  0.12522658  0.25222158  0.87397370  1
  V  V51  1  0.62580086  0.75019908  0.37772704  1
  V  V52  1  0.62221812  0.12363166  0.01655303  1
  V  V53  1  0.11694173  0.26716524  0.36502188  1
  V  V54  1  0.24658616  0.12871076  0.37698095  1
  V  V55  1  0.75906082  0.50098577  0.75590349  1
  V  V56  1  0.24903852  0.87326951  0.12704771  1
  V  V57  1  0.37428067  0.25104856  0.61848463  1
  V  V58  1  0.37642347  0.12347074  0.74845979  1
  V  V59  1  0.00131310  0.12570687  0.62265079  1
  V  V60  1  0.62150556  0.73544151  0.87559338  1
  V  V61  1  0.75756275  0.87926171  0.63018124  1
  V  V62  1  0.75001000  0.50140630  0.24654945  1
  V  V63  1  0.62262231  0.61302499  0.50163158  1
  V  V64  1  0.50038560  0.24837682  0.74906518  1
  V  V65  1  0.11903656  0.87775304  0.26019975  1
  V  V66  1  0.62887877  0.00115980  0.63124910  1
  V  V67  1  0.62522473  0.25495097  0.37505879  1
  V  V68  1  0.87634377  0.62040831  0.25030051  1
  V  V69  1  0.37530237  0.87398405  0.00354415  1
  V  V70  1  0.13376605  0.37975190  0.74653396  1
  V  V71  1  0.37074554  0.73664874  0.12795099  1
  V  V72  1  0.50394224  0.00187723  0.01532090  1
  V  V73  1  0.38083127  0.50856852  0.37374453  1
  V  V74  1  0.75380082  0.75195577  0.50453072  1
  V  V75  1  0.00071004  0.25191153  0.74829550  1
  V  V76  1  0.51149241  0.62011059  0.12386595  1
  V  V77  1  0.50222298  0.37851216  0.38324802  1
  V  V78  1  -0.01680114  0.13527668  0.13482814  1
  V  V79  1  0.76514884  0.13941346  0.34345270  1
  V  V80  1  0.75826675  0.25181009  0.50260016  1
  V  V81  1  0.74820373  0.38146089  0.12179063  1
  V  V82  1  0.24834800  0.62614718  0.36800827  1
  V  V83  1  0.62919347  0.87339196  0.75266466  1
  V  V84  1  0.11570147  0.62414052  0.49770582  1
  Zn  Zn85  1  0.35609362  0.61712510  0.72828824  1
  Zn  Zn86  1  0.25110224  0.37942812  0.62193123  1
  Zn  Zn87  1  0.12376941  -0.00143642  0.62560220  1
  Zn  Zn88  1  0.38155355  0.24724252  0.12359584  1
  Zn  Zn89  1  -0.01354201  0.49485438  0.50075807  1
  Zn  Zn90  1  0.87012428  0.87763828  0.00179174  1
  Zn  Zn91  1  0.25147166  0.50046975  0.25015430  1
  Zn  Zn92  1  0.48692314  0.62073774  0.61602328  1
  Zn  Zn93  1  0.51117533  0.24512520  0.23905192  1
  Zn  Zn94  1  0.24391574  0.25442309  0.49944251  1
  Zn  Zn95  1  0.37485252  0.38073040  0.50019934  1
  Zn  Zn96  1  0.12343565  0.12782185  0.00365823  1
  Zn  Zn97  1  0.12452545  0.62794366  0.00097448  1
  Zn  Zn98  1  0.88033239  0.25578947  0.62098716  1
  Zn  Zn99  1  0.50211279  0.12417980  0.62215482  1
  Zn  Zn100  1  0.37312145  0.50174369  0.86823182  1
  Zn  Zn101  1  0.25218241  0.74276605  0.50484711  1
  Zn  Zn102  1  0.88204382  0.62780809  0.74360577  1
  Zn  Zn103  1  0.24796309  0.74908423  -0.00057927  1
  Zn  Zn104  1  0.50483584  -0.00116398  0.50185085  1
  Zn  Zn105  1  0.12469737  0.75374124  0.37931788  1
  Zn  Zn106  1  0.12317440  0.12790098  0.49642140  1
  Zn  Zn107  1  0.18902949  0.18580192  0.19081480  1
  Zn  Zn108  1  0.18762047  0.18779688  0.68568752  1
  Zn  Zn109  1  0.18221164  0.68734982  0.18882405  1
  Zn  Zn110  1  0.17818565  0.69026733  0.69101275  1
  Zn  Zn111  1  0.70555171  0.19367322  0.18896625  1
  Zn  Zn112  1  0.68956932  0.18812728  0.68581172  1
  Zn  Zn113  1  0.68747020  0.68841653  0.18698604  1
  Zn  Zn114  1  0.71443546  0.67721210  0.67840996  1
  Zn  Zn115  1  0.31615082  0.31051507  0.31693731  1
  Zn  Zn116  1  0.31495403  0.31275768  0.81201725  1
  Zn  Zn117  1  0.31129291  0.81082603  0.31521604  1
  Zn  Zn118  1  0.31354199  0.80888047  0.81145809  1
  Zn  Zn119  1  0.81288077  0.30790890  0.30319416  1
  Zn  Zn120  1  0.81557549  0.31206175  0.81344970  1
  Zn  Zn121  1  0.81236725  0.81234980  0.31453877  1
  Zn  Zn122  1  0.81233063  0.81053756  0.81621849  1
  Zn  Zn123  1  0.19017446  0.43994661  0.44052121  1
  Zn  Zn124  1  0.18126361  0.43838483  0.94254587  1
  Zn  Zn125  1  0.19106254  0.93822374  0.44174117  1
  Zn  Zn126  1  0.18724487  0.93703117  0.93936423  1
  Zn  Zn127  1  0.80815377  0.43939810  0.44066158  1
  Zn  Zn128  1  0.68631967  0.43791577  0.93709312  1
  Zn  Zn129  1  0.69264859  0.93987555  0.43446144  1
  Zn  Zn130  1  0.68412970  0.93681958  0.94026239  1
  Zn  Zn131  1  0.31249101  0.06046748  0.06362138  1
  Zn  Zn132  1  0.31319203  0.06122798  0.56268504  1
  Zn  Zn133  1  0.30858635  0.56133038  0.05843007  1
  Zn  Zn134  1  0.30659219  0.55979282  0.55604464  1
  Zn  Zn135  1  0.81109779  0.06159075  0.06022133  1
  Zn  Zn136  1  0.81349681  0.06183947  0.56171552  1
  Zn  Zn137  1  0.81357565  0.56440995  0.06282043  1
  Zn  Zn138  1  0.81853116  0.56978367  0.57201923  1
  Zn  Zn139  1  0.43551970  0.43723666  0.19066596  1
  Zn  Zn140  1  0.43521811  0.43922066  0.68795517  1
  Zn  Zn141  1  0.43756222  0.93161738  0.19157349  1
  Zn  Zn142  1  0.43943642  0.93611368  0.68745280  1
  Zn  Zn143  1  0.93803178  0.43382647  0.18850863  1
  Zn  Zn144  1  0.94208199  0.44249258  0.68560584  1
  Zn  Zn145  1  0.93703909  0.94103898  0.18722589  1
  Zn  Zn146  1  0.93907184  0.93833786  0.68690421  1
  Zn  Zn147  1  0.05859498  0.06734561  0.31092223  1
  Zn  Zn148  1  0.06118307  0.06559367  0.81385250  1
  Zn  Zn149  1  0.06037003  0.55927816  0.31449018  1
  Zn  Zn150  1  0.06442428  0.56670727  0.81234350  1
  Zn  Zn151  1  0.57207030  0.05958652  0.31227804  1
  Zn  Zn152  1  0.56284296  0.05944437  0.81619976  1
  Zn  Zn153  1  0.56479757  0.56069755  0.31374477  1
  Zn  Zn154  1  0.55970696  0.56061739  0.81100862  1
  Zn  Zn155  1  0.44356589  0.18576049  0.43511019  1
  Zn  Zn156  1  0.43854738  0.18647709  0.94134068  1
  Zn  Zn157  1  0.43618187  0.68382839  0.44056682  1
  Zn  Zn158  1  0.43390776  0.68536874  0.93781933  1
  Zn  Zn159  1  0.94073832  0.19011673  0.43285494  1
  Zn  Zn160  1  0.93871743  0.18747842  0.93898442  1
  Zn  Zn161  1  0.93567644  0.68669629  0.43876902  1
  Zn  Zn162  1  0.93613823  0.69209821  0.93653143  1
  Zn  Zn163  1  0.06359589  0.31219390  0.06504396  1
  Zn  Zn164  1  0.06268028  0.31626964  0.55349120  1
  Zn  Zn165  1  0.05982919  0.81579082  0.06220784  1
  Zn  Zn166  1  0.06661018  0.81398437  0.56193295  1
  Zn  Zn167  1  0.56294681  0.31189984  0.06485794  1
  Zn  Zn168  1  0.56673408  0.31195652  0.56328065  1
  Zn  Zn169  1  0.55732373  0.80528444  0.05968981  1
  Zn  Zn170  1  0.56804921  0.81393402  0.56322021  1
  O  O171  1  0.12394902  0.11258510  0.12550661  1
  O  O172  1  0.11281362  0.12232226  0.62271378  1
  O  O173  1  0.11557284  0.61906547  0.12203915  1
  O  O174  1  0.12668406  0.61721673  0.61594059  1
  O  O175  1  0.63380015  0.13352588  0.11417923  1
  O  O176  1  0.62651869  0.11707725  0.61977110  1
  O  O177  1  0.61094184  0.62936918  0.12507184  1
  O  O178  1  0.62979027  0.61866957  0.61359699  1
  O  O179  1  0.38685144  0.38017330  0.37550393  1
  O  O180  1  0.38171888  0.37569135  0.88293773  1
  O  O181  1  0.38098400  0.88305231  0.38041791  1
  O  O182  1  0.38014709  0.87747464  0.88312592  1
  O  O183  1  0.87433858  0.37072244  0.37275577  1
  O  O184  1  0.88855485  0.37463204  0.88086224  1
  O  O185  1  0.86948857  0.88418137  0.38546885  1
  O  O186  1  0.88162815  0.88431717  0.87693126  1
  O  O187  1  0.25958317  0.00476603  0.37090183  1
  O  O188  1  0.25675933  0.00349529  0.86971622  1
  O  O189  1  0.25769574  0.50791883  0.37069710  1
  O  O190  1  0.24419197  0.51377320  0.87929510  1
  O  O191  1  0.76004807  0.00928651  0.36759299  1
  O  O192  1  0.76023633  0.00467034  0.88003871  1
  O  O193  1  0.75270537  0.50914622  0.36097380  1
  O  O194  1  0.74833990  0.51014313  0.87387523  1
  O  O195  1  0.24191422  0.49172258  0.12564853  1
  O  O196  1  0.22962274  0.49635850  0.61996455  1
  O  O197  1  0.24205058  0.99511611  0.13239753  1
  O  O198  1  0.24815478  0.99482484  0.63383852  1
  O  O199  1  0.75198581  0.49748428  0.13553974  1
  O  O200  1  0.73960031  0.49273065  0.63648100  1
  O  O201  1  0.75507931  0.99157152  0.13436254  1
  O  O202  1  0.73929581  0.99317645  0.62353591  1
  O  O203  1  -0.00761671  0.37253209  0.26677657  1
  O  O204  1  0.00521785  0.37141709  0.75708897  1
  O  O205  1  0.00778190  0.86909414  0.24481776  1
  O  O206  1  -0.00105705  0.87276139  0.76192509  1
  O  O207  1  0.50987511  0.37363694  0.25588789  1
  O  O208  1  0.50712596  0.36673234  0.75556133  1
  O  O209  1  0.50978322  0.86251832  0.25547681  1
  O  O210  1  0.50553954  0.86422772  0.75524938  1
  O  O211  1  0.48992198  0.12213856  0.25715381  1
  O  O212  1  0.49424578  0.13177756  0.75167063  1
  O  O213  1  0.50450944  0.63357460  0.24433721  1
  O  O214  1  0.50736933  0.63880988  0.74469365  1
  O  O215  1  0.99472597  0.12081500  0.23415040  1
  O  O216  1  0.99329130  0.13095192  0.74336262  1
  O  O217  1  0.99208563  0.63253543  0.24649825  1
  O  O218  1  0.99885651  0.64115224  0.75282657  1
  O  O219  1  0.36517450  0.25897882  -0.00109458  1
  O  O220  1  0.38030162  0.24582220  0.51249298  1
  O  O221  1  0.37493045  0.75760322  0.01069648  1
  O  O222  1  0.37328658  0.76379048  0.49453518  1
  O  O223  1  0.86820843  0.26335099  -0.00834175  1
  O  O224  1  0.86223383  0.24349749  0.50196053  1
  O  O225  1  0.86611324  0.75186848  0.00781301  1
  O  O226  1  0.86564888  0.75836710  0.49602182  1
  O  O227  1  0.12506397  0.24590843  0.48342962  1
  O  O228  1  0.13756849  0.25096621  0.99416287  1
  O  O229  1  0.12611014  0.73959462  0.49880822  1
  O  O230  1  0.12361355  0.75140850  0.98980199  1
  O  O231  1  0.63308089  0.24325419  0.49429350  1
  O  O232  1  0.63191909  0.24488532  0.99185061  1
  O  O233  1  0.63101061  0.74591306  0.48966964  1
  O  O234  1  0.63027522  0.75288906  0.98860078  1
  O  O235  1  0.49509115  0.25051504  0.12668190  1
  O  O236  1  0.49643916  0.24761405  0.63352923  1
  O  O237  1  0.49121882  0.74014970  0.13174574  1
  O  O238  1  0.50659897  0.75035078  0.63753595  1
  O  O239  1  1.00359426  0.23343528  0.11836083  1
  O  O240  1  0.99983520  0.24359966  0.62800339  1
  O  O241  1  0.99253070  0.74524738  0.13181206  1
  O  O242  1  1.00444674  0.76053153  0.64255938  1
  O  O243  1  0.00885767  0.25964049  0.37297245  1
  O  O244  1  0.00711180  0.25717107  0.87058954  1
  O  O245  1  -0.00056406  0.74975093  0.36166145  1
  O  O246  1  0.00581989  0.76159852  0.87441118  1
  O  O247  1  0.51313637  0.25458032  0.37019268  1
  O  O248  1  0.50423526  0.25545350  0.87027112  1
  O  O249  1  0.50572736  0.75097068  0.36844754  1
  O  O250  1  0.50581824  0.75236160  0.87101288  1
  O  O251  1  0.25016600  0.12450176  0.48750106  1
  O  O252  1  0.25079847  0.13333099  0.99533920  1
  O  O253  1  0.23630084  0.62537150  0.48709597  1
  O  O254  1  0.24493320  0.62932945  0.98970198  1
  O  O255  1  0.74153662  0.13309943  0.50345938  1
  O  O256  1  0.74509910  0.13295868  0.99421727  1
  O  O257  1  0.74168978  0.63463515  0.49162812  1
  O  O258  1  0.75181560  0.63058738  0.98902055  1
  O  O259  1  0.25604334  0.36906085  0.00477290  1
  O  O260  1  0.25585522  0.37052336  0.50226260  1
  O  O261  1  0.25781612  0.87510207  0.00933618  1
  O  O262  1  0.25851191  0.87446474  0.51208462  1
  O  O263  1  0.75737860  0.37288993  0.00256135  1
  O  O264  1  0.74860790  0.36645850  0.51088533  1
  O  O265  1  0.75146334  0.85988031  -0.00621268  1
  O  O266  1  0.75978885  0.87142727  0.50479037  1
  O  O267  1  0.12549929  0.50352200  0.23608939  1
  O  O268  1  0.11817763  0.49449478  0.73786279  1
  O  O269  1  0.12734140  0.99469395  0.24478704  1
  O  O270  1  0.13913438  1.00454861  0.75222855  1
  O  O271  1  0.63358364  0.48892589  0.25293298  1
  O  O272  1  0.63092040  0.49234904  0.74538947  1
  O  O273  1  0.62782309  0.97631986  0.25190015  1
  O  O274  1  0.62085163  0.98504587  0.74555073  1
  O  O275  1  0.37395938  0.00531349  0.26077182  1
  O  O276  1  0.37056204  0.00625809  0.75613102  1
  O  O277  1  0.37076385  0.49553421  0.26657289  1
  O  O278  1  0.38473135  0.50940325  0.75628623  1
  O  O279  1  0.85793237  -0.00997837  0.25525050  1
  O  O280  1  0.88157912  0.01083334  0.75962143  1
  O  O281  1  0.86952678  0.51491058  0.24312874  1
  O  O282  1  0.86263082  0.50466293  0.74647369  1
  O  O283  1  0.12453160  0.36894427  0.37032660  1
  O  O284  1  0.11623360  0.37180421  0.86860856  1
  O  O285  1  0.12963261  0.87648751  0.36367704  1
  O  O286  1  0.11587853  0.87030739  0.87910116  1
  O  O287  1  0.61869802  0.36736154  0.36510879  1
  O  O288  1  0.61931386  0.36742905  0.87107974  1
  O  O289  1  0.62093135  0.86545519  0.37311043  1
  O  O290  1  0.61976516  0.86809216  0.86841897  1
  O  O291  1  0.36995316  0.12148122  0.14342408  1
  O  O292  1  0.37952265  0.12924778  0.63225793  1
  O  O293  1  0.37856783  0.63417470  0.12122440  1
  O  O294  1  0.37392664  0.62560960  0.61636956  1
  O  O295  1  0.88409446  0.12550393  0.11928387  1
  O  O296  1  0.88464906  0.12508492  0.63239866  1
  O  O297  1  0.87990453  0.63513412  0.13215153  1
  O  O298  1  0.82488757  0.64686335  0.64761348  1
  O  O299  1  0.25275810  0.25453007  0.11738185  1
  O  O300  1  0.26035722  0.24993716  0.62222266  1
  O  O301  1  0.25502548  0.75436484  0.12579576  1
  O  O302  1  0.24617066  0.76359054  0.62779030  1
  O  O303  1  0.75024209  0.26239883  0.10714203  1
  O  O304  1  0.75104982  0.26030020  0.61919185  1
  O  O305  1  0.75727311  0.74282973  0.11472228  1
  O  O306  1  0.73175485  0.76847384  0.60813735  1
  O  O307  1  0.24275658  0.24282471  0.37631529  1
  O  O308  1  0.24606719  0.24587398  0.88157062  1
  O  O309  1  0.24685434  0.74190348  0.37862324  1
  O  O310  1  0.24090804  0.74771490  0.87715754  1
  O  O311  1  0.74024110  0.24804530  0.38764787  1
  O  O312  1  0.74553577  0.24623598  0.88329810  1
  O  O313  1  0.74224309  0.74431259  0.38174705  1
  O  O314  1  0.74264962  0.73814904  0.88114219  1
  O  O315  1  0.00204433  0.11392958  0.00387737  1
  O  O316  1  -0.00267748  0.11745254  0.50699342  1
  O  O317  1  -0.00293529  0.61851533  0.00479596  1
  O  O318  1  0.01141123  0.62264261  0.49298617  1
  O  O319  1  0.50984814  0.11458016  -0.00372309  1
  O  O320  1  0.51792730  0.12257193  0.49897482  1
  O  O321  1  0.49436450  0.61028465  0.00618132  1
  O  O322  1  0.51887548  0.63062591  0.50018700  1
  O  O323  1  0.50277388  0.37037591  0.48612469  1
  O  O324  1  0.49249499  0.38485038  0.99822161  1
  O  O325  1  0.49471530  0.87604983  0.49590235  1
  O  O326  1  0.49446181  0.88033360  0.99548598  1
  O  O327  1  1.00030698  0.37577659  0.47808398  1
  O  O328  1  0.99400816  0.37975948  0.99459986  1
  O  O329  1  0.98865610  0.88154309  0.50562544  1
  O  O330  1  0.99670266  0.88878318  0.99300470  1
  O  O331  1  0.49081043  0.49402173  0.37112551  1
  O  O332  1  0.50121529  0.49459806  0.88820429  1
  O  O333  1  0.49563655  0.99283661  0.37613258  1
  O  O334  1  0.49351360  0.99066766  0.88118392  1
  O  O335  1  0.99496832  0.48691883  0.37430813  1
  O  O336  1  1.00680977  0.49305310  0.88404656  1
  O  O337  1  0.98372666  1.00813023  0.38033509  1
  O  O338  1  0.99365816  0.99663825  0.88036990  1
  O  O339  1  0.00459034  0.00669232  0.11710645  1
  O  O340  1  0.00158719  0.00742306  0.61633026  1
  O  O341  1  0.00359503  0.50532889  0.12012364  1
  O  O342  1  0.01566266  0.49537434  0.61773897  1
  O  O343  1  0.49590864  -0.00607639  0.11454700  1
  O  O344  1  0.51473953  0.00101445  0.62386849  1
  O  O345  1  0.49222811  0.50601250  0.11357798  1
  O  O346  1  0.51653189  0.50030541  0.62696287  1
  O  O347  1  0.25528048  0.37199175  0.23766897  1
  O  O348  1  0.23639074  0.37181607  0.75068853  1
  O  O349  1  0.24307038  0.88116690  0.24547440  1
  O  O350  1  0.25975548  0.88286844  0.73792544  1
  O  O351  1  0.74772231  0.38391466  0.24056552  1
  O  O352  1  0.74522584  0.38194202  0.74940588  1
  O  O353  1  0.73642859  0.87848904  0.25351341  1
  O  O354  1  0.74276736  0.86751287  0.74170601  1
  O  O355  1  0.26045952  0.11777253  0.26065872  1
  O  O356  1  0.25693925  0.11802992  0.75462751  1
  O  O357  1  0.24333962  0.62524134  0.26332794  1
  O  O358  1  0.24512195  0.63300053  0.76619704  1
  O  O359  1  0.71858413  0.09154307  0.25027657  1
  O  O360  1  0.76350560  0.13038190  0.75438096  1
  O  O361  1  0.75409458  0.62070582  0.25575039  1
  O  O362  1  0.73572073  0.61280936  0.77242577  1
  O  O363  1  0.37139143  0.11763839  0.36945508  1
  O  O364  1  0.36940762  0.12037498  0.86936889  1
  O  O365  1  0.36821236  0.61642439  0.37657487  1
  O  O366  1  0.35675739  0.62581351  0.87710823  1
  O  O367  1  0.86309970  0.11822326  0.38046114  1
  O  O368  1  0.87011286  0.11913074  0.86861689  1
  O  O369  1  0.86249013  0.63400397  0.36506826  1
  O  O370  1  0.86131120  0.62870600  0.87017306  1
  O  O371  1  0.13463017  0.38307035  0.11950637  1
  O  O372  1  0.12465580  0.38011944  0.63312745  1
  O  O373  1  0.12797957  0.88638033  0.13197330  1
  O  O374  1  0.14270652  0.88116560  0.62118414  1
  O  O375  1  0.63916291  0.37323393  0.13136638  1
  O  O376  1  0.63430530  0.38061315  0.63094810  1
  O  O377  1  0.62141651  0.86169407  0.13849369  1
  O  O378  1  0.63263189  0.88343964  0.63271214  1
  O  O379  1  0.12858810  0.24414344  0.26766090  1
  O  O380  1  0.11918552  0.25767424  0.75409123  1
  O  O381  1  0.11383283  0.76092096  0.24965306  1
  O  O382  1  0.11159858  0.75185543  0.76451358  1
  O  O383  1  0.63135740  0.26105241  0.25781435  1
  O  O384  1  0.62104031  0.25390955  0.75591647  1
  O  O385  1  0.62092333  0.75461356  0.26075939  1
  O  O386  1  0.61789201  0.75936807  0.75901698  1
  O  O387  1  0.37749989  0.23237730  0.25268982  1
  O  O388  1  0.38017482  0.24372076  0.74113487  1
  O  O389  1  0.38491843  0.75659244  0.24184898  1
  O  O390  1  0.39174278  0.74524715  0.75362929  1
  O  O391  1  0.80275150  0.20521416  0.26175850  1
  O  O392  1  0.88384594  0.24188390  0.74901705  1
  O  O393  1  0.87808052  0.74493323  0.24375789  1
  O  O394  1  0.89326538  0.75363293  0.75879248  1
  O  O395  1  0.37244137  0.49735656  0.48005489  1
  O  O396  1  0.37725493  0.48917768  0.99455302  1
  O  O397  1  0.37865922  0.99382667  0.48999169  1
  O  O398  1  0.38142308  0.99439700  0.99587769  1
  O  O399  1  0.87180633  0.50742835  0.50201086  1
  O  O400  1  0.88686385  0.49073225  1.00426145  1
  O  O401  1  0.88141993  0.99347107  0.49312700  1
  O  O402  1  0.88125719  0.99922857  0.99063561  1
  O  O403  1  0.11754317  0.00191129  0.00872159  1
  O  O404  1  0.11001317  0.00090812  0.49663059  1
  O  O405  1  0.11090507  0.50147986  0.01113239  1
  O  O406  1  0.12028709  0.51014837  0.50644731  1
  O  O407  1  0.61645454  0.00975887  -0.00176644  1
  O  O408  1  0.62873500  0.00690382  0.50635464  1
  O  O409  1  0.61099839  0.49475679  0.00406175  1
  O  O410  1  0.63251956  0.51324017  0.50590934  1
  O  O411  1  0.36578917  0.37412744  0.11679846  1
  O  O412  1  0.37503278  0.36557446  0.62265633  1
  O  O413  1  0.36896504  0.86638231  0.12219741  1
  O  O414  1  0.36474701  0.88304932  0.61593457  1
  O  O415  1  0.86353600  0.37800276  0.11583973  1
  O  O416  1  0.86281252  0.37427344  0.63388753  1
  O  O417  1  0.87868101  0.86237206  0.12341447  1
  O  O418  1  0.86326785  0.88298016  0.61817016  1
  O  O419  1  0.13494423  0.12426467  0.37465582  1
  O  O420  1  0.13179807  0.13346020  0.87783394  1
  O  O421  1  0.12892062  0.62590296  0.38143041  1
  O  O422  1  0.13268357  0.63468095  0.87877546  1
  O  O423  1  0.63874740  0.13250556  0.37940199  1
  O  O424  1  0.63304531  0.12971709  0.87790471  1
  O  O425  1  0.63402635  0.62901190  0.38277691  1
  O  O426  1  0.62730260  0.63328662  0.87756496  1
