# generated using pymatgen
data_V85Zn86O256
_symmetry_space_group_name_H-M   'P 1'
_cell_length_a   16.92648863
_cell_length_b   16.93348823
_cell_length_c   16.93473195
_cell_angle_alpha   89.95979049
_cell_angle_beta   89.99423916
_cell_angle_gamma   89.91492865
_symmetry_Int_Tables_number   1
_chemical_formula_structural   V85Zn86O256
_chemical_formula_sum   'V85 Zn86 O256'
_cell_volume   4853.90244061
_cell_formula_units_Z   1
loop_
 _symmetry_equiv_pos_site_id
 _symmetry_equiv_pos_as_xyz
  1  'x, y, z'
loop_
 _atom_site_type_symbol
 _atom_site_label
 _atom_site_symmetry_multiplicity
 _atom_site_fract_x
 _atom_site_fract_y
 _atom_site_fract_z
 _atom_site_occupancy
  V  V0  1  0.00824494  0.37421749  0.37330804  1
  V  V1  1  0.25333350  0.50058922  0.75255318  1
  V  V2  1  0.62295032  0.37564927  0.75158718  1
  V  V3  1  0.87565288  0.49818486  0.87610627  1
  V  V4  1  0.37809043  0.73686208  0.13306452  1
  V  V5  1  0.24228327  0.25304387  0.50125346  1
  V  V6  1  0.49737233  0.23529519  0.24654218  1
  V  V7  1  0.25309548  -0.01066070  0.74598081  1
  V  V8  1  0.87645213  0.62519212  0.24919329  1
  V  V9  1  0.49285285  0.50738994  0.00365821  1
  V  V10  1  0.00088049  0.62130354  0.61632570  1
  V  V11  1  0.87762295  0.12327138  0.74983532  1
  V  V12  1  0.62624468  0.61610762  0.01467052  1
  V  V13  1  0.49664836  0.62987609  0.63196633  1
  V  V14  1  0.00128600  0.37511206  0.87475320  1
  V  V15  1  0.37386160  0.37706982  -0.00538380  1
  V  V16  1  0.87678516  0.74962973  0.62374615  1
  V  V17  1  0.88303213  0.86857967  -0.01053150  1
  V  V18  1  0.24294827  0.87590991  0.13263563  1
  V  V19  1  0.62235661  0.12416231  0.50050228  1
  V  V20  1  0.74270428  0.75644852  0.00203319  1
  V  V21  1  0.00747043  0.24230276  0.25080655  1
  V  V22  1  0.49077995  -0.00232453  0.49943848  1
  V  V23  1  0.37688572  0.87732530  0.00678188  1
  V  V24  1  0.74628224  0.62784197  0.37403845  1
  V  V25  1  0.87934189  0.37868083  0.49787437  1
  V  V26  1  0.50078268  0.86914972  0.87538238  1
  V  V27  1  0.37751156  -0.00043303  0.87867845  1
  V  V28  1  0.62260229  0.87211462  0.23752383  1
  V  V29  1  0.62358466  0.62817471  0.49978274  1
  V  V30  1  0.00135516  0.00131716  0.49778661  1
  V  V31  1  0.49980206  0.24921117  0.75110071  1
  V  V32  1  0.87549294  0.25050313  0.62352054  1
  V  V33  1  0.37552231  0.00318605  0.36760865  1
  V  V34  1  0.36803335  0.25568887  0.62546149  1
  V  V35  1  0.50342243  0.87198075  0.37633973  1
  V  V36  1  0.00160618  0.24985700  0.74779781  1
  V  V37  1  0.13098106  0.37660812  0.74437165  1
  V  V38  1  0.49293789  0.50190343  0.49518488  1
  V  V39  1  0.74635755  0.49956053  0.24711720  1
  V  V40  1  0.37039449  0.37767444  0.49776929  1
  V  V41  1  0.86961066  0.75490058  0.12603202  1
  V  V42  1  0.62305595  0.50219640  0.62451975  1
  V  V43  1  0.12480808  0.62197664  -0.00088603  1
  V  V44  1  0.75056968  0.49916451  0.74964919  1
  V  V45  1  0.88242160  0.50106762  0.37683578  1
  V  V46  1  0.11627204  0.87560015  0.75593066  1
  V  V47  1  0.25403668  0.76439793  0.50463693  1
  V  V48  1  0.11743440  0.12307352  0.01031338  1
  V  V49  1  0.24995259  0.75006229  0.00013063  1
  V  V50  1  0.25028694  0.13970056  0.36861118  1
  V  V51  1  0.62255031  -0.00063958  0.62501642  1
  V  V52  1  0.13179380  -0.00460371  0.62034455  1
  V  V53  1  0.12667076  0.49968879  0.61860662  1
  V  V54  1  0.74307576  0.12932060  0.87169848  1
  V  V55  1  0.51561267  0.00956150  0.01183872  1
  V  V56  1  0.24851613  0.12287242  0.87641331  1
  V  V57  1  0.87190620  0.36973418  -0.00011917  1
  V  V58  1  0.00457966  0.49653364  0.00716076  1
  V  V59  1  0.75262447  0.11718472  0.37606999  1
  V  V60  1  0.75038645  0.37579247  0.62292288  1
  V  V61  1  0.12550854  0.24734298  0.87295559  1
  V  V62  1  0.74625761  0.37981103  0.11835223  1
  V  V63  1  0.62024707  0.37863342  0.24794590  1
  V  V64  1  0.26905384  0.62113381  0.37706102  1
  V  V65  1  0.37814459  0.24237016  0.12585736  1
  V  V66  1  0.37572384  0.62571388  0.75627313  1
  V  V67  1  0.69378117  0.19357728  0.04580820  1
  V  V68  1  0.87974435  0.24057292  0.12277327  1
  V  V69  1  0.87722572  0.62384626  0.75212654  1
  V  V70  1  0.24225269  0.38044259  0.12470067  1
  V  V71  1  0.37430111  0.76276617  0.62873827  1
  V  V72  1  0.13081837  0.75240157  0.37172106  1
  V  V73  1  0.74455044  0.75219324  0.49522499  1
  V  V74  1  0.00674921  0.62072797  0.13009030  1
  V  V75  1  0.00561628  0.75908361  0.24989038  1
  V  V76  1  0.62255048  0.25253002  0.37657726  1
  V  V77  1  0.62135121  0.86497702  0.75011421  1
  V  V78  1  0.87723238  0.87483174  0.49613928  1
  V  V79  1  0.37411685  0.12541828  0.75014716  1
  V  V80  1  0.74622177  -0.00736174  0.23691963  1
  V  V81  1  0.24718688  0.00186593  0.25015954  1
  V  V82  1  0.49958229  0.74016001  0.25236318  1
  V  V83  1  0.74934784  0.25002322  0.49744340  1
  V  V84  1  0.74799756  -0.00289810  0.75038306  1
  Zn  Zn85  1  0.74522614  0.62329645  0.87756347  1
  Zn  Zn86  1  0.49790074  0.12585057  0.62380025  1
  Zn  Zn87  1  -0.00457626  0.75505451  0.75566265  1
  Zn  Zn88  1  0.62027442  0.74225905  0.87389422  1
  Zn  Zn89  1  0.11739755  0.75607580  0.88093509  1
  Zn  Zn90  1  0.12503192  0.12773986  0.49713458  1
  Zn  Zn91  1  0.12877714  0.62622458  0.49993489  1
  Zn  Zn92  1  0.25424086  0.51219427  0.24849798  1
  Zn  Zn93  1  0.25209592  0.24969015  -0.00092592  1
  Zn  Zn94  1  0.74839137  0.87411711  0.62353463  1
  Zn  Zn95  1  0.87895369  0.11714397  0.24423697  1
  Zn  Zn96  1  0.62462314  0.24997930  0.87815967  1
  Zn  Zn97  1  0.12011866  0.38676772  0.24179992  1
  Zn  Zn98  1  0.00124071  -0.00394719  -0.00088469  1
  Zn  Zn99  1  0.49237843  0.38187740  0.87177274  1
  Zn  Zn100  1  0.00356070  0.12551053  0.62174293  1
  Zn  Zn101  1  0.00840847  0.87853812  0.37035322  1
  Zn  Zn102  1  0.88087596  -0.00918877  0.86930498  1
  Zn  Zn103  1  0.25374514  0.62184076  0.87793609  1
  Zn  Zn104  1  0.87566823  -0.00300260  0.37149956  1
  Zn  Zn105  1  0.49848831  0.38004845  0.37280017  1
  Zn  Zn106  1  0.11231618  -0.00143987  0.13560348  1
  Zn  Zn107  1  0.19547218  0.19489166  0.18929110  1
  Zn  Zn108  1  0.18811024  0.18190592  0.68543517  1
  Zn  Zn109  1  0.18994683  0.68505982  0.19112272  1
  Zn  Zn110  1  0.19032739  0.68903114  0.68701968  1
  Zn  Zn111  1  0.68882543  0.18745225  0.20607272  1
  Zn  Zn112  1  0.68660857  0.18709789  0.68665992  1
  Zn  Zn113  1  0.68430680  0.69137693  0.18906565  1
  Zn  Zn114  1  0.69130474  0.68688661  0.68481557  1
  Zn  Zn115  1  0.33460043  0.35498926  0.29094843  1
  Zn  Zn116  1  0.30953605  0.31358100  0.81211374  1
  Zn  Zn117  1  0.31651015  0.81709856  0.31564070  1
  Zn  Zn118  1  0.31266125  0.81032662  0.81498022  1
  Zn  Zn119  1  0.81496581  0.31089547  0.30973876  1
  Zn  Zn120  1  0.81093611  0.31037186  0.81309560  1
  Zn  Zn121  1  0.81177506  0.81378501  0.31156283  1
  Zn  Zn122  1  0.80543323  0.80674306  0.81393269  1
  Zn  Zn123  1  0.19077870  0.43967389  0.43705404  1
  Zn  Zn124  1  0.18808495  0.43749816  0.93583314  1
  Zn  Zn125  1  0.18971847  0.93742142  0.43258066  1
  Zn  Zn126  1  0.18836254  0.93914086  0.93857792  1
  Zn  Zn127  1  0.68749415  0.44118705  0.43538907  1
  Zn  Zn128  1  0.68358429  0.44061728  0.93631965  1
  Zn  Zn129  1  0.68212558  0.93513623  0.43461628  1
  Zn  Zn130  1  0.68940109  0.93617825  0.93644958  1
  Zn  Zn131  1  0.31146729  0.06180589  0.06395542  1
  Zn  Zn132  1  0.31220171  0.06734482  0.56111337  1
  Zn  Zn133  1  0.31236911  0.56047012  0.06226123  1
  Zn  Zn134  1  0.30952312  0.56725598  0.56460262  1
  Zn  Zn135  1  0.81640015  0.05356848  0.06117990  1
  Zn  Zn136  1  0.81268995  0.06070307  0.56387416  1
  Zn  Zn137  1  0.81501149  0.56398575  0.06298664  1
  Zn  Zn138  1  0.81357000  0.56268028  0.56076576  1
  Zn  Zn139  1  0.43200007  0.44664469  0.17874381  1
  Zn  Zn140  1  0.43485139  0.44013633  0.68356686  1
  Zn  Zn141  1  0.43593017  0.93948124  0.18795516  1
  Zn  Zn142  1  0.44107652  0.93908836  0.69041657  1
  Zn  Zn143  1  0.93384970  0.43315109  0.18822160  1
  Zn  Zn144  1  0.94241226  0.43876017  0.68547870  1
  Zn  Zn145  1  0.93474845  0.93878229  0.18016977  1
  Zn  Zn146  1  0.93871358  0.93881141  0.68099167  1
  Zn  Zn147  1  0.06840527  0.06559639  0.31597554  1
  Zn  Zn148  1  0.06059341  0.05668432  0.81610397  1
  Zn  Zn149  1  0.07379839  0.56446839  0.31252382  1
  Zn  Zn150  1  0.06235064  0.56516194  0.81323630  1
  Zn  Zn151  1  0.56737539  0.05822811  0.31221029  1
  Zn  Zn152  1  0.56052183  0.05840987  0.81692441  1
  Zn  Zn153  1  0.56378161  0.56296446  0.31389863  1
  Zn  Zn154  1  0.55982955  0.56278257  0.81911003  1
  Zn  Zn155  1  0.43371141  0.18946716  0.43406823  1
  Zn  Zn156  1  0.44044355  0.18870442  0.93887639  1
  Zn  Zn157  1  0.43769902  0.69475050  0.44358860  1
  Zn  Zn158  1  0.43958554  0.68695373  0.94207604  1
  Zn  Zn159  1  0.93822445  0.18780016  0.43351261  1
  Zn  Zn160  1  0.93573445  0.18457818  0.93424297  1
  Zn  Zn161  1  0.93907436  0.69008714  0.43438685  1
  Zn  Zn162  1  0.93860752  0.68793385  0.93645161  1
  Zn  Zn163  1  0.06140778  0.30469690  0.06139115  1
  Zn  Zn164  1  0.06133463  0.31618647  0.56217058  1
  Zn  Zn165  1  0.06214494  0.80973718  0.06623532  1
  Zn  Zn166  1  0.06602832  0.81418204  0.56438851  1
  Zn  Zn167  1  0.55472301  0.32380126  0.06706110  1
  Zn  Zn168  1  0.55814290  0.31382983  0.56529393  1
  Zn  Zn169  1  0.55824625  0.81050536  0.06259746  1
  Zn  Zn170  1  0.55865401  0.81408231  0.56310335  1
  O  O171  1  0.13512713  0.12778650  0.11090566  1
  O  O172  1  0.12326435  0.11034616  0.62223909  1
  O  O173  1  0.11402772  0.62925378  0.11623558  1
  O  O174  1  0.11636003  0.62003333  0.62674634  1
  O  O175  1  0.64261635  0.13928775  0.10989396  1
  O  O176  1  0.62234521  0.11734662  0.61916938  1
  O  O177  1  0.62671051  0.62513778  0.11368069  1
  O  O178  1  0.61710072  0.62309039  0.62096271  1
  O  O179  1  0.38266942  0.36591115  0.39472481  1
  O  O180  1  0.37152806  0.36977452  0.88913659  1
  O  O181  1  0.38862630  0.89088606  0.37101962  1
  O  O182  1  0.38034286  0.87734919  0.88532283  1
  O  O183  1  0.87854901  0.38255561  0.38022870  1
  O  O184  1  0.88084854  0.37792478  0.87923210  1
  O  O185  1  0.87854172  0.87368468  0.38708342  1
  O  O186  1  0.87122497  0.86883973  0.88599799  1
  O  O187  1  0.25868558  0.00498347  0.36891310  1
  O  O188  1  0.25756211  0.00533967  0.86820796  1
  O  O189  1  0.25145988  0.51937804  0.38283497  1
  O  O190  1  0.24413287  0.50316454  0.85922678  1
  O  O191  1  0.75060941  0.00543603  0.37159066  1
  O  O192  1  0.75433454  0.00549878  0.86269912  1
  O  O193  1  0.76032799  0.50702026  0.36842299  1
  O  O194  1  0.75755217  0.49991072  0.86651803  1
  O  O195  1  0.25327745  0.48396531  0.12375671  1
  O  O196  1  0.23783744  0.50838910  0.63876115  1
  O  O197  1  0.25017433  0.99269362  0.13374405  1
  O  O198  1  0.24524277  1.00533409  0.63402604  1
  O  O199  1  0.75852213  0.49168480  0.13575498  1
  O  O200  1  0.74415382  0.49521495  0.62900874  1
  O  O201  1  0.74994000  0.99924882  0.13853991  1
  O  O202  1  0.74303173  0.99812281  0.63492332  1
  O  O203  1  0.00055603  0.36737518  0.25651035  1
  O  O204  1  0.00871422  0.37026324  0.75528765  1
  O  O205  1  -0.00778598  0.86195073  0.25003799  1
  O  O206  1  0.01275899  0.87763658  0.74696104  1
  O  O207  1  0.51433296  0.37616922  0.24825705  1
  O  O208  1  0.50622668  0.37049169  0.74935193  1
  O  O209  1  0.50909777  0.87168281  0.25391365  1
  O  O210  1  0.51036002  0.88021409  0.76107371  1
  O  O211  1  0.50909674  0.13623184  0.25144487  1
  O  O212  1  0.49295976  0.13209021  0.75114175  1
  O  O213  1  0.50793992  0.64033855  0.25463763  1
  O  O214  1  0.49438601  0.61922790  0.73917724  1
  O  O215  1  0.99653887  0.13746919  0.25836921  1
  O  O216  1  0.99228729  0.12989394  0.74750614  1
  O  O217  1  0.99552997  0.63088089  0.24466582  1
  O  O218  1  0.98733960  0.62307527  0.74061271  1
  O  O219  1  0.37742021  0.25755145  0.00798787  1
  O  O220  1  0.36826847  0.25491706  0.50943543  1
  O  O221  1  0.37046911  0.75507872  0.01191374  1
  O  O222  1  0.36449004  0.75052184  0.51453067  1
  O  O223  1  0.88308302  0.25850584  0.00800233  1
  O  O224  1  0.86781430  0.25646576  0.50348577  1
  O  O225  1  0.86653976  0.75308663  0.00497624  1
  O  O226  1  0.86863965  0.75535719  0.50506691  1
  O  O227  1  0.13821494  0.25087746  0.50693155  1
  O  O228  1  0.12817312  0.23866541  0.99103721  1
  O  O229  1  0.13880125  0.75028289  0.49905183  1
  O  O230  1  0.13362562  0.74200506  1.00230884  1
  O  O231  1  0.62909421  0.24581592  0.49751751  1
  O  O232  1  0.62542618  0.25458011  0.99815337  1
  O  O233  1  0.63747214  0.74609164  0.50660582  1
  O  O234  1  0.62921539  0.74014083  1.00296157  1
  O  O235  1  0.48844368  0.25478114  0.13179729  1
  O  O236  1  0.49244002  0.24781132  0.63665952  1
  O  O237  1  0.48495734  0.75350513  0.13335031  1
  O  O238  1  0.48590132  0.74275640  0.61974195  1
  O  O239  1  0.99027209  0.25497341  0.13855508  1
  O  O240  1  0.99306291  0.24853960  0.62988608  1
  O  O241  1  0.99422319  0.74091639  0.13276120  1
  O  O242  1  0.98960328  0.74517510  0.62962145  1
  O  O243  1  -0.00900048  0.26045300  0.35999869  1
  O  O244  1  0.00560959  0.25445465  0.86679848  1
  O  O245  1  0.00867130  0.75082639  0.36594690  1
  O  O246  1  0.00558283  0.74120053  0.86681115  1
  O  O247  1  0.50604027  0.25293966  0.36634028  1
  O  O248  1  0.50207760  0.25439114  0.86187886  1
  O  O249  1  0.49147154  0.76136194  0.36706928  1
  O  O250  1  0.50110282  0.76435491  0.88243668  1
  O  O251  1  0.25031548  0.13567478  0.49103916  1
  O  O252  1  0.24446981  0.12430139  0.98709319  1
  O  O253  1  0.25087499  0.63737743  0.49155933  1
  O  O254  1  0.24209850  0.63010981  1.00140850  1
  O  O255  1  0.74396245  0.12852273  0.49507786  1
  O  O256  1  0.75310630  0.12577808  0.99016763  1
  O  O257  1  0.74678682  0.63219780  0.49333847  1
  O  O258  1  0.73914495  0.62783123  1.00144598  1
  O  O259  1  0.25486995  0.37324422  0.00491326  1
  O  O260  1  0.25749450  0.36596738  0.49675755  1
  O  O261  1  0.25781177  0.86823708  0.00580388  1
  O  O262  1  0.25236848  0.86337942  0.49817379  1
  O  O263  1  0.75637338  0.38343280  0.00777433  1
  O  O264  1  0.75782117  0.37100981  0.50304476  1
  O  O265  1  0.75590008  0.86046167  -0.00270452  1
  O  O266  1  0.75533463  0.86777525  0.49960686  1
  O  O267  1  0.13831206  0.49834172  0.25219361  1
  O  O268  1  0.12858250  0.49331654  0.74434606  1
  O  O269  1  0.14009300  1.00452852  0.25021860  1
  O  O270  1  0.13208177  0.99183947  0.74449037  1
  O  O271  1  0.63798124  0.49408248  0.25629064  1
  O  O272  1  0.62882209  0.49414684  0.74453161  1
  O  O273  1  0.63627324  0.98889615  0.25121221  1
  O  O274  1  0.63091691  0.99263623  0.74497339  1
  O  O275  1  0.36569294  0.00206346  0.25720837  1
  O  O276  1  0.36947423  0.00474335  0.75583530  1
  O  O277  1  0.35919686  0.46437454  0.25842854  1
  O  O278  1  0.36549294  0.50994452  0.74302590  1
  O  O279  1  0.86128400  -0.00398810  0.25214653  1
  O  O280  1  0.86753053  0.00599973  0.74623278  1
  O  O281  1  0.86551129  0.50473236  0.25643288  1
  O  O282  1  0.87163211  0.50477880  0.75355971  1
  O  O283  1  0.10993191  0.38068955  0.37870295  1
  O  O284  1  0.11970945  0.36754390  0.86765029  1
  O  O285  1  0.12498729  0.85927942  0.37856864  1
  O  O286  1  0.12938822  0.87679122  0.86031339  1
  O  O287  1  0.62484160  0.36996440  0.36753306  1
  O  O288  1  0.62713709  0.37311565  0.85976960  1
  O  O289  1  0.60952980  0.88012003  0.36443919  1
  O  O290  1  0.61844714  0.87215646  0.86714358  1
  O  O291  1  0.37050722  0.14311834  0.11976285  1
  O  O292  1  0.37648863  0.13572674  0.63312667  1
  O  O293  1  0.36952967  0.63827929  0.12631487  1
  O  O294  1  0.38132121  0.63333969  0.63401210  1
  O  O295  1  0.86745631  0.13645366  0.12337474  1
  O  O296  1  0.87480453  0.13044914  0.63514684  1
  O  O297  1  0.88599365  0.63258618  0.12906578  1
  O  O298  1  0.88059054  0.62996845  0.62936002  1
  O  O299  1  0.26256822  0.25710140  0.11852802  1
  O  O300  1  0.25841117  0.24500952  0.61749438  1
  O  O301  1  0.25832342  0.75549562  0.12021558  1
  O  O302  1  0.26000297  0.74848280  0.61411353  1
  O  O303  1  0.75118679  0.25254848  0.11633513  1
  O  O304  1  0.75523343  0.25652681  0.61876305  1
  O  O305  1  0.75926620  0.74172208  0.11660669  1
  O  O306  1  0.76231493  0.74952594  0.61499717  1
  O  O307  1  0.25826398  0.24030211  0.38176351  1
  O  O308  1  0.24309787  0.23975439  0.87399562  1
  O  O309  1  0.24999759  0.74776785  0.38557970  1
  O  O310  1  0.24805681  0.74835249  0.89110682  1
  O  O311  1  0.74384158  0.24278017  0.37831539  1
  O  O312  1  0.74525603  0.23838577  0.87091311  1
  O  O313  1  0.75689515  0.74018128  0.38366390  1
  O  O314  1  0.74413510  0.74301827  0.88696243  1
  O  O315  1  0.01563416  0.13006856  -0.00170631  1
  O  O316  1  0.00259223  0.11748206  0.49902128  1
  O  O317  1  0.00465981  0.61648815  0.00896994  1
  O  O318  1  0.00045075  0.63089856  0.51307239  1
  O  O319  1  0.50027264  0.10789476  -0.00827637  1
  O  O320  1  0.50700639  0.11921010  0.49888888  1
  O  O321  1  0.50872235  0.61575412  0.00160322  1
  O  O322  1  0.50337844  0.62140061  0.50945331  1
  O  O323  1  0.49382798  0.38603599  0.50255424  1
  O  O324  1  0.49046488  0.38345375  0.99465853  1
  O  O325  1  0.50543026  0.88554106  0.49026401  1
  O  O326  1  0.49187187  0.88193392  0.99604110  1
  O  O327  1  0.98623510  0.36852826  0.49063335  1
  O  O328  1  0.99577827  0.38058570  0.99629961  1
  O  O329  1  0.99297039  0.88139839  0.49925963  1
  O  O330  1  0.98521444  0.86459261  0.99889943  1
  O  O331  1  0.50505953  0.50114056  0.39126954  1
  O  O332  1  0.50554147  0.49546458  0.89402416  1
  O  O333  1  0.49443093  0.99826945  0.38060444  1
  O  O334  1  0.49392030  0.98854421  0.88264105  1
  O  O335  1  0.98727626  0.49485641  0.36803990  1
  O  O336  1  0.99480180  0.49424069  0.88232286  1
  O  O337  1  0.99965398  0.99804673  0.38437488  1
  O  O338  1  0.99115073  1.00592765  0.88535261  1
  O  O339  1  0.00159947  -0.00324165  0.11388300  1
  O  O340  1  0.00728017  0.00196296  0.61156272  1
  O  O341  1  -0.00770906  0.50724528  0.11856854  1
  O  O342  1  0.01050427  0.51050825  0.62834792  1
  O  O343  1  0.49637237  -0.00209100  0.11058270  1
  O  O344  1  0.50419181  0.00260474  0.61702626  1
  O  O345  1  0.50397679  0.49040969  0.10468057  1
  O  O346  1  0.50542531  0.50972280  0.61725102  1
  O  O347  1  0.23685539  0.35815527  0.22941131  1
  O  O348  1  0.23838413  0.38163858  0.75110135  1
  O  O349  1  0.25572058  0.88518261  0.24256011  1
  O  O350  1  0.24502119  0.88634192  0.75399146  1
  O  O351  1  0.74294194  0.38130374  0.24438900  1
  O  O352  1  0.74412745  0.37883250  0.74181039  1
  O  O353  1  0.73717987  0.88267366  0.25536101  1
  O  O354  1  0.74324737  0.88207469  0.74795306  1
  O  O355  1  0.25134275  0.12333112  0.26218423  1
  O  O356  1  0.25342889  0.11540796  0.76001464  1
  O  O357  1  0.25224328  0.63111399  0.27045944  1
  O  O358  1  0.25730549  0.61995044  0.75377048  1
  O  O359  1  0.75117620  0.10941984  0.25884537  1
  O  O360  1  0.75573951  0.11752188  0.75253061  1
  O  O361  1  0.75314783  0.61941114  0.25634892  1
  O  O362  1  0.76199692  0.61771181  0.74770689  1
  O  O363  1  0.36333459  0.11454278  0.37987262  1
  O  O364  1  0.36752559  0.12165076  0.86997864  1
  O  O365  1  0.36791796  0.62832304  0.38070927  1
  O  O366  1  0.37724563  0.63406291  0.86056435  1
  O  O367  1  0.86142885  0.12265718  0.37410860  1
  O  O368  1  0.86520546  0.12658853  0.86058943  1
  O  O369  1  0.86829573  0.61889822  0.37090432  1
  O  O370  1  0.87235329  0.61667059  0.86667517  1
  O  O371  1  0.13887699  0.36976056  0.11552120  1
  O  O372  1  0.11748209  0.38555962  0.63486604  1
  O  O373  1  0.13952314  0.87578282  0.11938471  1
  O  O374  1  0.12385783  0.88796774  0.63581457  1
  O  O375  1  0.63848833  0.37065572  0.13318544  1
  O  O376  1  0.62906290  0.38027681  0.63379791  1
  O  O377  1  0.62099639  0.87255536  0.13833631  1
  O  O378  1  0.62473213  0.88174436  0.63225234  1
  O  O379  1  0.10876775  0.25202615  0.24364198  1
  O  O380  1  0.12208210  0.25669611  0.75121857  1
  O  O381  1  0.11667747  0.74680455  0.25692297  1
  O  O382  1  0.12881785  0.76836414  0.74675773  1
  O  O383  1  0.61790148  0.25967213  0.25639041  1
  O  O384  1  0.61596087  0.25825863  0.74652040  1
  O  O385  1  0.61762650  0.76323592  0.24976508  1
  O  O386  1  0.63134141  0.76127946  0.74917507  1
  O  O387  1  0.38529698  0.26019224  0.23591759  1
  O  O388  1  0.37925631  0.24777069  0.74425931  1
  O  O389  1  0.38209282  0.75618171  0.23891957  1
  O  O390  1  0.36586887  0.74294783  0.73661777  1
  O  O391  1  0.88032748  0.24629112  0.23944474  1
  O  O392  1  0.87998956  0.24375637  0.74311297  1
  O  O393  1  0.87879319  0.74357118  0.24345760  1
  O  O394  1  0.87137538  0.74166755  0.74075622  1
  O  O395  1  0.38209121  0.49135801  0.51286523  1
  O  O396  1  0.38432089  0.49609632  0.99979477  1
  O  O397  1  0.38679315  1.00510012  0.49532009  1
  O  O398  1  0.37554645  0.99074957  0.99560397  1
  O  O399  1  0.86993105  0.49037046  0.49050156  1
  O  O400  1  0.88523857  0.49302292  0.99610073  1
  O  O401  1  0.88216000  0.99166295  0.49997116  1
  O  O402  1  0.86903384  0.97635787  0.99762727  1
  O  O403  1  0.12778419  0.01461011  0.00099200  1
  O  O404  1  0.12009622  -0.00178714  0.50512086  1
  O  O405  1  0.11242104  0.50500347  -0.00242691  1
  O  O406  1  0.13038897  0.50295502  0.51491195  1
  O  O407  1  0.61490300  -0.00542910  -0.00084118  1
  O  O408  1  0.61708612  0.00487258  0.50587912  1
  O  O409  1  0.61943555  0.51105913  0.00220188  1
  O  O410  1  0.62012626  0.50734931  0.50725348  1
  O  O411  1  0.36490571  0.36781088  0.11039123  1
  O  O412  1  0.37894186  0.36232455  0.61720272  1
  O  O413  1  0.36685705  0.86981320  0.11694912  1
  O  O414  1  0.37979116  0.86159689  0.63246726  1
  O  O415  1  0.86228997  0.36376762  0.12170021  1
  O  O416  1  0.87207308  0.37259779  0.61634456  1
  O  O417  1  0.87557316  0.85869756  0.11412141  1
  O  O418  1  0.87313856  0.86671408  0.61440563  1
  O  O419  1  0.14534541  0.12360867  0.38005739  1
  O  O420  1  0.13283775  0.12909115  0.87760493  1
  O  O421  1  0.12835432  0.64011976  0.38250002  1
  O  O422  1  0.12650938  0.62530317  0.88978595  1
  O  O423  1  0.63583936  0.12999391  0.38027817  1
  O  O424  1  0.63803945  0.12594788  0.86759475  1
  O  O425  1  0.63943167  0.62100319  0.38299891  1
  O  O426  1  0.62615577  0.62610845  0.88729317  1
