# generated using pymatgen
data_V85Zn86O256
_symmetry_space_group_name_H-M   'P 1'
_cell_length_a   16.91815066
_cell_length_b   16.91832734
_cell_length_c   16.91646998
_cell_angle_alpha   90.00171550
_cell_angle_beta   89.99753191
_cell_angle_gamma   89.94784873
_symmetry_Int_Tables_number   1
_chemical_formula_structural   V85Zn86O256
_chemical_formula_sum   'V85 Zn86 O256'
_cell_volume   4841.94524074
_cell_formula_units_Z   1
loop_
 _symmetry_equiv_pos_site_id
 _symmetry_equiv_pos_as_xyz
  1  'x, y, z'
loop_
 _atom_site_type_symbol
 _atom_site_label
 _atom_site_symmetry_multiplicity
 _atom_site_fract_x
 _atom_site_fract_y
 _atom_site_fract_z
 _atom_site_occupancy
  V  V0  1  0.87135452  0.37388452  0.49416549  1
  V  V1  1  0.00300195  0.86615189  0.37691543  1
  V  V2  1  0.50434610  0.62846169  0.60964699  1
  V  V3  1  0.00046352  0.25225443  0.75114690  1
  V  V4  1  0.87472367  -0.00136774  0.37689665  1
  V  V5  1  0.62244505  0.26114993  0.87681180  1
  V  V6  1  0.25792557  0.25527026  -0.00222506  1
  V  V7  1  0.36955266  0.74911162  0.12345703  1
  V  V8  1  0.74915078  0.12654903  0.37727626  1
  V  V9  1  0.76040792  0.62538063  0.87759134  1
  V  V10  1  0.62889657  0.74968846  0.86760358  1
  V  V11  1  0.87981927  0.24652815  0.12009968  1
  V  V12  1  0.25507318  0.37752208  0.12289620  1
  V  V13  1  0.50193175  0.12315292  0.62214174  1
  V  V14  1  0.74944207  0.00046032  0.25049222  1
  V  V15  1  0.62116499  0.25973632  0.37815199  1
  V  V16  1  0.00370063  0.74962724  0.74730603  1
  V  V17  1  0.24574652  0.00046812  0.24520739  1
  V  V18  1  0.62485119  -0.01404222  0.62629829  1
  V  V19  1  0.62601545  0.62804268  0.00040873  1
  V  V20  1  0.00672708  0.24667508  0.25160053  1
  V  V21  1  -0.00158805  0.49767051  -0.01431574  1
  V  V22  1  0.75441796  0.62463921  0.38260409  1
  V  V23  1  0.62121631  0.87431146  0.25069156  1
  V  V24  1  0.50629736  0.87256489  0.86904219  1
  V  V25  1  0.25062766  0.49974603  0.74847569  1
  V  V26  1  0.88180787  0.62353886  0.75268457  1
  V  V27  1  0.82144082  0.45110195  0.81812300  1
  V  V28  1  0.50391643  0.26749764  0.75023822  1
  V  V29  1  0.11984715  0.63433975  0.49989829  1
  V  V30  1  0.62389398  0.74643702  0.37976511  1
  V  V31  1  0.75745246  0.86781444  0.12474970  1
  V  V32  1  0.87410504  0.11632661  0.75433551  1
  V  V33  1  0.12610609  0.62813947  0.00134499  1
  V  V34  1  0.37973844  0.00109917  0.37455778  1
  V  V35  1  0.24157966  0.12742173  0.37286390  1
  V  V36  1  0.86773214  0.87309358  0.50614147  1
  V  V37  1  -0.00042982  0.12363278  0.62430421  1
  V  V38  1  0.12914999  -0.00560544  0.62219575  1
  V  V39  1  0.49681351  0.25869763  0.25456073  1
  V  V40  1  0.24290617  0.87682067  0.11855350  1
  V  V41  1  0.74768193  -0.01409171  0.74955525  1
  V  V42  1  0.49918425  0.62547161  0.12506963  1
  V  V43  1  0.37658836  -0.00110707  0.87463696  1
  V  V44  1  0.75203218  0.36957970  0.12706614  1
  V  V45  1  0.25019653  0.12561782  0.87352162  1
  V  V46  1  0.62981382  0.12763366  -0.00132548  1
  V  V47  1  0.25335738  -0.00642543  0.74344233  1
  V  V48  1  0.36239662  0.75328865  0.62405018  1
  V  V49  1  0.37959682  0.62640787  0.74847266  1
  V  V50  1  0.37253255  0.62356551  0.25242673  1
  V  V51  1  0.12048956  0.49916175  0.12710981  1
  V  V52  1  0.00877596  0.37094897  0.37609277  1
  V  V53  1  0.37180548  0.88473435  0.50734687  1
  V  V54  1  0.37924996  0.12683348  0.74895782  1
  V  V55  1  0.24266172  0.25476288  0.49470951  1
  V  V56  1  0.50015017  -0.00105795  -0.00037691  1
  V  V57  1  0.12444606  0.11983788  0.01075044  1
  V  V58  1  -0.00195891  0.00274792  0.01553185  1
  V  V59  1  0.87884397  0.37591503  0.00146105  1
  V  V60  1  0.74308304  0.74790712  0.51403234  1
  V  V61  1  0.13011202  0.75282459  0.87674186  1
  V  V62  1  -0.00118617  -0.00151753  0.49978341  1
  V  V63  1  0.87360736  0.62889071  0.24633894  1
  V  V64  1  0.12806854  0.86929514  0.25419591  1
  V  V65  1  0.87350790  0.74633648  0.62764448  1
  V  V66  1  0.49735672  0.12825732  0.12531101  1
  V  V67  1  -0.00329152  0.50410923  0.49350086  1
  V  V68  1  0.25403122  0.62716003  0.87990724  1
  V  V69  1  0.24218992  0.63217926  0.37499545  1
  V  V70  1  0.12081520  0.50582377  0.62234644  1
  V  V71  1  0.50270307  0.49095991  0.49028198  1
  V  V72  1  0.37254057  0.86791599  -0.00118709  1
  V  V73  1  0.62663400  0.49955178  0.12949007  1
  V  V74  1  0.62130943  0.12008432  0.50131518  1
  V  V75  1  -0.00351565  0.75058426  0.24195314  1
  V  V76  1  0.12343893  0.37521932  0.75155316  1
  V  V77  1  0.11990232  0.25138783  0.87693287  1
  V  V78  1  0.37927795  0.48708553  0.87643982  1
  V  V79  1  0.49802426  0.48867083  -0.00227535  1
  V  V80  1  0.62470222  -0.00000741  0.12526337  1
  V  V81  1  -0.00181659  0.88772376  0.87138020  1
  V  V82  1  0.74920731  0.11956976  0.87565118  1
  V  V83  1  0.88014716  0.12568201  0.24629086  1
  V  V84  1  0.75736790  0.49724608  0.26016658  1
  Zn  Zn85  1  0.50058764  0.87868203  0.38041454  1
  Zn  Zn86  1  0.50458326  0.75385031  0.74384840  1
  Zn  Zn87  1  0.25134958  0.37477221  0.62224046  1
  Zn  Zn88  1  0.37396759  0.25273376  0.62151650  1
  Zn  Zn89  1  0.87826219  0.87354953  -0.00087908  1
  Zn  Zn90  1  0.37900593  0.37168105  0.49450418  1
  Zn  Zn91  1  0.11995326  0.12743836  0.49274750  1
  Zn  Zn92  1  -0.00805575  0.62907414  0.11831735  1
  Zn  Zn93  1  0.62356238  0.37945413  0.25904946  1
  Zn  Zn94  1  0.37364996  0.49692690  0.37653454  1
  Zn  Zn95  1  0.24162416  0.75952825  0.49772869  1
  Zn  Zn96  1  0.37841269  0.25824343  0.12148339  1
  Zn  Zn97  1  0.37343569  0.12775703  0.24926062  1
  Zn  Zn98  1  0.74830646  0.24834279  0.50925192  1
  Zn  Zn99  1  0.24649500  0.49857067  0.25295190  1
  Zn  Zn100  1  0.13197701  0.87278368  0.74597942  1
  Zn  Zn101  1  0.49837449  0.75047803  0.25266749  1
  Zn  Zn102  1  0.12684476  0.37170712  0.25177901  1
  Zn  Zn103  1  0.74561252  0.37531035  0.63822368  1
  Zn  Zn104  1  0.62335410  0.48680085  0.63644544  1
  Zn  Zn105  1  0.87364381  0.25025716  0.62413727  1
  Zn  Zn106  1  0.76672668  0.74224752  0.00832281  1
  Zn  Zn107  1  0.19096946  0.18956575  0.18501723  1
  Zn  Zn108  1  0.18801745  0.18491128  0.68228125  1
  Zn  Zn109  1  0.18696775  0.69020650  0.18656823  1
  Zn  Zn110  1  0.18769906  0.68334030  0.68725364  1
  Zn  Zn111  1  0.68751171  0.19034527  0.19060583  1
  Zn  Zn112  1  0.68639900  0.19038942  0.68894912  1
  Zn  Zn113  1  0.68726129  0.68692490  0.19240261  1
  Zn  Zn114  1  0.67530731  0.64889979  0.70421471  1
  Zn  Zn115  1  0.31331922  0.31534068  0.31361170  1
  Zn  Zn116  1  0.31096019  0.31188002  0.80938708  1
  Zn  Zn117  1  0.31313448  0.81249665  0.31458293  1
  Zn  Zn118  1  0.31431119  0.81101875  0.81288601  1
  Zn  Zn119  1  0.81657094  0.31182733  0.31754680  1
  Zn  Zn120  1  0.81280014  0.28901136  0.81832366  1
  Zn  Zn121  1  0.81153658  0.80969415  0.31530718  1
  Zn  Zn122  1  0.81672749  0.80877566  0.81940094  1
  Zn  Zn123  1  0.18801826  0.44326505  0.43451883  1
  Zn  Zn124  1  0.18661317  0.43865528  0.93587803  1
  Zn  Zn125  1  0.18949092  0.94010030  0.43532890  1
  Zn  Zn126  1  0.18734815  0.93981083  0.93538872  1
  Zn  Zn127  1  0.70200356  0.46080060  0.47285127  1
  Zn  Zn128  1  0.68731489  0.43619741  0.94871381  1
  Zn  Zn129  1  0.68618664  0.93587074  0.44043053  1
  Zn  Zn130  1  0.68874340  0.93694301  0.93851041  1
  Zn  Zn131  1  0.31217690  0.06191504  0.06128793  1
  Zn  Zn132  1  0.31173669  0.06874820  0.55933623  1
  Zn  Zn133  1  0.31186897  0.55947426  0.06068945  1
  Zn  Zn134  1  0.31098218  0.56315066  0.55886150  1
  Zn  Zn135  1  0.81363130  0.05902033  0.06319323  1
  Zn  Zn136  1  0.80933096  0.06124832  0.56707552  1
  Zn  Zn137  1  0.81394180  0.55662351  0.06561594  1
  Zn  Zn138  1  0.81559300  0.56143185  0.56851892  1
  Zn  Zn139  1  0.43647467  0.43912011  0.18748587  1
  Zn  Zn140  1  0.43355992  0.44116662  0.67714240  1
  Zn  Zn141  1  0.43463280  0.93879173  0.18797081  1
  Zn  Zn142  1  0.44066877  0.93808537  0.68476509  1
  Zn  Zn143  1  0.93913844  0.43846803  0.18918769  1
  Zn  Zn144  1  0.94267596  0.43187916  0.67508659  1
  Zn  Zn145  1  0.93931390  0.93880290  0.19042115  1
  Zn  Zn146  1  0.93554272  0.93510066  0.68769662  1
  Zn  Zn147  1  0.06239363  0.05589211  0.30775742  1
  Zn  Zn148  1  0.06761850  0.06447523  0.81089092  1
  Zn  Zn149  1  0.06064523  0.56357557  0.31460009  1
  Zn  Zn150  1  0.06376232  0.56360187  0.81265008  1
  Zn  Zn151  1  0.56088614  0.06727627  0.31120872  1
  Zn  Zn152  1  0.56487852  0.06117310  0.80974823  1
  Zn  Zn153  1  0.56515261  0.56510233  0.31498394  1
  Zn  Zn154  1  0.56247190  0.55583397  0.81136708  1
  Zn  Zn155  1  0.43261621  0.18765912  0.43667753  1
  Zn  Zn156  1  0.44217599  0.18971534  0.93458404  1
  Zn  Zn157  1  0.43016747  0.69485911  0.43542704  1
  Zn  Zn158  1  0.44086091  0.68535465  0.93754512  1
  Zn  Zn159  1  0.93799410  0.18992072  0.43548040  1
  Zn  Zn160  1  0.93738122  0.18384598  0.93869226  1
  Zn  Zn161  1  0.93458202  0.68661705  0.43534253  1
  Zn  Zn162  1  0.94157987  0.69328282  0.93824742  1
  Zn  Zn163  1  0.06176634  0.31255231  0.06378112  1
  Zn  Zn164  1  0.06503353  0.31297135  0.56337513  1
  Zn  Zn165  1  0.06184306  0.81347930  0.06010754  1
  Zn  Zn166  1  0.05835429  0.81407371  0.56581018  1
  Zn  Zn167  1  0.56679096  0.31157625  0.06476719  1
  Zn  Zn168  1  0.56729035  0.31264166  0.56616022  1
  Zn  Zn169  1  0.56251988  0.81049007  0.06152639  1
  Zn  Zn170  1  0.55220475  0.81045672  0.55860143  1
  O  O171  1  0.12836958  0.12731664  0.10907097  1
  O  O172  1  0.11176451  0.11432005  0.62606952  1
  O  O173  1  0.12475081  0.62000049  0.11534125  1
  O  O174  1  0.12553908  0.61619264  0.61721633  1
  O  O175  1  0.61847925  0.12334032  0.11837214  1
  O  O176  1  0.61984976  0.11959382  0.61922258  1
  O  O177  1  0.62221955  0.62053904  0.12036630  1
  O  O178  1  0.60259460  0.64607221  0.61328220  1
  O  O179  1  0.36983913  0.38291575  0.38049665  1
  O  O180  1  0.36954171  0.38808849  0.87247676  1
  O  O181  1  0.37593243  0.88456773  0.38103755  1
  O  O182  1  0.38113329  0.87780941  0.88290568  1
  O  O183  1  0.89028092  0.37090134  0.38626189  1
  O  O184  1  0.86650670  0.37980818  0.87954499  1
  O  O185  1  0.88021059  0.88022200  0.38204695  1
  O  O186  1  0.89484673  0.87371855  0.87592598  1
  O  O187  1  0.25767219  0.00645899  0.36532289  1
  O  O188  1  0.25705076  0.00692977  0.86648274  1
  O  O189  1  0.25097024  0.51589830  0.37200585  1
  O  O190  1  0.25619445  0.50843237  0.86924346  1
  O  O191  1  0.75361361  0.00795360  0.37095136  1
  O  O192  1  0.74108644  0.00843239  0.86257233  1
  O  O193  1  0.74262026  0.51294415  0.37301513  1
  O  O194  1  0.75359118  0.50480334  0.87651814  1
  O  O195  1  0.23802908  0.49444928  0.12212718  1
  O  O196  1  0.23890397  0.50063824  0.63053397  1
  O  O197  1  0.25715915  0.98979798  0.13288822  1
  O  O198  1  0.24159626  1.01026815  0.63208535  1
  O  O199  1  0.74656898  0.48965735  0.13698631  1
  O  O200  1  0.73728268  0.48497688  0.58910101  1
  O  O201  1  0.74301878  0.99216421  0.13210862  1
  O  O202  1  0.73833331  1.00018493  0.63757481  1
  O  O203  1  -0.00023132  0.36615856  0.25816160  1
  O  O204  1  0.00496307  0.35983166  0.74534120  1
  O  O205  1  0.00649179  0.87054207  0.25617813  1
  O  O206  1  0.00487133  0.87112382  0.75874589  1
  O  O207  1  0.50369638  0.36307299  0.24351219  1
  O  O208  1  0.49446872  0.36554192  0.74639944  1
  O  O209  1  0.51177663  0.87537845  0.24932467  1
  O  O210  1  0.49496490  0.87313234  0.76470699  1
  O  O211  1  0.49937583  0.13458425  0.23927496  1
  O  O212  1  0.49090552  0.12703243  0.74533395  1
  O  O213  1  0.49194317  0.62663505  0.24281358  1
  O  O214  1  0.48675030  0.62865339  0.74136466  1
  O  O215  1  0.98812551  0.12858779  0.25564289  1
  O  O216  1  0.99412257  0.12831987  0.74505714  1
  O  O217  1  0.99193660  0.63440769  0.25110015  1
  O  O218  1  0.99128392  0.63435234  0.75790440  1
  O  O219  1  0.36153500  0.24448962  -0.00281994  1
  O  O220  1  0.35952385  0.24830013  0.50100661  1
  O  O221  1  0.37871809  0.76061731  0.00500208  1
  O  O222  1  0.36767677  0.76272819  0.50745426  1
  O  O223  1  0.88089700  0.25698787  0.00843559  1
  O  O224  1  0.87559019  0.25978912  0.50191985  1
  O  O225  1  0.87906478  0.75892018  0.00245204  1
  O  O226  1  0.87071214  0.75439342  0.50986497  1
  O  O227  1  0.13652954  0.24451456  0.50255570  1
  O  O228  1  0.12732803  0.24047579  0.99281427  1
  O  O229  1  0.12157093  0.73922443  0.50746803  1
  O  O230  1  0.11914994  0.73778011  0.99151288  1
  O  O231  1  0.62522513  0.23643478  0.49435694  1
  O  O232  1  0.61807557  0.24062016  0.98748587  1
  O  O233  1  0.63255856  0.76067690  0.49160991  1
  O  O234  1  0.62787011  0.73722324  0.99622752  1
  O  O235  1  0.49913190  0.24387804  0.13033683  1
  O  O236  1  0.50032448  0.24072503  0.63802492  1
  O  O237  1  0.48838265  0.74452923  0.12568239  1
  O  O238  1  0.48386425  0.74379809  0.62527916  1
  O  O239  1  0.98713235  0.25327289  0.13331543  1
  O  O240  1  1.00137066  0.23975105  0.63314853  1
  O  O241  1  1.00377153  0.75020440  0.13748929  1
  O  O242  1  0.99277083  0.75415278  0.64054205  1
  O  O243  1  -0.00038560  0.25609391  0.36443198  1
  O  O244  1  0.01204588  0.24218181  0.86713441  1
  O  O245  1  -0.00538421  0.76236233  0.36671352  1
  O  O246  1  0.01289927  0.75896958  0.86570406  1
  O  O247  1  0.50846682  0.23974819  0.36565292  1
  O  O248  1  0.51088005  0.24994636  0.86446839  1
  O  O249  1  0.50903569  0.75383772  0.37336517  1
  O  O250  1  0.50972477  0.75603872  0.87483432  1
  O  O251  1  0.24482681  0.13338990  0.48996061  1
  O  O252  1  0.24033108  0.12985481  0.99484404  1
  O  O253  1  0.23839635  0.62916653  0.49327873  1
  O  O254  1  0.24351497  0.62149018  0.98697714  1
  O  O255  1  0.74389753  0.12554515  0.49344149  1
  O  O256  1  0.73774594  0.11475155  0.99370883  1
  O  O257  1  0.75878603  0.63501062  0.49139683  1
  O  O258  1  0.74615734  0.62207057  0.99495000  1
  O  O259  1  0.24068244  0.36429194  0.00565573  1
  O  O260  1  0.24222717  0.36269529  0.49896881  1
  O  O261  1  0.25935878  0.88193935  0.00639251  1
  O  O262  1  0.26369279  0.87536833  0.49421325  1
  O  O263  1  0.76526324  0.38149973  0.01403211  1
  O  O264  1  0.76771893  0.36565824  0.48012818  1
  O  O265  1  0.75229894  0.87818133  0.01539859  1
  O  O266  1  0.76180890  0.86578072  0.49572956  1
  O  O267  1  0.12398706  0.50050074  0.23876229  1
  O  O268  1  0.12647753  0.49375803  0.74392749  1
  O  O269  1  0.13654054  0.98729413  0.24967432  1
  O  O270  1  0.13694942  1.00079007  0.74225877  1
  O  O271  1  0.63560388  0.49953364  0.24688475  1
  O  O272  1  0.63838945  0.54256066  0.73430927  1
  O  O273  1  0.62968572  0.99465649  0.24621564  1
  O  O274  1  0.63649405  1.00049288  0.73937451  1
  O  O275  1  0.36348727  0.00085320  0.25579358  1
  O  O276  1  0.37149838  0.00714018  0.75311551  1
  O  O277  1  0.37097476  0.51452328  0.24639028  1
  O  O278  1  0.37150305  0.50852881  0.75525511  1
  O  O279  1  0.87082484  0.00714972  0.25561495  1
  O  O280  1  0.86332888  0.00793665  0.74463986  1
  O  O281  1  0.86336598  0.50603847  0.25067245  1
  O  O282  1  0.88592817  0.50306380  0.75254436  1
  O  O283  1  0.11397863  0.37810954  0.37220670  1
  O  O284  1  0.12859979  0.36662493  0.86173279  1
  O  O285  1  0.11532959  0.87954939  0.36736714  1
  O  O286  1  0.12009435  0.86816862  0.87239506  1
  O  O287  1  0.62988378  0.35966278  0.37975932  1
  O  O288  1  0.63413713  0.35966308  0.88127924  1
  O  O289  1  0.62391708  0.87001787  0.36730237  1
  O  O290  1  0.61732430  0.86338642  0.88464376  1
  O  O291  1  0.38842579  0.12596770  0.12224718  1
  O  O292  1  0.38457089  0.12586444  0.63208011  1
  O  O293  1  0.37595363  0.63272401  0.12816159  1
  O  O294  1  0.37593463  0.63364458  0.63153903  1
  O  O295  1  0.86753184  0.13294958  0.13452639  1
  O  O296  1  0.88580112  0.12315831  0.63248347  1
  O  O297  1  0.87437426  0.62115858  0.13998494  1
  O  O298  1  0.87347781  0.63600445  0.63583457  1
  O  O299  1  0.25230673  0.25856817  0.11483171  1
  O  O300  1  0.25097146  0.24795923  0.61093184  1
  O  O301  1  0.26225529  0.75850060  0.12583528  1
  O  O302  1  0.25851647  0.74968381  0.62474289  1
  O  O303  1  0.76004570  0.26236853  0.13387432  1
  O  O304  1  0.75530130  0.25402659  0.62651657  1
  O  O305  1  0.74284511  0.76445595  0.12552358  1
  O  O306  1  0.75379115  0.74216853  0.61654211  1
  O  O307  1  0.24956170  0.24142049  0.38346457  1
  O  O308  1  0.24080038  0.24606692  0.87951448  1
  O  O309  1  0.25178930  0.73803299  0.37684424  1
  O  O310  1  0.23860637  0.74400380  0.87043416  1
  O  O311  1  0.74240043  0.23568645  0.37262425  1
  O  O312  1  0.73256470  0.23239957  0.87226172  1
  O  O313  1  0.74363647  0.74474254  0.38489314  1
  O  O314  1  0.74575318  0.74214738  0.88280849  1
  O  O315  1  0.01078434  0.11200488  -0.00454793  1
  O  O316  1  -0.00112814  0.11859814  0.50696339  1
  O  O317  1  0.00873278  0.61698123  -0.00074549  1
  O  O318  1  0.00528773  0.61654537  0.49247572  1
  O  O319  1  0.50886378  0.12042282  0.00530814  1
  O  O320  1  0.50590971  0.12800040  0.51265359  1
  O  O321  1  0.50939931  0.62002572  0.00665187  1
  O  O322  1  0.48819599  0.62479704  0.50835612  1
  O  O323  1  0.50094868  0.38739911  0.50338633  1
  O  O324  1  0.50614135  0.38932852  1.00528905  1
  O  O325  1  0.47911936  0.87570289  0.49668167  1
  O  O326  1  0.49298343  0.87948210  0.99314288  1
  O  O327  1  0.99627560  0.37818069  0.49393603  1
  O  O328  1  0.98887520  0.38130860  1.00260515  1
  O  O329  1  0.98981181  0.87691418  0.49349052  1
  O  O330  1  1.00740607  0.88992341  0.99081335  1
  O  O331  1  0.49752139  0.50678390  0.38679016  1
  O  O332  1  0.49189827  0.50616040  0.88363058  1
  O  O333  1  0.48415585  1.00244312  0.36769113  1
  O  O334  1  0.49702950  0.99248144  0.87906254  1
  O  O335  1  1.00336550  0.49073585  0.38626920  1
  O  O336  1  1.00677976  0.49703243  0.88618421  1
  O  O337  1  0.99330663  0.99030528  0.38031574  1
  O  O338  1  1.00783358  0.98987968  0.87688282  1
  O  O339  1  0.00558092  -0.00441110  0.11421631  1
  O  O340  1  0.00440845  0.00418433  0.61983671  1
  O  O341  1  0.00986132  0.50208240  0.11767301  1
  O  O342  1  0.01264282  0.49590413  0.61113391  1
  O  O343  1  0.50527428  0.00752422  0.12133006  1
  O  O344  1  0.51552316  0.00946949  0.63369686  1
  O  O345  1  0.50608649  0.50684720  0.11984640  1
  O  O346  1  0.49965566  0.51697189  0.61864667  1
  O  O347  1  0.24461239  0.37621229  0.23883481  1
  O  O348  1  0.24133799  0.38154868  0.74727493  1
  O  O349  1  0.24442818  0.87910549  0.24434210  1
  O  O350  1  0.25301809  0.88987130  0.75331989  1
  O  O351  1  0.75162896  0.38220094  0.24946939  1
  O  O352  1  0.76989384  0.38565017  0.75955739  1
  O  O353  1  0.74076796  0.87845658  0.24346092  1
  O  O354  1  0.75674274  0.88763406  0.75833477  1
  O  O355  1  0.25069570  0.11792113  0.25244167  1
  O  O356  1  0.26287943  0.12135924  0.75271356  1
  O  O357  1  0.25451512  0.62588001  0.25557615  1
  O  O358  1  0.25818438  0.61988100  0.75951542  1
  O  O359  1  0.75733205  0.11994634  0.25695179  1
  O  O360  1  0.75697820  0.11754810  0.75619709  1
  O  O361  1  0.75583781  0.61930938  0.25764052  1
  O  O362  1  0.77111165  0.62881811  0.76593885  1
  O  O363  1  0.36290895  0.11663779  0.37269990  1
  O  O364  1  0.37239805  0.11921333  0.86862782  1
  O  O365  1  0.36695534  0.62526567  0.36572165  1
  O  O366  1  0.36891190  0.62445576  0.86759292  1
  O  O367  1  0.86704970  0.11937635  0.36982871  1
  O  O368  1  0.86328289  0.12835696  0.86761639  1
  O  O369  1  0.86325027  0.63014339  0.36342864  1
  O  O370  1  0.87002746  0.62653342  0.87190363  1
  O  O371  1  0.13162895  0.38377347  0.12477363  1
  O  O372  1  0.12677904  0.38150744  0.63671419  1
  O  O373  1  0.13863006  0.86921688  0.12936365  1
  O  O374  1  0.12130832  0.88945889  0.62695207  1
  O  O375  1  0.63644580  0.37981982  0.12867360  1
  O  O376  1  0.63022364  0.37264617  0.63424824  1
  O  O377  1  0.63053952  0.87970274  0.13150913  1
  O  O378  1  0.61678414  0.88761985  0.61995513  1
  O  O379  1  0.11012107  0.24835957  0.24103012  1
  O  O380  1  0.12073145  0.25401495  0.75495244  1
  O  O381  1  0.11776645  0.76217523  0.24870063  1
  O  O382  1  0.12013074  0.75090033  0.75503877  1
  O  O383  1  0.61724101  0.25078394  0.26065562  1
  O  O384  1  0.61195181  0.24455691  0.76286504  1
  O  O385  1  0.62384671  0.75932603  0.25854789  1
  O  O386  1  0.62552560  0.74127261  0.76426477  1
  O  O387  1  0.38286999  0.24746768  0.24526157  1
  O  O388  1  0.38629452  0.24314870  0.75129503  1
  O  O389  1  0.37623941  0.74177196  0.24182116  1
  O  O390  1  0.37578293  0.74372845  0.74292731  1
  O  O391  1  0.88241848  0.24192444  0.24503058  1
  O  O392  1  0.88552501  0.23592686  0.74846972  1
  O  O393  1  0.88325071  0.74374839  0.25221824  1
  O  O394  1  0.88279669  0.74407223  0.74692094  1
  O  O395  1  0.38835763  0.50162957  0.50084784  1
  O  O396  1  0.38588372  0.50739390  0.98902346  1
  O  O397  1  0.36921269  0.99288017  0.49246195  1
  O  O398  1  0.38106897  0.99149211  0.99392765  1
  O  O399  1  0.88629308  0.48717642  0.50291686  1
  O  O400  1  0.88695303  0.49121748  1.00454719  1
  O  O401  1  0.87729124  0.99102658  0.49910599  1
  O  O402  1  0.89304702  0.99715876  1.00407076  1
  O  O403  1  0.11928515  0.01348799  -0.00454147  1
  O  O404  1  0.11793298  0.00236247  0.50584698  1
  O  O405  1  0.11918988  0.50890873  0.00393437  1
  O  O406  1  0.11897112  0.50909488  0.50627966  1
  O  O407  1  0.61830054  0.00650377  0.00583106  1
  O  O408  1  0.63136303  0.00903471  0.51326207  1
  O  O409  1  0.62020711  0.51049354  0.00718075  1
  O  O410  1  0.60318402  0.50947474  0.50402866  1
  O  O411  1  0.36017442  0.37909985  0.12305375  1
  O  O412  1  0.36887911  0.37101921  0.61633326  1
  O  O413  1  0.36892111  0.86845143  0.11826135  1
  O  O414  1  0.37518213  0.87246581  0.61565392  1
  O  O415  1  0.87179788  0.36807926  0.12009526  1
  O  O416  1  0.87197522  0.37106256  0.60916141  1
  O  O417  1  0.85907461  0.88084912  0.13101621  1
  O  O418  1  0.87737589  0.86124112  0.61839332  1
  O  O419  1  0.13708972  0.11597675  0.37235737  1
  O  O420  1  0.13303906  0.13317058  0.87957508  1
  O  O421  1  0.12999757  0.62415741  0.38538399  1
  O  O422  1  0.13350338  0.63175082  0.88000783  1
  O  O423  1  0.63137439  0.12484336  0.38420854  1
  O  O424  1  0.62746319  0.12806696  0.88278780  1
  O  O425  1  0.63578145  0.64031717  0.36957888  1
  O  O426  1  0.63548197  0.63036366  0.88497097  1
