# generated using pymatgen
data_V85Zn86O256
_symmetry_space_group_name_H-M   'P 1'
_cell_length_a   16.97001246
_cell_length_b   16.97863441
_cell_length_c   16.95906878
_cell_angle_alpha   90.03333176
_cell_angle_beta   89.95027481
_cell_angle_gamma   89.99584064
_symmetry_Int_Tables_number   1
_chemical_formula_structural   V85Zn86O256
_chemical_formula_sum   'V85 Zn86 O256'
_cell_volume   4886.37373986
_cell_formula_units_Z   1
loop_
 _symmetry_equiv_pos_site_id
 _symmetry_equiv_pos_as_xyz
  1  'x, y, z'
loop_
 _atom_site_type_symbol
 _atom_site_label
 _atom_site_symmetry_multiplicity
 _atom_site_fract_x
 _atom_site_fract_y
 _atom_site_fract_z
 _atom_site_occupancy
  V  V0  1  0.11095043  0.61671455  0.49580389  1
  V  V1  1  0.86726487  0.24918036  0.62962624  1
  V  V2  1  0.36291425  0.12874625  0.75161251  1
  V  V3  1  0.74669347  0.49267567  0.25058547  1
  V  V4  1  0.87428139  0.37749493  0.50356227  1
  V  V5  1  0.25059730  0.25373317  0.50033739  1
  V  V6  1  0.74698000  0.12638966  0.37831319  1
  V  V7  1  0.13454537  0.84837374  0.70898603  1
  V  V8  1  0.37721677  0.37653955  0.50065436  1
  V  V9  1  0.62436039  0.75382992  0.37562127  1
  V  V10  1  0.88228463  0.88921135  -0.00803037  1
  V  V11  1  0.74273348  0.87833484  0.62785431  1
  V  V12  1  0.49838510  0.50135724  -0.01079966  1
  V  V13  1  -0.00210029  0.87073196  0.36987089  1
  V  V14  1  0.62608994  0.61977017  0.50628726  1
  V  V15  1  0.37456100  0.87721338  -0.00114730  1
  V  V16  1  0.75193431  0.25152483  -0.00727500  1
  V  V17  1  0.50408787  0.75051047  0.24639987  1
  V  V18  1  0.87509547  0.74587061  0.62964077  1
  V  V19  1  0.94050673  0.06348441  0.80612483  1
  V  V20  1  0.87930639  0.48880625  0.86167866  1
  V  V21  1  0.74839843  0.87438396  0.11991569  1
  V  V22  1  0.62592632  0.25441995  0.37139419  1
  V  V23  1  0.12943719  0.00629566  0.61751925  1
  V  V24  1  -0.00480965  0.74150556  0.75545247  1
  V  V25  1  -0.00993482  0.12662938  0.62203671  1
  V  V26  1  0.13031904  0.12042950  -0.00214598  1
  V  V27  1  0.38520199  0.25018346  0.62808260  1
  V  V28  1  0.87138058  0.87263291  0.49961797  1
  V  V29  1  0.73921423  0.39009814  0.63427721  1
  V  V30  1  0.63076460  0.62329633  -0.01344001  1
  V  V31  1  0.24790152  0.74269885  0.00638434  1
  V  V32  1  0.50184861  -0.01037501  0.49713887  1
  V  V33  1  0.76413248  0.62222669  0.86134105  1
  V  V34  1  0.88053291  0.74864780  0.12210306  1
  V  V35  1  0.37324468  0.62388703  0.24592072  1
  V  V36  1  0.73226685  0.00946080  0.75099958  1
  V  V37  1  0.24901686  0.87735502  0.13198426  1
  V  V38  1  0.00029553  0.25208931  0.24890250  1
  V  V39  1  0.26551510  -0.02679245  0.72975898  1
  V  V40  1  0.87773823  0.50014969  0.37932986  1
  V  V41  1  0.00006608  0.37748278  0.37974313  1
  V  V42  1  0.87758338  0.62410974  0.24449697  1
  V  V43  1  0.50279299  0.12546989  0.12793609  1
  V  V44  1  0.25248215  0.12734773  0.38099332  1
  V  V45  1  0.37554671  0.63930038  0.74979814  1
  V  V46  1  -0.01238117  0.49342471  0.00289570  1
  V  V47  1  0.50255322  0.49746241  0.51193403  1
  V  V48  1  0.50051343  0.00000492  -0.00967122  1
  V  V49  1  0.62218045  0.86115447  0.75910389  1
  V  V50  1  0.50653146  0.62365717  0.12351152  1
  V  V51  1  0.12861761  0.37838259  0.24952872  1
  V  V52  1  -0.00297197  0.00164603  0.49718483  1
  V  V53  1  0.24790300  0.37519164  0.62550800  1
  V  V54  1  0.11896299  0.75328077  0.88429498  1
  V  V55  1  0.49724657  0.64118012  0.63030083  1
  V  V56  1  0.12486872  0.74315447  0.37500969  1
  V  V57  1  0.74775818  0.62367580  0.37447567  1
  V  V58  1  0.87474932  0.12694028  0.24875930  1
  V  V59  1  0.12674423  0.25430934  0.37413262  1
  V  V60  1  0.37735759  0.12978244  0.25288700  1
  V  V61  1  0.87808048  0.25579532  0.11940083  1
  V  V62  1  0.87290584  -0.00016118  0.37342814  1
  V  V63  1  0.74819195  -0.00002772  0.24857530  1
  V  V64  1  0.00208278  0.11898892  0.11991520  1
  V  V65  1  0.12302023  0.25383124  0.87403493  1
  V  V66  1  0.62598692  0.49597835  0.12591964  1
  V  V67  1  0.37890375  0.75157645  0.12765672  1
  V  V68  1  0.24936374  0.50283853  0.75153483  1
  V  V69  1  0.50113795  0.11706726  0.62978824  1
  V  V70  1  0.24779957  0.25384493  -0.00437149  1
  V  V71  1  0.12131635  0.50937699  0.12361008  1
  V  V72  1  0.25768708  0.37940279  0.12203788  1
  V  V73  1  0.60877053  0.38152022  0.75965759  1
  V  V74  1  0.43527729  0.32799920  -0.05824244  1
  V  V75  1  0.62375958  -0.00157448  0.12254034  1
  V  V76  1  0.24656920  0.00447038  0.24831449  1
  V  V77  1  0.50506097  0.37766884  0.36900258  1
  V  V78  1  0.75416704  0.37680598  0.11819299  1
  V  V79  1  -0.00190326  0.25566004  0.75368951  1
  V  V80  1  0.61974560  0.87450654  0.24851583  1
  V  V81  1  0.75228216  0.74920865  -0.00795496  1
  V  V82  1  0.11251173  0.49743691  0.62306266  1
  V  V83  1  0.28082001  0.64388360  0.41320987  1
  V  V84  1  0.37713682  -0.01469907  0.37750482  1
  Zn  Zn85  1  0.24663861  0.62462370  0.87645095  1
  Zn  Zn86  1  0.74574895  0.25035060  0.50387416  1
  Zn  Zn87  1  0.37379948  0.50105292  0.87593093  1
  Zn  Zn88  1  0.35476351  0.00652868  0.87855125  1
  Zn  Zn89  1  0.74762346  0.75016050  0.50231848  1
  Zn  Zn90  1  0.50563296  0.25508622  0.24838877  1
  Zn  Zn91  1  0.62369133  0.12269743  0.50681985  1
  Zn  Zn92  1  0.12193734  0.87344955  0.24856675  1
  Zn  Zn93  1  0.49037430  0.85221924  0.85817551  1
  Zn  Zn94  1  0.37901665  0.25483797  0.12370278  1
  Zn  Zn95  1  0.37749430  0.49837475  0.37285208  1
  Zn  Zn96  1  0.25011344  0.50628407  0.25713612  1
  Zn  Zn97  1  0.00176499  0.88733246  0.86926502  1
  Zn  Zn98  1  0.61742938  0.25249064  0.87078155  1
  Zn  Zn99  1  0.12152366  -0.00183429  0.11855119  1
  Zn  Zn100  1  0.00076092  0.74368945  0.24487751  1
  Zn  Zn101  1  0.12100849  0.38104920  0.75639527  1
  Zn  Zn102  1  0.75505490  0.12345116  0.87255406  1
  Zn  Zn103  1  0.62857507  0.12593671  -0.00594701  1
  Zn  Zn104  1  0.11107141  0.62585207  0.00486353  1
  Zn  Zn105  1  -0.00883966  0.61874228  0.62653315  1
  Zn  Zn106  1  0.11921666  0.13176517  0.49629880  1
  Zn  Zn107  1  0.19001392  0.19134407  0.18311687  1
  Zn  Zn108  1  0.18627279  0.18646455  0.68503789  1
  Zn  Zn109  1  0.18784430  0.69095751  0.19178480  1
  Zn  Zn110  1  0.17916321  0.67847172  0.68826060  1
  Zn  Zn111  1  0.68779626  0.18969729  0.18731649  1
  Zn  Zn112  1  0.68129187  0.19485738  0.69238457  1
  Zn  Zn113  1  0.69306252  0.68513533  0.18226442  1
  Zn  Zn114  1  0.68758948  0.68766487  0.68581926  1
  Zn  Zn115  1  0.31614008  0.31514413  0.31153787  1
  Zn  Zn116  1  0.30478263  0.31139019  0.80801709  1
  Zn  Zn117  1  0.31122881  0.81208285  0.42591905  1
  Zn  Zn118  1  0.30809125  0.80985530  0.81956515  1
  Zn  Zn119  1  0.81063700  0.31363624  0.31048458  1
  Zn  Zn120  1  0.81163287  0.31444097  0.80757952  1
  Zn  Zn121  1  0.80804148  0.81081175  0.30945458  1
  Zn  Zn122  1  0.81185082  0.81721514  0.81411420  1
  Zn  Zn123  1  0.19394744  0.44885032  0.43680845  1
  Zn  Zn124  1  0.18311471  0.43778525  0.93967869  1
  Zn  Zn125  1  0.17932824  0.94193922  0.43129878  1
  Zn  Zn126  1  0.19232607  0.93242046  0.93636692  1
  Zn  Zn127  1  0.68883772  0.43660965  0.44211738  1
  Zn  Zn128  1  0.69228235  0.43959600  0.93118877  1
  Zn  Zn129  1  0.68356279  0.93835733  0.43780416  1
  Zn  Zn130  1  0.68927073  0.93897846  0.93204674  1
  Zn  Zn131  1  0.31312040  0.06681354  0.06472451  1
  Zn  Zn132  1  0.31408659  -0.05764009  0.55845099  1
  Zn  Zn133  1  0.31550597  0.55895258  0.06494312  1
  Zn  Zn134  1  0.31484386  0.56051203  0.57045613  1
  Zn  Zn135  1  0.81154314  0.06694935  0.06238560  1
  Zn  Zn136  1  0.80885778  0.06044698  0.56569668  1
  Zn  Zn137  1  0.81560701  0.56306289  0.05896499  1
  Zn  Zn138  1  0.81149911  0.56273644  0.56207184  1
  Zn  Zn139  1  0.44045769  0.43999567  0.18570722  1
  Zn  Zn140  1  0.43496395  0.44341300  0.68987587  1
  Zn  Zn141  1  0.43633511  0.94029791  0.18840373  1
  Zn  Zn142  1  0.44107227  0.94206004  0.69264461  1
  Zn  Zn143  1  0.93892228  0.43916158  0.18763563  1
  Zn  Zn144  1  0.93361280  0.43281513  0.68918639  1
  Zn  Zn145  1  0.93415431  0.93686472  0.18394770  1
  Zn  Zn146  1  0.94803249  0.92643575  0.68185784  1
  Zn  Zn147  1  0.06271870  0.06516857  0.31116203  1
  Zn  Zn148  1  0.13059312  0.04427494  0.82543127  1
  Zn  Zn149  1  0.05905997  0.56091771  0.31083338  1
  Zn  Zn150  1  0.05982720  0.56447704  0.81892934  1
  Zn  Zn151  1  0.56204105  0.06078749  0.31614790  1
  Zn  Zn152  1  0.56268687  0.06982580  0.81183962  1
  Zn  Zn153  1  0.56261717  0.56127913  0.31412905  1
  Zn  Zn154  1  0.56749670  0.56097432  0.80369121  1
  Zn  Zn155  1  0.44011783  0.18600314  0.44184804  1
  Zn  Zn156  1  0.43483286  0.16790407  0.93782895  1
  Zn  Zn157  1  0.45102883  0.68586351  0.43475641  1
  Zn  Zn158  1  0.43505781  0.68420513  0.93387226  1
  Zn  Zn159  1  0.93271493  0.19293834  0.43891719  1
  Zn  Zn160  1  0.94222842  0.19197983  0.94153808  1
  Zn  Zn161  1  0.93590401  0.68771331  0.43709221  1
  Zn  Zn162  1  0.93770081  0.68205536  0.94195473  1
  Zn  Zn163  1  0.06502958  0.31701369  0.06205701  1
  Zn  Zn164  1  0.05951783  0.31411602  0.56367324  1
  Zn  Zn165  1  0.05994245  0.81753895  0.06157119  1
  Zn  Zn166  1  0.06477223  0.80402306  0.55652980  1
  Zn  Zn167  1  0.57313105  0.31047507  0.06709234  1
  Zn  Zn168  1  0.56660636  0.31015678  0.56054652  1
  Zn  Zn169  1  0.54963792  0.79546717  0.02699214  1
  Zn  Zn170  1  0.56575600  0.81310069  0.56413730  1
  O  O171  1  0.11792774  0.12586276  0.11934909  1
  O  O172  1  0.10947459  0.12015795  0.62308439  1
  O  O173  1  0.12836304  0.61197625  0.13023339  1
  O  O174  1  0.11819560  0.61251073  0.61509002  1
  O  O175  1  0.61835882  0.11779051  0.12479893  1
  O  O176  1  0.60456098  0.13465018  0.62729503  1
  O  O177  1  0.62679834  0.61334004  0.11589923  1
  O  O178  1  0.61264908  0.63184893  0.61764848  1
  O  O179  1  0.38461835  0.37630707  0.38326865  1
  O  O180  1  0.37694322  0.37832529  0.87449812  1
  O  O181  1  0.37447640  0.88710925  0.36265029  1
  O  O182  1  0.37602128  0.87948558  0.88483842  1
  O  O183  1  0.87613435  0.38108718  0.38226439  1
  O  O184  1  0.87022316  0.38982903  0.87109903  1
  O  O185  1  0.87624364  0.87812231  0.37976190  1
  O  O186  1  0.88115851  0.87673378  0.88700752  1
  O  O187  1  0.25631617  0.01116181  0.36643176  1
  O  O188  1  0.23957596  -0.00707399  0.84913457  1
  O  O189  1  0.25928852  0.52278840  0.37642186  1
  O  O190  1  0.24606655  0.50159682  0.86316117  1
  O  O191  1  0.75395254  0.00695928  0.36918472  1
  O  O192  1  0.75027799  0.00221680  0.85513054  1
  O  O193  1  0.75650026  0.50157420  0.36728235  1
  O  O194  1  0.76698744  0.51314927  0.88185467  1
  O  O195  1  0.24159006  0.49332713  0.12713300  1
  O  O196  1  0.24138294  0.49477455  0.63589154  1
  O  O197  1  0.24979680  0.99646901  0.13285403  1
  O  O198  1  0.23272152  1.01107704  0.61582127  1
  O  O199  1  0.74727152  0.49368687  0.12907030  1
  O  O200  1  0.75030993  0.48804479  0.62201993  1
  O  O201  1  0.74431073  0.99607839  0.12978612  1
  O  O202  1  0.76005529  0.98992614  0.64209221  1
  O  O203  1  0.00890203  0.37087079  0.25634747  1
  O  O204  1  0.00440444  0.35911556  0.74316025  1
  O  O205  1  -0.00357173  0.87591694  0.26078038  1
  O  O206  1  0.02168270  0.86120505  0.74690895  1
  O  O207  1  0.49706862  0.37607602  0.26493971  1
  O  O208  1  0.50903270  0.37894564  0.74663193  1
  O  O209  1  0.51398659  0.87088102  0.24148404  1
  O  O210  1  0.51576098  0.87797755  0.74796177  1
  O  O211  1  0.49346975  0.12480331  0.24493642  1
  O  O212  1  0.48656391  0.11744367  0.73741965  1
  O  O213  1  0.49813468  0.62828268  0.24110024  1
  O  O214  1  0.49475010  0.62386965  0.73780602  1
  O  O215  1  0.99446185  0.13393566  0.24479830  1
  O  O216  1  0.99080002  0.13077834  0.74117443  1
  O  O217  1  0.98163052  0.62377951  0.25289191  1
  O  O218  1  1.00367374  0.63818029  0.74675739  1
  O  O219  1  0.37421967  0.25867443  -0.00362793  1
  O  O220  1  0.36962714  0.25686259  0.50769385  1
  O  O221  1  0.36520994  0.75877046  0.00874573  1
  O  O222  1  0.34818362  0.71391881  0.47103718  1
  O  O223  1  0.87104334  0.24799433  0.01353895  1
  O  O224  1  0.87047377  0.25885025  0.51127328  1
  O  O225  1  0.86801179  0.75612086  0.00576482  1
  O  O226  1  0.87162019  0.76144145  0.50291122  1
  O  O227  1  0.13098248  0.25261473  0.49230854  1
  O  O228  1  0.13168880  0.24532093  0.99600925  1
  O  O229  1  0.11904286  0.73658785  0.48235719  1
  O  O230  1  0.13034809  0.74496513  1.00475055  1
  O  O231  1  0.62723798  0.24291774  0.48697871  1
  O  O232  1  0.63854215  0.24920992  0.99644179  1
  O  O233  1  0.62508185  0.74252843  0.49110336  1
  O  O234  1  0.64622635  0.73573305  1.01077205  1
  O  O235  1  0.50155686  0.24013142  0.12722370  1
  O  O236  1  0.48835312  0.24389197  0.61843992  1
  O  O237  1  0.49958194  0.74227948  0.12463692  1
  O  O238  1  0.49473403  0.73914715  0.61747426  1
  O  O239  1  0.99454198  0.24671911  0.13000237  1
  O  O240  1  0.99323305  0.24260835  0.63053970  1
  O  O241  1  0.98498042  0.75679654  0.12696402  1
  O  O242  1  0.99107952  0.74899756  0.63221066  1
  O  O243  1  0.00460989  0.25728726  0.36847361  1
  O  O244  1  0.00746257  0.24516228  0.86424553  1
  O  O245  1  0.00210758  0.75654906  0.36971755  1
  O  O246  1  0.00163907  0.75077307  0.87130748  1
  O  O247  1  0.50770508  0.25872825  0.37572452  1
  O  O248  1  0.49254339  0.26105021  0.89147370  1
  O  O249  1  0.51680750  0.74612148  0.36360289  1
  O  O250  1  0.51059327  0.76267834  0.92111055  1
  O  O251  1  0.24634158  0.13366965  0.48425775  1
  O  O252  1  0.24338585  0.14051788  1.01014628  1
  O  O253  1  0.23446338  0.61561983  0.50320520  1
  O  O254  1  0.25144219  0.63738445  1.00588960  1
  O  O255  1  0.74647845  0.12369215  0.49192754  1
  O  O256  1  0.75010968  0.13587218  0.99711444  1
  O  O257  1  0.74101151  0.62723452  0.49481111  1
  O  O258  1  0.74849423  0.63118218  0.99161594  1
  O  O259  1  0.24476791  0.36900364  0.01130642  1
  O  O260  1  0.25745432  0.37437606  0.50518185  1
  O  O261  1  0.25958838  0.87162908  0.01174481  1
  O  O262  1  0.25209312  0.88162028  0.48884795  1
  O  O263  1  0.74816435  0.36919504  0.01145647  1
  O  O264  1  0.75872062  0.37294527  0.50955156  1
  O  O265  1  0.75667091  0.86754952  -0.00048966  1
  O  O266  1  0.75491606  0.87682301  0.50835215  1
  O  O267  1  0.12621554  0.49239455  0.24486929  1
  O  O268  1  0.12912015  0.50200843  0.74357003  1
  O  O269  1  0.13829304  1.00113603  0.25052618  1
  O  O270  1  0.14086249  0.98171071  0.72857189  1
  O  O271  1  0.63589225  0.50762891  0.24043824  1
  O  O272  1  0.62807679  0.48241546  0.75068091  1
  O  O273  1  0.62825528  0.99230420  0.24598235  1
  O  O274  1  0.63142047  0.99612493  0.74734712  1
  O  O275  1  0.36717336  0.01174729  0.25516567  1
  O  O276  1  0.37060343  0.01317961  0.75907923  1
  O  O277  1  0.37613578  0.51021889  0.24977424  1
  O  O278  1  0.36422304  0.50974522  0.75259527  1
  O  O279  1  0.86848030  0.00637670  0.25497240  1
  O  O280  1  0.88466254  -0.00074736  0.75170569  1
  O  O281  1  0.86678948  0.50528901  0.25545046  1
  O  O282  1  0.88225274  0.50207993  0.76227342  1
  O  O283  1  0.12323709  0.37522947  0.36833848  1
  O  O284  1  0.12829261  0.35957250  0.87365086  1
  O  O285  1  0.11334786  0.86561714  0.37084963  1
  O  O286  1  0.11502873  0.85982945  0.89362094  1
  O  O287  1  0.61802102  0.36739052  0.38146196  1
  O  O288  1  0.62581354  0.37375817  0.86584757  1
  O  O289  1  0.63349674  0.86517027  0.36254209  1
  O  O290  1  0.62297948  0.87604757  0.86124700  1
  O  O291  1  0.38539222  0.12887548  0.13377014  1
  O  O292  1  0.38543333  0.13593121  0.63508987  1
  O  O293  1  0.38653567  0.62998797  0.12801278  1
  O  O294  1  0.38841410  0.62303093  0.63339181  1
  O  O295  1  0.88347036  0.13302541  0.12931266  1
  O  O296  1  0.88206301  0.13461654  0.61743674  1
  O  O297  1  0.86564334  0.63546239  0.13319684  1
  O  O298  1  0.87348710  0.64113555  0.61701502  1
  O  O299  1  0.25459665  0.26031539  0.11513252  1
  O  O300  1  0.25476020  0.25547749  0.61788146  1
  O  O301  1  0.25477179  0.76014957  0.12322067  1
  O  O302  1  0.16974160  0.78086520  0.63778115  1
  O  O303  1  0.75706173  0.25758724  0.11865005  1
  O  O304  1  0.75657854  0.25443342  0.62410048  1
  O  O305  1  0.76029400  0.75756264  0.11799773  1
  O  O306  1  0.75740315  0.75994396  0.62441325  1
  O  O307  1  0.24732111  0.24700592  0.37895849  1
  O  O308  1  0.24474313  0.25544263  0.88880797  1
  O  O309  1  0.23801019  0.73309112  0.36713810  1
  O  O310  1  0.23930621  0.75046113  0.89226019  1
  O  O311  1  0.74552938  0.24312623  0.37640505  1
  O  O312  1  0.76177671  0.24826118  0.88714993  1
  O  O313  1  0.74007582  0.74247730  0.37544781  1
  O  O314  1  0.75939685  0.73745444  0.88204570  1
  O  O315  1  0.01335543  0.13164252  0.01113437  1
  O  O316  1  -0.00243765  0.12286352  0.50493165  1
  O  O317  1  -0.00266104  0.60627262  0.00255211  1
  O  O318  1  0.00683955  0.62424987  0.50254432  1
  O  O319  1  0.50299126  0.11581918  0.01058351  1
  O  O320  1  0.49837246  0.11669911  0.51286894  1
  O  O321  1  0.51244421  0.61659699  0.00572404  1
  O  O322  1  0.50689984  0.61816018  0.51039923  1
  O  O323  1  0.49741247  0.38178367  0.49534757  1
  O  O324  1  0.49816820  0.38109374  1.00530924  1
  O  O325  1  0.50088703  0.89011207  0.50919477  1
  O  O326  1  0.48203975  0.88995372  1.01682970  1
  O  O327  1  0.98355608  0.36973321  0.49465604  1
  O  O328  1  1.00824617  0.39343899  1.00106519  1
  O  O329  1  0.99004762  0.87785100  0.48607919  1
  O  O330  1  0.98521879  0.87994624  0.99998362  1
  O  O331  1  0.50158617  0.49256210  0.38609646  1
  O  O332  1  0.50207033  0.50539656  0.88682902  1
  O  O333  1  0.49028748  1.00426215  0.38649599  1
  O  O334  1  0.49941631  1.00197604  0.88769792  1
  O  O335  1  0.98470716  0.49236933  0.36919816  1
  O  O336  1  0.98682619  0.50236024  0.88497568  1
  O  O337  1  0.99247152  0.99509712  0.37757295  1
  O  O338  1  1.01490891  1.00832709  0.85206038  1
  O  O339  1  0.00217310  0.01505118  0.13301548  1
  O  O340  1  -0.00154255  0.01219032  0.61599136  1
  O  O341  1  0.00820023  0.49559172  0.11692154  1
  O  O342  1  0.00891580  0.49746462  0.62953043  1
  O  O343  1  0.50389091  0.01078898  0.12090347  1
  O  O344  1  0.49337402  0.01121305  0.61444724  1
  O  O345  1  0.51067431  0.50343830  0.11758974  1
  O  O346  1  0.49845355  0.50739682  0.61421418  1
  O  O347  1  0.24261325  0.37977438  0.24681549  1
  O  O348  1  0.24505690  0.38377716  0.74166839  1
  O  O349  1  0.24835327  0.88743291  0.23780876  1
  O  O350  1  0.22605130  0.86616759  0.75893496  1
  O  O351  1  0.75352626  0.38702282  0.24043853  1
  O  O352  1  0.74869888  0.37730493  0.73558182  1
  O  O353  1  0.74205808  0.88098491  0.24155491  1
  O  O354  1  0.73965991  0.88278143  0.74652486  1
  O  O355  1  0.25728810  0.12275552  0.25458426  1
  O  O356  1  0.26163592  0.11262427  0.73606635  1
  O  O357  1  0.26886295  0.62645428  0.24042548  1
  O  O358  1  0.25597707  0.62004734  0.74830951  1
  O  O359  1  0.75597660  0.11970054  0.25524383  1
  O  O360  1  0.74601273  0.11226743  0.74626640  1
  O  O361  1  0.75770615  0.61482013  0.25480938  1
  O  O362  1  0.74704259  0.62824335  0.76367463  1
  O  O363  1  0.36872162  0.12287768  0.36850707  1
  O  O364  1  0.37029577  0.12660611  0.85763370  1
  O  O365  1  0.38067675  0.62041857  0.36146142  1
  O  O366  1  0.36908615  0.62262190  0.86646744  1
  O  O367  1  0.86408222  0.12295794  0.37058351  1
  O  O368  1  0.88284913  0.11647278  0.87269949  1
  O  O369  1  0.86694428  0.61718673  0.37118525  1
  O  O370  1  0.86717235  0.61858007  0.87379156  1
  O  O371  1  0.13426211  0.38139586  0.13558361  1
  O  O372  1  0.13091647  0.38209915  0.62475699  1
  O  O373  1  0.13233110  0.87988852  0.12724205  1
  O  O374  1  0.09841194  0.89990697  0.61519958  1
  O  O375  1  0.63523303  0.38829413  0.12505849  1
  O  O376  1  0.63572315  0.37188620  0.62873340  1
  O  O377  1  0.63309785  0.88183965  0.12990498  1
  O  O378  1  0.63809099  0.87186109  0.63269093  1
  O  O379  1  0.12263583  0.26141864  0.25333826  1
  O  O380  1  0.11768457  0.24689916  0.75759839  1
  O  O381  1  0.11844121  0.75054946  0.25918240  1
  O  O382  1  0.11631272  0.75064263  0.76781906  1
  O  O383  1  0.62436546  0.24671575  0.26466637  1
  O  O384  1  0.62936483  0.27125787  0.75566329  1
  O  O385  1  0.62468918  0.75567333  0.25187749  1
  O  O386  1  0.62760900  0.76272505  0.75108016  1
  O  O387  1  0.37915783  0.23892596  0.24957515  1
  O  O388  1  0.36574052  0.23954361  0.74149733  1
  O  O389  1  0.39072604  0.74064954  0.24068418  1
  O  O390  1  0.37025652  0.73935526  0.75525785  1
  O  O391  1  0.87837535  0.24539689  0.24074857  1
  O  O392  1  0.88185206  0.25271568  0.73765432  1
  O  O393  1  0.87188467  0.74141887  0.24127511  1
  O  O394  1  0.88396095  0.76284021  0.74077255  1
  O  O395  1  0.38390784  0.49292798  0.50084080  1
  O  O396  1  0.38883808  0.50357412  0.99706569  1
  O  O397  1  0.38675281  0.99966053  0.48860179  1
  O  O398  1  0.37706661  0.99689985  0.99568636  1
  O  O399  1  0.86971563  0.49243558  0.48958706  1
  O  O400  1  0.88374609  0.49530456  0.99793222  1
  O  O401  1  0.87684224  0.98929802  0.49392256  1
  O  O402  1  0.86929927  0.98675871  1.00362052  1
  O  O403  1  0.13664425  0.01581315  -0.00119086  1
  O  O404  1  0.11321015  0.01018172  0.49982952  1
  O  O405  1  0.11905444  0.50443220  0.00927348  1
  O  O406  1  0.12246997  0.50415504  0.50876171  1
  O  O407  1  0.61741255  -0.00119918  0.00522519  1
  O  O408  1  0.60794218  0.00510470  0.49209653  1
  O  O409  1  0.62277999  0.50602230  0.00559415  1
  O  O410  1  0.61917461  0.51291761  0.49623212  1
  O  O411  1  0.36218432  0.37387198  0.13308157  1
  O  O412  1  0.36887342  0.36877362  0.62196934  1
  O  O413  1  0.36706958  0.87145671  0.12303713  1
  O  O414  1  0.33455631  0.90931551  0.66542196  1
  O  O415  1  0.86730002  0.36640884  0.13153445  1
  O  O416  1  0.86602945  0.36930261  0.61933550  1
  O  O417  1  0.86713024  0.86993383  0.11574763  1
  O  O418  1  0.86981064  0.86760040  0.61555059  1
  O  O419  1  0.13400552  0.13670692  0.37041887  1
  O  O420  1  0.12996529  0.13942219  0.88670709  1
  O  O421  1  0.11992357  0.62755207  0.38091262  1
  O  O422  1  0.12675310  0.63749561  0.88306783  1
  O  O423  1  0.63751121  0.12941922  0.37301488  1
  O  O424  1  0.62975892  0.13437246  0.87569203  1
  O  O425  1  0.63039778  0.63085198  0.38210307  1
  O  O426  1  0.63765211  0.61604144  0.88366847  1
