# generated using pymatgen
data_V85Zn86O256
_symmetry_space_group_name_H-M   'P 1'
_cell_length_a   16.96117525
_cell_length_b   16.95359929
_cell_length_c   16.96300016
_cell_angle_alpha   89.91667283
_cell_angle_beta   90.05266490
_cell_angle_gamma   89.98406320
_symmetry_Int_Tables_number   1
_chemical_formula_structural   V85Zn86O256
_chemical_formula_sum   'V85 Zn86 O256'
_cell_volume   4877.75364447
_cell_formula_units_Z   1
loop_
 _symmetry_equiv_pos_site_id
 _symmetry_equiv_pos_as_xyz
  1  'x, y, z'
loop_
 _atom_site_type_symbol
 _atom_site_label
 _atom_site_symmetry_multiplicity
 _atom_site_fract_x
 _atom_site_fract_y
 _atom_site_fract_z
 _atom_site_occupancy
  V  V0  1  0.38998936  0.63357613  0.25589763  1
  V  V1  1  0.62088269  0.12266700  -0.00326141  1
  V  V2  1  0.49883114  0.11844413  0.11882835  1
  V  V3  1  0.00042535  0.37423338  0.36614329  1
  V  V4  1  0.37931317  0.88095052  0.00659480  1
  V  V5  1  0.50270700  0.86104437  0.37411554  1
  V  V6  1  0.81430168  0.21017043  0.56471898  1
  V  V7  1  0.25326235  0.86867874  0.12556617  1
  V  V8  1  0.12590060  0.00194451  0.62509986  1
  V  V9  1  0.36885020  0.74422297  0.62946897  1
  V  V10  1  0.12991627  0.49526830  0.11727616  1
  V  V11  1  0.75057284  0.50215867  0.24847506  1
  V  V12  1  0.25283751  -0.00137911  0.24955023  1
  V  V13  1  -0.00125133  0.51069220  -0.00389756  1
  V  V14  1  0.49983857  0.37726164  0.87755552  1
  V  V15  1  0.74565305  0.62668657  0.37408097  1
  V  V16  1  0.23717978  0.74519754  0.49621938  1
  V  V17  1  0.62314746  0.50117940  0.63755621  1
  V  V18  1  0.74708172  0.12192779  0.87139452  1
  V  V19  1  0.25258811  0.12345655  0.37665405  1
  V  V20  1  0.74641030  0.01300023  0.25355807  1
  V  V21  1  0.00353492  0.87216162  0.37512033  1
  V  V22  1  0.37893173  0.00288836  0.87827304  1
  V  V23  1  0.01074069  0.75122546  0.25152229  1
  V  V24  1  0.51089889  0.36082657  0.39108705  1
  V  V25  1  0.87822411  0.88107197  -0.00000352  1
  V  V26  1  -0.00191731  0.37962654  0.87364923  1
  V  V27  1  0.88172370  0.24743333  0.13384945  1
  V  V28  1  0.50847625  0.00243806  0.50266446  1
  V  V29  1  0.50382256  0.24834406  0.25286915  1
  V  V30  1  0.62526540  0.86134466  0.25446673  1
  V  V31  1  0.12745943  0.50651014  0.62267455  1
  V  V32  1  0.23949153  0.62725706  0.37210279  1
  V  V33  1  0.12519227  0.87648542  0.75575169  1
  V  V34  1  0.24340799  0.12564115  0.88099918  1
  V  V35  1  0.25094347  0.87360935  0.62319032  1
  V  V36  1  0.87473968  0.50128033  0.37462313  1
  V  V37  1  0.87288149  0.01190151  0.37241754  1
  V  V38  1  0.24917438  0.51420837  0.75687049  1
  V  V39  1  0.37819667  0.12415380  0.24951267  1
  V  V40  1  -0.00166844  0.74961318  0.75031143  1
  V  V41  1  0.37783079  0.49691527  0.37745483  1
  V  V42  1  0.43543557  0.69404604  0.08071102  1
  V  V43  1  0.12683439  0.12722009  0.50025323  1
  V  V44  1  0.12750541  0.00713369  0.11616854  1
  V  V45  1  0.86921012  0.12436174  0.74823767  1
  V  V46  1  0.37292276  0.37738546  0.00026852  1
  V  V47  1  0.25263732  0.00148620  0.74960930  1
  V  V48  1  -0.00120327  0.13354902  0.62237925  1
  V  V49  1  0.12437180  0.25091988  0.37080853  1
  V  V50  1  -0.00286339  0.25248584  0.74649046  1
  V  V51  1  0.62357868  0.62734898  0.49889736  1
  V  V52  1  0.74678994  0.87583989  0.62939941  1
  V  V53  1  0.00142860  0.01559736  -0.00268518  1
  V  V54  1  0.12695629  0.87511451  0.25212279  1
  V  V55  1  0.75498001  0.88005365  0.12885782  1
  V  V56  1  0.74651833  0.37720529  0.62618500  1
  V  V57  1  0.37069350  0.25616886  0.12502158  1
  V  V58  1  0.62724987  0.88182601  0.75098306  1
  V  V59  1  0.26197456  0.24951001  0.50532649  1
  V  V60  1  0.50280938  0.88036681  0.88006398  1
  V  V61  1  0.62599227  0.37414709  0.25414470  1
  V  V62  1  0.25064503  0.48956206  0.24994788  1
  V  V63  1  0.87644177  0.37769565  0.50530134  1
  V  V64  1  0.12797502  0.73713464  0.88360558  1
  V  V65  1  0.87389802  0.87108214  0.49887862  1
  V  V66  1  0.25335341  0.37228021  0.63051974  1
  V  V67  1  0.74516045  0.74980798  0.49600865  1
  V  V68  1  0.74938852  0.37696565  0.12162793  1
  V  V69  1  0.75806703  0.49976827  0.75692063  1
  V  V70  1  0.87776504  0.75396121  0.12675660  1
  V  V71  1  0.50314371  0.25797397  0.74734837  1
  V  V72  1  0.50034552  0.50370307  0.50428885  1
  V  V73  1  0.74942675  0.74833806  -0.00058222  1
  V  V74  1  0.00171438  -0.00025980  0.49923668  1
  V  V75  1  0.87665026  0.62800790  0.24858094  1
  V  V76  1  0.60822591  0.50419095  0.11958222  1
  V  V77  1  0.49787289  0.74987643  0.74971568  1
  V  V78  1  0.87469360  0.37919004  -0.00572756  1
  V  V79  1  0.37468624  0.51048677  0.87464765  1
  V  V80  1  0.00704195  0.50798748  0.49762210  1
  V  V81  1  0.37910994  -0.00149506  0.37718600  1
  V  V82  1  0.24106462  0.25068557  0.00395035  1
  V  V83  1  0.37350098  0.13615564  0.74414951  1
  V  V84  1  0.49605958  0.62785872  0.63140648  1
  Zn  Zn85  1  0.00306595  0.13300543  0.13780231  1
  Zn  Zn86  1  0.49826311  0.13440068  0.61800494  1
  Zn  Zn87  1  0.87823279  0.62148967  0.75342606  1
  Zn  Zn88  1  0.00003114  0.62705251  0.62247249  1
  Zn  Zn89  1  0.12774122  0.36775763  0.24454382  1
  Zn  Zn90  1  0.62599148  0.25635799  0.87633071  1
  Zn  Zn91  1  0.37330140  0.37353143  0.50610729  1
  Zn  Zn92  1  0.12562452  0.37400126  0.75203235  1
  Zn  Zn93  1  0.37572198  0.87102949  0.49935421  1
  Zn  Zn94  1  0.62595334  0.74746555  0.87645271  1
  Zn  Zn95  1  0.61522827  0.62598619  0.00361373  1
  Zn  Zn96  1  0.62890406  0.01118412  0.62705569  1
  Zn  Zn97  1  0.11961310  0.24659218  0.87955112  1
  Zn  Zn98  1  0.74974205  0.25103573  -0.00288257  1
  Zn  Zn99  1  0.75055364  0.61972395  0.88066794  1
  Zn  Zn100  1  0.87307236  0.00063624  0.86863151  1
  Zn  Zn101  1  0.62237440  0.00013672  0.12319479  1
  Zn  Zn102  1  0.73624608  0.14281252  0.38642674  1
  Zn  Zn103  1  0.25301645  0.74099188  -0.00632941  1
  Zn  Zn104  1  0.00572416  0.62828916  0.12004358  1
  Zn  Zn105  1  0.87522793  0.74639237  0.62606687  1
  Zn  Zn106  1  -0.00007741  0.87825553  0.87618461  1
  Zn  Zn107  1  0.19031195  0.18618042  0.18784966  1
  Zn  Zn108  1  0.18434094  0.19064618  0.69034415  1
  Zn  Zn109  1  0.21263956  0.66191514  0.15575009  1
  Zn  Zn110  1  0.18144297  0.68820805  0.68895825  1
  Zn  Zn111  1  0.68665803  0.19118174  0.18291671  1
  Zn  Zn112  1  0.67703389  0.18396549  0.69126041  1
  Zn  Zn113  1  0.68737367  0.68609933  0.18098335  1
  Zn  Zn114  1  0.68624426  0.68965562  0.68869652  1
  Zn  Zn115  1  0.31969983  0.30973868  0.32030268  1
  Zn  Zn116  1  0.30910699  0.31602177  0.81755380  1
  Zn  Zn117  1  0.31374846  0.80929912  0.31255260  1
  Zn  Zn118  1  0.31130938  0.81194254  0.81429469  1
  Zn  Zn119  1  0.81554780  0.31300850  0.31065538  1
  Zn  Zn120  1  0.81271302  0.30997955  0.80948712  1
  Zn  Zn121  1  0.81344101  0.81435267  0.31383463  1
  Zn  Zn122  1  0.81340153  0.81273342  0.81576525  1
  Zn  Zn123  1  0.18831508  0.43630776  0.43763624  1
  Zn  Zn124  1  0.18589833  0.43432719  0.93695612  1
  Zn  Zn125  1  0.18848790  0.93463965  0.43779153  1
  Zn  Zn126  1  0.19211279  0.93519664  0.93990012  1
  Zn  Zn127  1  0.68928328  0.32449303  0.43717164  1
  Zn  Zn128  1  0.68232941  0.43921289  0.94017471  1
  Zn  Zn129  1  0.68613689  0.93869997  0.43296654  1
  Zn  Zn130  1  0.68879309  0.94288563  0.93869693  1
  Zn  Zn131  1  0.31326126  0.06373693  0.06218202  1
  Zn  Zn132  1  0.31768730  0.06132144  0.56106074  1
  Zn  Zn133  1  0.31154620  0.55391058  0.06095154  1
  Zn  Zn134  1  0.30804968  0.56501382  0.56174168  1
  Zn  Zn135  1  0.80995358  0.06624641  0.06046333  1
  Zn  Zn136  1  0.81401434  0.04750220  0.56443872  1
  Zn  Zn137  1  0.81545259  0.56205188  0.06288368  1
  Zn  Zn138  1  0.81445180  0.56399532  0.56727164  1
  Zn  Zn139  1  0.43572282  0.43332186  0.19302282  1
  Zn  Zn140  1  0.43128886  0.44041969  0.69184787  1
  Zn  Zn141  1  0.44185057  0.93362412  0.19002490  1
  Zn  Zn142  1  0.43617055  0.93555332  0.68854079  1
  Zn  Zn143  1  0.93807028  0.43853807  0.18148276  1
  Zn  Zn144  1  0.93834879  0.43816650  0.68438908  1
  Zn  Zn145  1  0.95107436  0.97276646  0.20299774  1
  Zn  Zn146  1  0.93794486  0.93827079  0.68551515  1
  Zn  Zn147  1  0.06552682  0.06337466  0.31013104  1
  Zn  Zn148  1  0.05949088  0.06403575  0.81112896  1
  Zn  Zn149  1  0.06379712  0.55839729  0.30379735  1
  Zn  Zn150  1  0.06334894  0.56264411  0.81228625  1
  Zn  Zn151  1  0.56378266  0.05666250  0.31000170  1
  Zn  Zn152  1  0.55987863  0.06591778  0.80968844  1
  Zn  Zn153  1  0.56627378  0.55514460  0.31705363  1
  Zn  Zn154  1  0.56352653  0.56559035  0.81887415  1
  Zn  Zn155  1  0.55528816  0.18058659  0.43676957  1
  Zn  Zn156  1  0.43437961  0.19071782  0.93693138  1
  Zn  Zn157  1  0.42842324  0.68621672  0.44239747  1
  Zn  Zn158  1  0.43475089  0.69117171  0.91946210  1
  Zn  Zn159  1  0.94223097  0.18866538  0.42882544  1
  Zn  Zn160  1  0.93160227  0.19343015  0.93657545  1
  Zn  Zn161  1  0.93684039  0.68888142  0.43528667  1
  Zn  Zn162  1  0.93259392  0.68997250  0.93017504  1
  Zn  Zn163  1  0.05882082  0.31703786  0.06227073  1
  Zn  Zn164  1  0.06733167  0.31822252  0.55965685  1
  Zn  Zn165  1  0.06241124  0.81847956  0.06421034  1
  Zn  Zn166  1  0.06323952  0.81320381  0.56587438  1
  Zn  Zn167  1  0.55953945  0.30998715  0.06158614  1
  Zn  Zn168  1  0.55725160  0.31966774  0.57511231  1
  Zn  Zn169  1  0.56934610  0.82003972  0.06229926  1
  Zn  Zn170  1  0.56127814  0.81464579  0.56204477  1
  O  O171  1  0.12419839  0.11106237  0.13075441  1
  O  O172  1  0.12103526  0.11911740  0.61993048  1
  O  O173  1  0.11675659  0.59957926  0.14129338  1
  O  O174  1  0.12324003  0.61126330  0.62610637  1
  O  O175  1  0.61553495  0.12622822  0.11700173  1
  O  O176  1  0.61135665  0.12294902  0.62714975  1
  O  O177  1  0.62516225  0.60866786  0.12517134  1
  O  O178  1  0.61581154  0.62197710  0.62158708  1
  O  O179  1  0.38760993  0.38106267  0.38395550  1
  O  O180  1  0.38003650  0.38298876  0.88208726  1
  O  O181  1  0.38277830  0.88388936  0.37144334  1
  O  O182  1  0.38027014  0.88177583  0.88512144  1
  O  O183  1  0.88273158  0.38165399  0.38395861  1
  O  O184  1  0.88584277  0.37051454  0.88158801  1
  O  O185  1  0.87918911  0.88172089  0.38597774  1
  O  O186  1  0.87562690  0.88178971  0.88566727  1
  O  O187  1  0.25757138  0.00265390  0.37051511  1
  O  O188  1  0.25950039  0.00556249  0.87024950  1
  O  O189  1  0.25891035  0.50675338  0.37218376  1
  O  O190  1  0.25493323  0.49541084  0.86351645  1
  O  O191  1  0.75495576  0.00528053  0.36820915  1
  O  O192  1  0.75270166  0.01632747  0.87612732  1
  O  O193  1  0.76179020  0.51023610  0.36296421  1
  O  O194  1  0.74294696  0.49411437  0.85852448  1
  O  O195  1  0.23934995  0.49482476  0.13400786  1
  O  O196  1  0.24573022  0.49725694  0.63510172  1
  O  O197  1  0.24630554  0.99309439  0.12907254  1
  O  O198  1  0.24642181  0.99502237  0.62964992  1
  O  O199  1  0.74909328  0.48990010  0.13046625  1
  O  O200  1  0.74108870  0.49530201  0.63170230  1
  O  O201  1  0.75088055  0.99628436  0.13710228  1
  O  O202  1  0.74465166  0.98199717  0.62175474  1
  O  O203  1  -0.00034317  0.38254542  0.26388203  1
  O  O204  1  -0.00120762  0.36969641  0.75548057  1
  O  O205  1  0.00393364  0.87419024  0.25798651  1
  O  O206  1  0.01001661  0.87192912  0.74984931  1
  O  O207  1  0.50765212  0.36653341  0.26012913  1
  O  O208  1  0.48698891  0.36331936  0.75841991  1
  O  O209  1  0.51658560  0.87870237  0.25755013  1
  O  O210  1  0.50377548  0.86855620  0.75873428  1
  O  O211  1  0.49603214  0.12979152  0.24193967  1
  O  O212  1  0.48627302  0.13941291  0.75418673  1
  O  O213  1  0.48857956  0.61921772  0.26206546  1
  O  O214  1  0.50453312  0.64203337  0.74877376  1
  O  O215  1  0.98465928  0.08152513  0.23779109  1
  O  O216  1  0.99412178  0.13287290  0.74118333  1
  O  O217  1  0.99219102  0.63590486  0.25356417  1
  O  O218  1  1.00160635  0.63625843  0.74856992  1
  O  O219  1  0.36618660  0.25584417  0.00796965  1
  O  O220  1  0.36071370  0.24999310  0.50100944  1
  O  O221  1  0.37988033  0.75434257  0.00896939  1
  O  O222  1  0.36175105  0.75171808  0.51104423  1
  O  O223  1  0.87202514  0.26523476  0.00735533  1
  O  O224  1  0.88454758  0.25957398  0.50275448  1
  O  O225  1  0.87139353  0.76186004  0.00799528  1
  O  O226  1  0.86778762  0.75707210  0.50175215  1
  O  O227  1  0.13187611  0.24414793  0.48892527  1
  O  O228  1  0.13732474  0.25453900  1.00322994  1
  O  O229  1  0.13770828  0.75248915  0.50396787  1
  O  O230  1  0.12338895  0.75934133  0.98512998  1
  O  O231  1  0.58469066  0.28642770  0.46943308  1
  O  O232  1  0.62687299  0.24009519  0.99799781  1
  O  O233  1  0.63071823  0.73782086  0.50630986  1
  O  O234  1  0.63588016  0.74897685  1.00313549  1
  O  O235  1  0.48945931  0.24276814  0.13312584  1
  O  O236  1  0.49256806  0.25378991  0.64228755  1
  O  O237  1  0.49714080  0.75468172  0.12843878  1
  O  O238  1  0.48988653  0.74870751  0.63107787  1
  O  O239  1  0.98803254  0.24904584  0.12243295  1
  O  O240  1  1.00854182  0.24528434  0.63100117  1
  O  O241  1  0.99530740  0.75014002  0.13274734  1
  O  O242  1  1.00097790  0.74879924  0.63505456  1
  O  O243  1  0.01184419  0.26014322  0.37642258  1
  O  O244  1  0.00076015  0.25629462  0.86721661  1
  O  O245  1  -0.00681465  0.76434441  0.36776027  1
  O  O246  1  0.01190510  0.75674269  0.86854371  1
  O  O247  1  0.48914744  0.24712229  0.35657310  1
  O  O248  1  0.49571943  0.25988031  0.86585716  1
  O  O249  1  0.49215317  0.76249953  0.38387694  1
  O  O250  1  0.50244227  0.76272007  0.86623262  1
  O  O251  1  0.24604101  0.12949963  0.49706887  1
  O  O252  1  0.25656459  0.13504634  0.99098591  1
  O  O253  1  0.25200736  0.62965082  0.48201492  1
  O  O254  1  0.25008107  0.64341225  1.04643933  1
  O  O255  1  0.76281170  0.13766289  0.51009844  1
  O  O256  1  0.74162043  0.13008005  0.99126007  1
  O  O257  1  0.74220133  0.63094270  0.49803187  1
  O  O258  1  0.75187795  0.63758490  1.00505506  1
  O  O259  1  0.26170926  0.36420399  -0.00653838  1
  O  O260  1  0.25018078  0.36608930  0.50763311  1
  O  O261  1  0.26168000  0.86758446  0.00822195  1
  O  O262  1  0.25113596  0.86633505  0.50618365  1
  O  O263  1  0.75631058  0.37726732  0.00543074  1
  O  O264  1  0.76062501  0.37349768  0.51485006  1
  O  O265  1  0.75846217  0.87565502  0.01004136  1
  O  O266  1  0.75450580  0.86784767  0.50204214  1
  O  O267  1  0.13540933  0.48968381  0.24545809  1
  O  O268  1  0.13571446  0.49771878  0.74509466  1
  O  O269  1  0.13747057  0.99300026  0.24364806  1
  O  O270  1  0.13106727  0.99540294  0.74475588  1
  O  O271  1  0.63100786  0.49454838  0.23863865  1
  O  O272  1  0.62930321  0.50429486  0.74096661  1
  O  O273  1  0.63769463  0.98994377  0.24761020  1
  O  O274  1  0.61486683  0.98599430  0.74703925  1
  O  O275  1  0.37079862  0.00191834  0.25540378  1
  O  O276  1  0.36998454  0.00785278  0.75721942  1
  O  O277  1  0.37276967  0.50255409  0.26271916  1
  O  O278  1  0.35964696  0.49881334  0.76221610  1
  O  O279  1  0.85359969  -0.01343620  0.26297440  1
  O  O280  1  0.88210193  0.01882409  0.74609824  1
  O  O281  1  0.87282385  0.50977930  0.25187906  1
  O  O282  1  0.86096440  0.49939520  0.74578570  1
  O  O283  1  0.11792908  0.36678167  0.37471558  1
  O  O284  1  0.11094194  0.37053067  0.87400565  1
  O  O285  1  0.11406235  0.88150692  0.36731075  1
  O  O286  1  0.12608433  0.87705420  0.86264996  1
  O  O287  1  0.62566905  0.38770100  0.35778526  1
  O  O288  1  0.60441165  0.37794102  0.88275229  1
  O  O289  1  0.61969494  0.87402295  0.36269538  1
  O  O290  1  0.61720089  0.87782256  0.87127365  1
  O  O291  1  0.38146841  0.13167818  0.12975608  1
  O  O292  1  0.37792591  0.11990152  0.64144218  1
  O  O293  1  0.38624292  0.62148906  0.13940828  1
  O  O294  1  0.37889150  0.63635657  0.62304544  1
  O  O295  1  0.86982315  0.14585350  0.11890726  1
  O  O296  1  0.87424982  0.13484330  0.62482012  1
  O  O297  1  0.87876356  0.63129329  0.13695238  1
  O  O298  1  0.88025676  0.62892921  0.63301225  1
  O  O299  1  0.26116223  0.24377104  0.11839692  1
  O  O300  1  0.24127014  0.25986746  0.61789987  1
  O  O301  1  0.24969436  0.76989865  0.14155661  1
  O  O302  1  0.25276457  0.75177072  0.62122959  1
  O  O303  1  0.75580441  0.26509557  0.12368167  1
  O  O304  1  0.74644857  0.25903840  0.63000380  1
  O  O305  1  0.75707092  0.76014211  0.11849205  1
  O  O306  1  0.75119516  0.75856238  0.61406239  1
  O  O307  1  0.24704130  0.24146033  0.38387430  1
  O  O308  1  0.24732896  0.24190121  0.88447555  1
  O  O309  1  0.25335984  0.73584761  0.37990559  1
  O  O310  1  0.23462726  0.75349388  0.87638782  1
  O  O311  1  0.75622602  0.25394111  0.38212444  1
  O  O312  1  0.74589283  0.24162195  0.87475778  1
  O  O313  1  0.75477891  0.74462450  0.38872908  1
  O  O314  1  0.74661214  0.75823609  0.89179555  1
  O  O315  1  -0.00517896  0.11721680  0.00353825  1
  O  O316  1  0.00651938  0.12075651  0.50328543  1
  O  O317  1  -0.00810266  0.61402366  -0.00057760  1
  O  O318  1  -0.00477779  0.61182253  0.49748041  1
  O  O319  1  0.50487306  0.13194445  0.00790611  1
  O  O320  1  0.49151325  0.10681716  0.50072198  1
  O  O321  1  0.49152976  0.64194272  0.01213472  1
  O  O322  1  0.50289524  0.62039372  0.50682007  1
  O  O323  1  0.49056113  0.39534596  0.51054449  1
  O  O324  1  0.48350866  0.36732451  0.99244954  1
  O  O325  1  0.49765985  0.88182669  0.49091243  1
  O  O326  1  0.49517481  0.87385676  0.98885444  1
  O  O327  1  0.99425429  0.38566143  0.49229617  1
  O  O328  1  0.99246252  0.38311214  0.99142470  1
  O  O329  1  0.99358507  0.87743801  0.49510607  1
  O  O330  1  0.98711925  0.88170056  1.00002388  1
  O  O331  1  0.49694224  0.49070578  0.38875634  1
  O  O332  1  0.48227145  0.49474978  0.86555858  1
  O  O333  1  0.49416417  0.99113967  0.38391851  1
  O  O334  1  0.48690953  0.99446658  0.86911833  1
  O  O335  1  0.99641791  0.49515211  0.37989505  1
  O  O336  1  1.00560166  0.49250528  0.88310403  1
  O  O337  1  0.99172053  0.98983876  0.38146509  1
  O  O338  1  0.99801808  0.99949846  0.88368765  1
  O  O339  1  0.01356350  -0.00682418  0.10855602  1
  O  O340  1  0.00541991  0.00856658  0.61696359  1
  O  O341  1  0.00753888  0.50107647  0.11359299  1
  O  O342  1  0.00979350  0.49946635  0.61563788  1
  O  O343  1  0.50080484  0.01465435  0.13035648  1
  O  O344  1  0.49591624  -0.00625624  0.60834960  1
  O  O345  1  0.51046203  0.49383610  0.12882816  1
  O  O346  1  0.50226514  0.50840516  0.62685579  1
  O  O347  1  0.25516073  0.38637960  0.26130672  1
  O  O348  1  0.24611433  0.38013042  0.74451836  1
  O  O349  1  0.24917858  0.88333920  0.24838474  1
  O  O350  1  0.24409786  0.88129213  0.74429313  1
  O  O351  1  0.74404227  0.38170763  0.24189414  1
  O  O352  1  0.75692271  0.38542162  0.73697684  1
  O  O353  1  0.74136624  0.87952075  0.24681837  1
  O  O354  1  0.74097768  0.86718364  0.74139957  1
  O  O355  1  0.25809932  0.11657002  0.25535435  1
  O  O356  1  0.25933803  0.12284197  0.75530905  1
  O  O357  1  0.26296797  0.61223352  0.25723513  1
  O  O358  1  0.24670045  0.61254397  0.74945697  1
  O  O359  1  0.74444321  0.11413575  0.24953729  1
  O  O360  1  0.75837482  0.13281524  0.75591670  1
  O  O361  1  0.75707547  0.62304625  0.25182868  1
  O  O362  1  0.74738847  0.60896214  0.74731697  1
  O  O363  1  0.36937563  0.10836149  0.36635390  1
  O  O364  1  0.36728631  0.11857490  0.86768047  1
  O  O365  1  0.36998547  0.61646035  0.36822035  1
  O  O366  1  0.36924316  0.61004212  0.87923048  1
  O  O367  1  0.87214161  0.11361203  0.37897663  1
  O  O368  1  0.86674907  0.12589039  0.86512787  1
  O  O369  1  0.86952521  0.62331995  0.36403080  1
  O  O370  1  0.86256536  0.63396058  0.86560110  1
  O  O371  1  0.11845953  0.38850271  0.12966208  1
  O  O372  1  0.13551252  0.38743089  0.62664124  1
  O  O373  1  0.13430536  0.88512973  0.13123772  1
  O  O374  1  0.13111736  0.88161736  0.63567397  1
  O  O375  1  0.63049973  0.38356204  0.12979826  1
  O  O376  1  0.63448218  0.38835795  0.62281322  1
  O  O377  1  0.63707649  0.87978576  0.13486330  1
  O  O378  1  0.63149230  0.87482747  0.63334379  1
  O  O379  1  0.13456271  0.25028379  0.26464880  1
  O  O380  1  0.11117876  0.25157766  0.75470054  1
  O  O381  1  0.11180127  0.75788018  0.24571420  1
  O  O382  1  0.11826165  0.75839996  0.75849498  1
  O  O383  1  0.61483576  0.26108065  0.24074079  1
  O  O384  1  0.60579989  0.25223118  0.75620791  1
  O  O385  1  0.63221146  0.76284056  0.24677285  1
  O  O386  1  0.61633899  0.76232599  0.75171307  1
  O  O387  1  0.37865799  0.24520795  0.24169491  1
  O  O388  1  0.37562036  0.23871444  0.75687021  1
  O  O389  1  0.37672754  0.73260263  0.25443157  1
  O  O390  1  0.38281098  0.75605494  0.74249505  1
  O  O391  1  0.87655998  0.25829752  0.23248914  1
  O  O392  1  0.88832766  0.24062740  0.74971918  1
  O  O393  1  0.88143932  0.74625332  0.24549114  1
  O  O394  1  0.89068269  0.75971659  0.74844670  1
  O  O395  1  0.37957728  0.50612338  0.48959191  1
  O  O396  1  0.36739700  0.49111578  0.98622333  1
  O  O397  1  0.38098707  0.99333331  0.49091162  1
  O  O398  1  0.37117926  0.99254138  0.99045037  1
  O  O399  1  0.88045796  0.49442639  0.49381902  1
  O  O400  1  0.88400205  0.48837838  1.00514360  1
  O  O401  1  0.88160912  0.99089775  0.49142017  1
  O  O402  1  0.88293348  0.99657837  1.00038678  1
  O  O403  1  0.11836422  -0.00481961  0.00576350  1
  O  O404  1  0.12092446  0.00589567  0.50459951  1
  O  O405  1  0.11903374  0.49561181  0.01060703  1
  O  O406  1  0.11780503  0.49578785  0.50737032  1
  O  O407  1  0.62820387  0.01610741  0.00457497  1
  O  O408  1  0.61095858  -0.00772926  0.50242340  1
  O  O409  1  0.62397368  0.50273119  0.01576105  1
  O  O410  1  0.61282271  0.51540606  0.51638478  1
  O  O411  1  0.37886790  0.36540451  0.11814483  1
  O  O412  1  0.35786185  0.38340309  0.62386930  1
  O  O413  1  0.37125008  0.88400818  0.11400556  1
  O  O414  1  0.36585963  0.86463872  0.62537825  1
  O  O415  1  0.86788728  0.36999851  0.11751008  1
  O  O416  1  0.86963883  0.37962224  0.61203135  1
  O  O417  1  0.86459013  0.87542867  0.12184643  1
  O  O418  1  0.86884744  0.87555948  0.61263634  1
  O  O419  1  0.13135278  0.12919581  0.37919415  1
  O  O420  1  0.14001618  0.12422329  0.86911619  1
  O  O421  1  0.14138459  0.61969599  0.36511614  1
  O  O422  1  0.12408881  0.63870962  0.87708726  1
  O  O423  1  0.62615871  0.11770962  0.37887142  1
  O  O424  1  0.62848417  0.12737033  0.87925402  1
  O  O425  1  0.63270032  0.61764426  0.38738102  1
  O  O426  1  0.63072848  0.62837024  0.88549885  1
