# generated using pymatgen
data_V85Zn86O256
_symmetry_space_group_name_H-M   'P 1'
_cell_length_a   16.95768734
_cell_length_b   16.97277455
_cell_length_c   16.96707166
_cell_angle_alpha   90.01266213
_cell_angle_beta   89.99367001
_cell_angle_gamma   89.99658748
_symmetry_Int_Tables_number   1
_chemical_formula_structural   V85Zn86O256
_chemical_formula_sum   'V85 Zn86 O256'
_cell_volume   4883.44551285
_cell_formula_units_Z   1
loop_
 _symmetry_equiv_pos_site_id
 _symmetry_equiv_pos_as_xyz
  1  'x, y, z'
loop_
 _atom_site_type_symbol
 _atom_site_label
 _atom_site_symmetry_multiplicity
 _atom_site_fract_x
 _atom_site_fract_y
 _atom_site_fract_z
 _atom_site_occupancy
  V  V0  1  0.49655191  0.49307149  0.50117852  1
  V  V1  1  0.24351348  0.50751426  0.25487514  1
  V  V2  1  0.85983383  0.25100547  0.12008793  1
  V  V3  1  0.63263210  0.25404321  0.88486324  1
  V  V4  1  0.87380890  0.12573396  0.75757592  1
  V  V5  1  0.75322546  0.50096399  0.75282636  1
  V  V6  1  0.86779115  -0.00888043  0.88370233  1
  V  V7  1  0.24727076  0.00878327  0.76145889  1
  V  V8  1  0.86901570  0.62578208  0.24411578  1
  V  V9  1  0.24011114  0.87320511  0.63466986  1
  V  V10  1  -0.00354546  0.62493218  0.11449141  1
  V  V11  1  0.86911980  0.76432085  0.11920965  1
  V  V12  1  0.00142082  0.62011734  0.62091152  1
  V  V13  1  0.44112114  0.18203482  0.68776010  1
  V  V14  1  0.25545425  -0.00058417  0.25131156  1
  V  V15  1  0.49436429  0.62504717  0.12736255  1
  V  V16  1  0.61180372  0.75135472  0.86673333  1
  V  V17  1  0.62713630  0.50158015  0.62730126  1
  V  V18  1  -0.00094471  0.74961565  0.24594408  1
  V  V19  1  0.62311148  0.62501320  0.49823160  1
  V  V20  1  0.00230808  0.12493368  0.62601492  1
  V  V21  1  0.75419090  0.62337583  0.37091259  1
  V  V22  1  0.49345468  0.88334166  0.37748103  1
  V  V23  1  0.12511150  0.62093394  -0.00345215  1
  V  V24  1  0.75145081  0.12979072  0.88803636  1
  V  V25  1  0.13677547  0.12293758  0.49899656  1
  V  V26  1  0.12841904  0.61955273  0.48990615  1
  V  V27  1  0.24921046  0.62182686  0.86614649  1
  V  V28  1  0.25747462  0.25675706  0.51265723  1
  V  V29  1  0.87499203  0.74777622  0.62329002  1
  V  V30  1  0.87732099  0.24999074  0.62805047  1
  V  V31  1  0.26382791  0.86742901  0.12514381  1
  V  V32  1  0.38633675  0.87001011  -0.00622205  1
  V  V33  1  0.63571742  0.88257395  0.24974390  1
  V  V34  1  0.38150184  0.90790792  0.51666760  1
  V  V35  1  0.86923915  0.11947747  0.24720172  1
  V  V36  1  0.74595766  0.11597398  0.37531761  1
  V  V37  1  0.12485125  0.75391505  0.86831543  1
  V  V38  1  0.62308238  0.36957056  0.75247098  1
  V  V39  1  0.87639649  0.37915955  0.50257270  1
  V  V40  1  0.63458486  -0.00250641  0.12007140  1
  V  V41  1  0.74940784  0.74975921  0.49913658  1
  V  V42  1  0.12595800  0.87608960  0.24523445  1
  V  V43  1  0.37331135  0.74589599  0.63178490  1
  V  V44  1  0.37041590  0.62951955  0.25137674  1
  V  V45  1  0.62243910  0.75068886  0.37237662  1
  V  V46  1  0.12932384  0.49501575  0.62727906  1
  V  V47  1  0.86214237  0.37381383  0.00310822  1
  V  V48  1  0.00367587  0.37597204  0.88503902  1
  V  V49  1  0.49425626  0.12589853  0.14449675  1
  V  V50  1  0.00443154  0.87515126  0.37198304  1
  V  V51  1  0.25454249  0.74747698  0.49611180  1
  V  V52  1  0.26212053  0.24961827  0.00180000  1
  V  V53  1  0.13353585  0.24847821  0.87624968  1
  V  V54  1  0.00007614  0.24938760  0.24500633  1
  V  V55  1  0.12584836  0.12370379  -0.00274940  1
  V  V56  1  0.12230468  0.24510988  0.37258520  1
  V  V57  1  0.88348661  0.50207522  0.88228361  1
  V  V58  1  0.50341606  0.37928712  0.88076811  1
  V  V59  1  0.00358788  0.00273605  0.49822611  1
  V  V60  1  0.62109075  0.24992709  0.37066033  1
  V  V61  1  0.61475263  0.12966700  0.00547279  1
  V  V62  1  0.62670248  0.62541502  0.00546989  1
  V  V63  1  0.63686847  0.49504691  0.13525082  1
  V  V64  1  0.12304489  0.49865986  0.12153416  1
  V  V65  1  0.87670823  0.62562505  0.75049361  1
  V  V66  1  0.87812645  0.87235530  0.49538652  1
  V  V67  1  0.36993693  0.50445660  0.38055793  1
  V  V68  1  0.50161520  0.62930800  0.63400324  1
  V  V69  1  0.37230330  0.49830487  0.87384149  1
  V  V70  1  -0.00360913  0.12418809  0.12068508  1
  V  V71  1  0.83959469  0.46063433  0.32761854  1
  V  V72  1  0.30748656  0.17718347  0.31549405  1
  V  V73  1  0.49621357  0.75422354  0.24680010  1
  V  V74  1  0.75114579  0.37466729  0.62845846  1
  V  V75  1  0.50103158  0.37689036  0.36561330  1
  V  V76  1  0.87460782  -0.00017834  0.37077793  1
  V  V77  1  0.74672345  0.24619504  0.50410250  1
  V  V78  1  0.12961738  0.74418394  0.37124602  1
  V  V79  1  0.00006197  0.87772288  0.85893179  1
  V  V80  1  -0.00178878  -0.01173091  0.00079809  1
  V  V81  1  0.61759693  0.11073639  0.51649187  1
  V  V82  1  0.00411874  0.25145178  0.75363718  1
  V  V83  1  0.74971573  0.76969685  0.00004143  1
  V  V84  1  0.75203650  0.62823997  0.87850641  1
  Zn  Zn85  1  0.44877925  0.03857637  -0.04636550  1
  Zn  Zn86  1  0.38305012  0.25141184  0.13950914  1
  Zn  Zn87  1  0.61689781  0.88698072  0.73020874  1
  Zn  Zn88  1  0.00175340  0.75563226  0.74392089  1
  Zn  Zn89  1  0.65063725  0.38035442  0.25298549  1
  Zn  Zn90  1  -0.00128862  0.37489361  0.37284831  1
  Zn  Zn91  1  0.12636484  -0.00131591  0.12258801  1
  Zn  Zn92  1  0.74709036  -0.00010412  0.74204354  1
  Zn  Zn93  1  0.11828260  -0.00882780  0.63279762  1
  Zn  Zn94  1  0.12330286  0.37564668  0.24842805  1
  Zn  Zn95  1  0.49897727  0.50056397  0.00661589  1
  Zn  Zn96  1  0.13202043  0.38109023  0.75521565  1
  Zn  Zn97  1  0.74410097  0.88105237  0.62161858  1
  Zn  Zn98  1  0.37587555  0.00805276  0.37009566  1
  Zn  Zn99  1  0.26928510  0.38324181  0.62694065  1
  Zn  Zn100  1  0.25434513  0.37549495  0.12550699  1
  Zn  Zn101  1  0.37849481  0.62714525  0.75578227  1
  Zn  Zn102  1  -0.00574966  0.50006662  0.48447655  1
  Zn  Zn103  1  0.25158088  0.74776909  0.00232656  1
  Zn  Zn104  1  0.37809381  0.37705244  0.00674649  1
  Zn  Zn105  1  0.27137342  0.11627485  0.88001417  1
  Zn  Zn106  1  0.49189222  0.88244661  0.85606992  1
  Zn  Zn107  1  0.18448800  0.18998104  0.17663354  1
  Zn  Zn108  1  0.18942434  0.18424684  0.68953591  1
  Zn  Zn109  1  0.18637459  0.68628339  0.18576399  1
  Zn  Zn110  1  0.18446568  0.68491686  0.68642952  1
  Zn  Zn111  1  0.68422896  0.18470846  0.19097266  1
  Zn  Zn112  1  0.68617115  0.18651509  0.69402270  1
  Zn  Zn113  1  0.68587442  0.69202278  0.18493247  1
  Zn  Zn114  1  0.68906122  0.69115115  0.68811431  1
  Zn  Zn115  1  0.30867461  0.33915463  0.31905150  1
  Zn  Zn116  1  0.34125138  0.32935383  0.76436866  1
  Zn  Zn117  1  0.31398573  0.81452714  0.31631734  1
  Zn  Zn118  1  0.31180661  0.81174214  0.81337029  1
  Zn  Zn119  1  0.81022244  0.29367708  0.31315979  1
  Zn  Zn120  1  0.81310904  0.31355034  0.81686177  1
  Zn  Zn121  1  0.81364939  0.80911344  0.31164727  1
  Zn  Zn122  1  0.80559318  0.81553226  0.81033377  1
  Zn  Zn123  1  0.18505661  0.43350169  0.43807608  1
  Zn  Zn124  1  0.19180664  0.43664498  0.93896335  1
  Zn  Zn125  1  0.19809823  0.93719292  0.44038469  1
  Zn  Zn126  1  0.18543055  0.93311010  0.94022152  1
  Zn  Zn127  1  0.68592159  0.43583531  0.44070881  1
  Zn  Zn128  1  0.68834164  0.44522900  0.94148839  1
  Zn  Zn129  1  0.68523436  0.93453603  0.43980335  1
  Zn  Zn130  1  0.64625378  0.96446345  0.90182877  1
  Zn  Zn131  1  0.31352812  0.06051628  0.06761124  1
  Zn  Zn132  1  0.32570367  0.05774503  0.57404289  1
  Zn  Zn133  1  0.31073316  0.56207342  0.06013972  1
  Zn  Zn134  1  0.31172636  0.56637542  0.56174735  1
  Zn  Zn135  1  0.80748393  0.05773429  0.06098136  1
  Zn  Zn136  1  0.81375621  0.06385938  0.56129333  1
  Zn  Zn137  1  0.81303480  0.56231578  0.06012147  1
  Zn  Zn138  1  0.81018261  0.56313394  0.56081760  1
  Zn  Zn139  1  0.43620490  0.44131587  0.18814012  1
  Zn  Zn140  1  0.44277795  0.44578172  0.69060802  1
  Zn  Zn141  1  0.44297360  0.94502868  0.18591257  1
  Zn  Zn142  1  0.43998778  0.95312395  0.68941056  1
  Zn  Zn143  1  0.94292463  0.43505910  0.17599949  1
  Zn  Zn144  1  0.94372419  0.43769706  0.69090363  1
  Zn  Zn145  1  0.93787241  0.93910330  0.18583153  1
  Zn  Zn146  1  0.91273976  0.94742780  0.67871799  1
  Zn  Zn147  1  0.06544890  0.06339478  0.31006487  1
  Zn  Zn148  1  0.06570396  0.05854336  0.81194860  1
  Zn  Zn149  1  0.04802100  0.55726138  0.31089170  1
  Zn  Zn150  1  0.06121489  0.56450354  0.80948320  1
  Zn  Zn151  1  0.56558770  0.05991190  0.31493447  1
  Zn  Zn152  1  0.55710271  0.06450169  0.80545672  1
  Zn  Zn153  1  0.56146018  0.56171067  0.31085635  1
  Zn  Zn154  1  0.56456215  0.56178144  0.81639448  1
  Zn  Zn155  1  0.44419189  0.19269992  0.45093087  1
  Zn  Zn156  1  0.42466624  0.20900660  0.88602980  1
  Zn  Zn157  1  0.43884640  0.68562970  0.43735496  1
  Zn  Zn158  1  0.43323888  0.69009607  0.94472019  1
  Zn  Zn159  1  0.93716606  0.18768530  0.43671616  1
  Zn  Zn160  1  0.93952084  0.19000137  0.94073506  1
  Zn  Zn161  1  0.93985993  0.68480823  0.43297397  1
  Zn  Zn162  1  0.93622911  0.69608540  0.93804251  1
  Zn  Zn163  1  0.06203417  0.31200741  0.06126609  1
  Zn  Zn164  1  0.06343001  0.31063990  0.55843207  1
  Zn  Zn165  1  0.06470645  0.80910790  0.05931914  1
  Zn  Zn166  1  0.06271053  0.80707828  0.55743288  1
  Zn  Zn167  1  0.56240471  0.31133135  0.06819772  1
  Zn  Zn168  1  0.55895263  0.30897480  0.56577677  1
  Zn  Zn169  1  0.56652414  0.81190282  0.06587636  1
  Zn  Zn170  1  0.55690148  0.81598826  0.56324020  1
  O  O171  1  0.11580654  0.12330888  0.11270132  1
  O  O172  1  0.11727905  0.12142434  0.61591208  1
  O  O173  1  0.11603883  0.62280951  0.11587956  1
  O  O174  1  0.11774129  0.61559789  0.61530986  1
  O  O175  1  0.62069213  0.11928281  0.12305398  1
  O  O176  1  0.63925311  0.12110846  0.61503762  1
  O  O177  1  0.61826024  0.61988734  0.12166712  1
  O  O178  1  0.62055823  0.62338620  0.61881537  1
  O  O179  1  0.38687776  0.39300162  0.37785773  1
  O  O180  1  0.38965911  0.38250226  0.87085178  1
  O  O181  1  0.38116400  0.87759162  0.38541270  1
  O  O182  1  0.37719074  0.87053366  0.88800721  1
  O  O183  1  0.87224424  0.36989693  0.38517094  1
  O  O184  1  0.88139002  0.38126580  0.88480223  1
  O  O185  1  0.88267890  0.87869712  0.37639273  1
  O  O186  1  0.88051801  0.88582244  0.87287914  1
  O  O187  1  0.23900064  -0.00149467  0.35223711  1
  O  O188  1  0.24123630  -0.00117451  0.86591098  1
  O  O189  1  0.25676437  0.49594856  0.36875593  1
  O  O190  1  0.25933946  0.50848823  0.87984527  1
  O  O191  1  0.75690887  0.00963620  0.38110874  1
  O  O192  1  0.76088178  0.01130602  0.88400983  1
  O  O193  1  0.75853465  0.51126360  0.38227246  1
  O  O194  1  0.76256322  0.50781675  0.87246482  1
  O  O195  1  0.23635036  0.50393132  0.13177495  1
  O  O196  1  0.23267959  0.49939996  0.61466477  1
  O  O197  1  0.24632262  0.98774963  0.13438823  1
  O  O198  1  0.24334866  0.98270662  0.62943635  1
  O  O199  1  0.73493122  0.50613957  0.12299155  1
  O  O200  1  0.74572503  0.49539814  0.63139799  1
  O  O201  1  0.73388528  1.00677773  0.13217292  1
  O  O202  1  0.79815958  0.98538060  0.63701953  1
  O  O203  1  -0.00195175  0.35928009  0.24706474  1
  O  O204  1  0.00356974  0.36747311  0.76307680  1
  O  O205  1  0.00785995  0.86976565  0.25175866  1
  O  O206  1  -0.00867210  0.87861376  0.75708187  1
  O  O207  1  0.50416341  0.38363889  0.26478006  1
  O  O208  1  0.52066907  0.38935656  0.76222188  1
  O  O209  1  0.50245295  0.86801595  0.25733292  1
  O  O210  1  0.50262891  0.88190445  0.74345513  1
  O  O211  1  0.50368170  0.12619118  0.24378785  1
  O  O212  1  0.48968864  0.09887687  0.72450399  1
  O  O213  1  0.49210004  0.63223885  0.24636485  1
  O  O214  1  0.50570999  0.62287689  0.73666109  1
  O  O215  1  0.99371173  0.13214548  0.24200724  1
  O  O216  1  0.99443228  0.13144817  0.74816964  1
  O  O217  1  0.98822465  0.63218717  0.23822595  1
  O  O218  1  0.99228318  0.62656664  0.73861146  1
  O  O219  1  0.36404495  0.25374611  -0.01108606  1
  O  O220  1  0.35502192  0.24859668  0.49502979  1
  O  O221  1  0.36832656  0.76391631  0.00480005  1
  O  O222  1  0.35917363  0.73375050  0.50677300  1
  O  O223  1  0.87618965  0.26247176  0.00653085  1
  O  O224  1  0.86505521  0.25533888  0.50536475  1
  O  O225  1  0.85924490  0.75017575  0.00526970  1
  O  O226  1  0.87093136  0.75015621  0.50254488  1
  O  O227  1  0.13106673  0.24290317  0.48985428  1
  O  O228  1  0.13098276  0.24260092  0.99565634  1
  O  O229  1  0.13231972  0.74029217  0.49096073  1
  O  O230  1  0.12352398  0.73738092  0.98873420  1
  O  O231  1  0.63759714  0.24657067  0.49645980  1
  O  O232  1  0.62738711  0.24338010  0.99705345  1
  O  O233  1  0.62898669  0.74271736  0.49057137  1
  O  O234  1  0.63411674  0.74053485  0.99993409  1
  O  O235  1  0.50158341  0.23349054  0.12738047  1
  O  O236  1  0.50619231  0.24242410  0.63793813  1
  O  O237  1  0.50627022  0.74133836  0.14011056  1
  O  O238  1  0.48516393  0.73787272  0.61208531  1
  O  O239  1  0.99215876  0.24276259  0.12903595  1
  O  O240  1  0.99662405  0.24583843  0.63245270  1
  O  O241  1  0.99171620  0.74406221  0.12616496  1
  O  O242  1  0.99601620  0.73593234  0.62200672  1
  O  O243  1  0.00539660  0.24886414  0.36400401  1
  O  O244  1  0.00898504  0.25711233  0.87303748  1
  O  O245  1  0.00724938  0.75659150  0.36699673  1
  O  O246  1  0.00300206  0.76187738  0.87170439  1
  O  O247  1  0.51127979  0.26331941  0.38640810  1
  O  O248  1  0.51965512  0.27012515  0.87900104  1
  O  O249  1  0.50351199  0.75549544  0.36572375  1
  O  O250  1  0.51026581  0.74464936  0.87645423  1
  O  O251  1  0.23775583  0.13304470  0.50573921  1
  O  O252  1  0.24105879  0.12932119  1.00285662  1
  O  O253  1  0.23460296  0.62996668  0.50062803  1
  O  O254  1  0.24002851  0.62839421  0.99323679  1
  O  O255  1  0.74763353  0.13019865  0.49510860  1
  O  O256  1  0.74330429  0.12702086  0.99176845  1
  O  O257  1  0.74507535  0.63000325  0.49102678  1
  O  O258  1  0.74209821  0.62718041  0.99380229  1
  O  O259  1  0.25160939  0.36366471  0.00411341  1
  O  O260  1  0.24507972  0.36101622  0.50490151  1
  O  O261  1  0.25196208  0.87266408  0.01501357  1
  O  O262  1  0.25656173  0.86216246  0.50913651  1
  O  O263  1  0.76371550  0.37691864  -0.00408432  1
  O  O264  1  0.75478149  0.36599236  0.50842386  1
  O  O265  1  0.74295361  0.86456896  -0.00318506  1
  O  O266  1  0.76133074  0.86623630  0.49653683  1
  O  O267  1  0.12841357  0.50361923  0.24378129  1
  O  O268  1  0.11822318  0.50159445  0.73083209  1
  O  O269  1  0.12662423  0.99051693  0.24345108  1
  O  O270  1  0.13686410  0.99824646  0.74659421  1
  O  O271  1  0.62947238  0.50189165  0.23967944  1
  O  O272  1  0.63606003  0.49635735  0.74660956  1
  O  O273  1  0.62359411  0.99055979  0.24311352  1
  O  O274  1  0.64060340  0.99222583  0.78049689  1
  O  O275  1  0.36416694  -0.00397496  0.25321849  1
  O  O276  1  0.34451340  -0.01301690  0.74653630  1
  O  O277  1  0.36524747  0.51024929  0.25744365  1
  O  O278  1  0.38565815  0.51036408  0.76961737  1
  O  O279  1  0.88086504  0.01244131  0.25403323  1
  O  O280  1  0.88090693  0.01659338  0.76896760  1
  O  O281  1  0.87645593  0.50999044  0.23970234  1
  O  O282  1  0.87224886  0.50507678  0.75825491  1
  O  O283  1  0.12154859  0.35971831  0.37084413  1
  O  O284  1  0.11911599  0.36759871  0.87744063  1
  O  O285  1  0.12373523  0.86836611  0.36225230  1
  O  O286  1  0.11379484  0.86441642  0.87904168  1
  O  O287  1  0.62132269  0.36927920  0.37367084  1
  O  O288  1  0.62716962  0.37396296  0.87295131  1
  O  O289  1  0.61598891  0.86991921  0.36974689  1
  O  O290  1  0.62032458  0.85186104  0.88464374  1
  O  O291  1  0.39011548  0.12704157  0.12581719  1
  O  O292  1  0.36801005  0.14671206  0.62776804  1
  O  O293  1  0.38455666  0.61877855  0.13523174  1
  O  O294  1  0.38316998  0.62725154  0.62963755  1
  O  O295  1  0.87587138  0.13002133  0.12942896  1
  O  O296  1  0.88169940  0.13325481  0.63644644  1
  O  O297  1  0.87985578  0.63213937  0.12657675  1
  O  O298  1  0.88155544  0.63124379  0.62551087  1
  O  O299  1  0.25841415  0.25122719  0.11610503  1
  O  O300  1  0.24013129  0.25231511  0.61308769  1
  O  O301  1  0.24503862  0.76459048  0.12559286  1
  O  O302  1  0.25108418  0.75115185  0.61771786  1
  O  O303  1  0.76144973  0.24969005  0.13361591  1
  O  O304  1  0.75725124  0.25410620  0.62157644  1
  O  O305  1  0.75532411  0.74802124  0.11013826  1
  O  O306  1  0.76076495  0.74536251  0.61432665  1
  O  O307  1  0.24576989  0.24427005  0.37210501  1
  O  O308  1  0.23682355  0.24000963  0.88377474  1
  O  O309  1  0.24070915  0.75295839  0.38218622  1
  O  O310  1  0.24023873  0.74295791  0.87782668  1
  O  O311  1  0.74470169  0.23606907  0.38767029  1
  O  O312  1  0.74211405  0.24538651  0.87593267  1
  O  O313  1  0.74535721  0.74012671  0.37987830  1
  O  O314  1  0.74653628  0.74500937  0.88659087  1
  O  O315  1  0.00530380  0.11757274  0.00483212  1
  O  O316  1  0.00575438  0.11878273  0.50393970  1
  O  O317  1  0.00342899  0.62997266  0.00905076  1
  O  O318  1  0.00695536  0.62145320  0.50374593  1
  O  O319  1  0.51363361  0.12386596  0.00970320  1
  O  O320  1  0.51890538  0.12897828  0.50559024  1
  O  O321  1  0.50719204  0.62792202  0.01257098  1
  O  O322  1  0.50840451  0.61488480  0.50407492  1
  O  O323  1  0.51070235  0.38982068  0.49676193  1
  O  O324  1  0.50101193  0.37960641  0.99480563  1
  O  O325  1  0.48165920  0.86663117  0.49032807  1
  O  O326  1  0.48682377  0.86589718  1.00381824  1
  O  O327  1  0.98861899  0.37301514  0.49543768  1
  O  O328  1  0.99233571  0.37177693  0.98836948  1
  O  O329  1  0.99870095  0.88179938  0.49155931  1
  O  O330  1  1.00401461  0.88590856  0.99494474  1
  O  O331  1  0.49664797  0.49639676  0.38366383  1
  O  O332  1  0.49957544  0.49417351  0.88362012  1
  O  O333  1  0.49697972  0.98719926  0.37349343  1
  O  O334  1  0.52587620  0.98996752  0.88882284  1
  O  O335  1  0.97342378  0.49068813  0.36721756  1
  O  O336  1  0.99047483  0.49299403  0.87050822  1
  O  O337  1  0.99712493  0.99473123  0.37857240  1
  O  O338  1  0.99360628  0.99306662  0.88235998  1
  O  O339  1  0.00034417  0.00615158  0.11619073  1
  O  O340  1  -0.00175418  0.00492639  0.61459696  1
  O  O341  1  0.01280872  0.51163924  0.12757620  1
  O  O342  1  0.00315474  0.51040966  0.61941319  1
  O  O343  1  0.51304117  0.01595203  0.12966896  1
  O  O344  1  0.42458633  -0.01518679  0.58176963  1
  O  O345  1  0.50971260  0.51221904  0.12787711  1
  O  O346  1  0.50833933  0.50920382  0.61845651  1
  O  O347  1  0.24322247  0.39358745  0.24502477  1
  O  O348  1  0.24048989  0.36893119  0.73973845  1
  O  O349  1  0.24502705  0.87816341  0.24116037  1
  O  O350  1  0.24377658  0.86657279  0.73587469  1
  O  O351  1  0.77074601  0.39377203  0.27541537  1
  O  O352  1  0.74739006  0.38181674  0.74652420  1
  O  O353  1  0.73427051  0.86883210  0.25704420  1
  O  O354  1  0.74441858  0.87653095  0.74099588  1
  O  O355  1  0.25045181  0.12100096  0.24839661  1
  O  O356  1  0.24716787  0.11372387  0.75898677  1
  O  O357  1  0.25611946  0.61716723  0.24644041  1
  O  O358  1  0.24854652  0.62554167  0.76330373  1
  O  O359  1  0.75844636  0.12905864  0.26264550  1
  O  O360  1  0.76034787  0.12517575  0.76333313  1
  O  O361  1  0.76071529  0.63205201  0.25448994  1
  O  O362  1  0.75750444  0.62130035  0.75749965  1
  O  O363  1  0.37513512  0.12888336  0.37492820  1
  O  O364  1  0.38147807  0.11036334  0.89950424  1
  O  O365  1  0.38081827  0.61322124  0.36552434  1
  O  O366  1  0.36533193  0.62151705  0.87832607  1
  O  O367  1  0.86800197  0.12105282  0.36746584  1
  O  O368  1  0.86877119  0.12479213  0.87418734  1
  O  O369  1  0.86575779  0.62918152  0.36154619  1
  O  O370  1  0.87487278  0.61844097  0.87306232  1
  O  O371  1  0.12338857  0.38592685  0.12606213  1
  O  O372  1  0.11412674  0.39219762  0.62183472  1
  O  O373  1  0.12895855  0.87275141  0.13544236  1
  O  O374  1  0.13622807  0.87073356  0.61714353  1
  O  O375  1  0.62355278  0.39059493  0.13193822  1
  O  O376  1  0.63166819  0.37921585  0.63475955  1
  O  O377  1  0.61943853  0.88980813  0.13311842  1
  O  O378  1  0.63136744  0.87360710  0.61639931  1
  O  O379  1  0.11678905  0.24763059  0.25338122  1
  O  O380  1  0.11737363  0.24575886  0.76088953  1
  O  O381  1  0.11892740  0.75451697  0.25280078  1
  O  O382  1  0.11828594  0.74103320  0.76357060  1
  O  O383  1  0.63849958  0.25892190  0.26760212  1
  O  O384  1  0.63475512  0.26240213  0.76274665  1
  O  O385  1  0.61613610  0.75685599  0.25484565  1
  O  O386  1  0.62860229  0.74712400  0.76605658  1
  O  O387  1  0.35960447  0.24590688  0.26234711  1
  O  O388  1  0.39672871  0.23038974  0.77139988  1
  O  O389  1  0.38046005  0.73801423  0.25732474  1
  O  O390  1  0.36928401  0.74505615  0.73612111  1
  O  O391  1  0.88206944  0.23733695  0.24246753  1
  O  O392  1  0.88306899  0.24274498  0.75120261  1
  O  O393  1  0.87882650  0.74368841  0.23980959  1
  O  O394  1  0.87606375  0.74321402  0.73939882  1
  O  O395  1  0.38481688  0.50848977  0.49354020  1
  O  O396  1  0.37820594  0.49796711  0.99043018  1
  O  O397  1  0.32769873  0.99279930  0.47615474  1
  O  O398  1  0.37285563  0.97604041  1.01388374  1
  O  O399  1  0.87272947  0.48310848  0.50761035  1
  O  O400  1  0.87535430  0.48823911  0.99413785  1
  O  O401  1  0.88920050  0.99676862  0.48948338  1
  O  O402  1  0.88508127  1.00623123  0.99310171  1
  O  O403  1  0.11673964  0.00689289  0.00135631  1
  O  O404  1  0.11665716  0.00578577  0.49697544  1
  O  O405  1  0.12754494  0.51222367  0.00600716  1
  O  O406  1  0.11694249  0.50528462  0.50198975  1
  O  O407  1  0.63340243  0.01190115  0.01432541  1
  O  O408  1  0.62863024  0.01264559  0.49862356  1
  O  O409  1  0.62381608  0.51316344  0.01007678  1
  O  O410  1  0.62204283  0.50697903  0.50820018  1
  O  O411  1  0.37544025  0.36908002  0.12580673  1
  O  O412  1  0.37790325  0.36557912  0.65560006  1
  O  O413  1  0.36530338  0.87184204  0.12818356  1
  O  O414  1  0.35734174  0.85830858  0.61671964  1
  O  O415  1  0.87855909  0.36746274  0.11024835  1
  O  O416  1  0.87267211  0.36838626  0.62225522  1
  O  O417  1  0.87606339  0.86318303  0.12911057  1
  O  O418  1  0.88654626  0.85450236  0.61241180  1
  O  O419  1  0.11961502  0.13622207  0.38272243  1
  O  O420  1  0.11836761  0.13169532  0.88841657  1
  O  O421  1  0.11285573  0.62902277  0.38054062  1
  O  O422  1  0.12848771  0.62659061  0.88060327  1
  O  O423  1  0.63117442  0.13160086  0.38260252  1
  O  O424  1  0.63064657  0.13717840  0.88492186  1
  O  O425  1  0.63414149  0.62859709  0.37652729  1
  O  O426  1  0.62966859  0.63317103  0.88563639  1
