# generated using pymatgen
data_V85Zn86O256
_symmetry_space_group_name_H-M   'P 1'
_cell_length_a   16.95476274
_cell_length_b   16.93800359
_cell_length_c   16.94149112
_cell_angle_alpha   89.96336196
_cell_angle_beta   90.05057621
_cell_angle_gamma   90.04049974
_symmetry_Int_Tables_number   1
_chemical_formula_structural   V85Zn86O256
_chemical_formula_sum   'V85 Zn86 O256'
_cell_volume   4865.25047190
_cell_formula_units_Z   1
loop_
 _symmetry_equiv_pos_site_id
 _symmetry_equiv_pos_as_xyz
  1  'x, y, z'
loop_
 _atom_site_type_symbol
 _atom_site_label
 _atom_site_symmetry_multiplicity
 _atom_site_fract_x
 _atom_site_fract_y
 _atom_site_fract_z
 _atom_site_occupancy
  V  V0  1  0.62319214  0.62304411  -0.00083792  1
  V  V1  1  0.13026271  0.64060678  -0.00239521  1
  V  V2  1  0.62595031  0.49988721  0.12680980  1
  V  V3  1  0.74859023  0.74999380  -0.00167485  1
  V  V4  1  0.00027804  0.87401372  0.87635704  1
  V  V5  1  0.26801855  0.62893682  0.88370949  1
  V  V6  1  0.25614899  0.12543484  0.87971261  1
  V  V7  1  0.49905367  0.00391398  0.49812704  1
  V  V8  1  0.50008218  0.50846231  0.50245829  1
  V  V9  1  0.76734452  0.62385354  0.37509690  1
  V  V10  1  0.24729345  0.13719829  0.37830419  1
  V  V11  1  0.75383965  0.24841475  0.00572739  1
  V  V12  1  0.62331479  0.75210481  0.87173104  1
  V  V13  1  0.87783372  0.37166255  0.00637304  1
  V  V14  1  0.74856985  0.12200116  0.87354572  1
  V  V15  1  -0.00032958  0.25064628  0.24669084  1
  V  V16  1  0.49785700  0.12262206  0.62276109  1
  V  V17  1  0.37492264  0.36912586  0.49939789  1
  V  V18  1  0.87523914  0.50099063  0.87601920  1
  V  V19  1  0.12150433  0.86880115  0.24975634  1
  V  V20  1  0.12567849  0.86727750  0.75696256  1
  V  V21  1  0.12917720  0.75093399  0.38525889  1
  V  V22  1  0.36528356  0.74749635  0.12068777  1
  V  V23  1  0.62137913  -0.00006451  0.12368210  1
  V  V24  1  0.36361783  0.24594974  0.62270410  1
  V  V25  1  0.49817124  0.12948584  0.12433145  1
  V  V26  1  0.62409216  0.24665013  0.38005112  1
  V  V27  1  0.11736067  0.00251420  0.12509804  1
  V  V28  1  0.76449745  0.50395165  0.25411494  1
  V  V29  1  0.00238184  0.37515315  0.87624676  1
  V  V30  1  0.35661974  0.25396699  0.12248555  1
  V  V31  1  0.49167830  0.00150518  -0.00656232  1
  V  V32  1  0.24863341  0.62722446  0.37793640  1
  V  V33  1  0.24798569  0.87243036  0.12134151  1
  V  V34  1  0.62717719  0.37559411  0.25261280  1
  V  V35  1  0.13021805  0.25237726  0.87623517  1
  V  V36  1  0.00807108  0.50808468  0.51152527  1
  V  V37  1  0.49806088  0.62368548  0.12385977  1
  V  V38  1  0.25851464  -0.00077956  0.75621735  1
  V  V39  1  0.24688534  -0.00058777  0.25060920  1
  V  V40  1  0.75165353  0.76216654  0.50621535  1
  V  V41  1  0.12653676  -0.00583343  0.62832663  1
  V  V42  1  0.37053407  0.86373326  0.50293219  1
  V  V43  1  0.49761019  0.25099631  0.74810088  1
  V  V44  1  0.87474088  0.12385862  0.74875261  1
  V  V45  1  0.62364237  0.25290054  0.87568942  1
  V  V46  1  0.37464210  0.49833499  0.37041861  1
  V  V47  1  0.37048821  0.00095422  0.37375528  1
  V  V48  1  0.87244869  0.87682476  -0.00045827  1
  V  V49  1  -0.00075491  -0.01252205  0.50096754  1
  V  V50  1  -0.00822098  0.87482550  0.37621431  1
  V  V51  1  0.87185147  0.38926491  0.49664450  1
  V  V52  1  0.62508758  0.74242993  0.37310732  1
  V  V53  1  0.49227416  0.87598701  0.87041315  1
  V  V54  1  0.62269775  0.87386298  0.24580053  1
  V  V55  1  0.87571910  0.74148018  0.13032530  1
  V  V56  1  0.50042016  0.74201308  0.73348295  1
  V  V57  1  0.75100567  0.62318779  0.87029448  1
  V  V58  1  -0.00388388  0.74219424  0.75656022  1
  V  V59  1  0.62788733  0.88283471  0.73759077  1
  V  V60  1  0.49744799  0.74722619  0.24606325  1
  V  V61  1  0.36609950  0.87259117  -0.00839497  1
  V  V62  1  0.75365771  0.37306672  0.12729207  1
  V  V63  1  0.49797556  0.87440057  0.37167528  1
  V  V64  1  0.87437442  0.25954915  0.62272158  1
  V  V65  1  0.24593142  0.38618118  0.62424542  1
  V  V66  1  0.62371539  0.49834168  0.62436941  1
  V  V67  1  0.74796912  0.87482322  0.12321834  1
  V  V68  1  0.00121972  0.25051402  0.74994495  1
  V  V69  1  0.38211568  0.61522311  0.73353681  1
  V  V70  1  0.00343329  0.12492748  0.62204603  1
  V  V71  1  0.74711086  0.25704839  0.50420404  1
  V  V72  1  0.00373948  0.37766860  0.37633696  1
  V  V73  1  0.35920082  0.37435181  -0.00391204  1
  V  V74  1  0.87685919  0.12932564  0.23550541  1
  V  V75  1  0.87766675  0.76007790  0.62429129  1
  V  V76  1  0.49638910  0.49393803  -0.00651204  1
  V  V77  1  0.12615687  0.12968413  0.00243283  1
  V  V78  1  0.75215656  0.12416861  0.37533785  1
  V  V79  1  0.00505083  0.50423780  0.00299530  1
  V  V80  1  -0.00365180  0.00729708  0.00030123  1
  V  V81  1  0.12849953  0.13288326  0.49834605  1
  V  V82  1  0.66598972  0.06933498  0.55478847  1
  V  V83  1  0.13446518  0.48898886  0.12995407  1
  V  V84  1  0.75209593  0.48900220  0.74228144  1
  Zn  Zn85  1  0.62743830  0.37284210  0.74459890  1
  Zn  Zn86  1  0.87084572  -0.00062908  0.87036774  1
  Zn  Zn87  1  0.87429848  -0.00019755  0.37612514  1
  Zn  Zn88  1  0.37684389  0.12065054  0.75581525  1
  Zn  Zn89  1  0.00505512  0.62177282  0.13343040  1
  Zn  Zn90  1  0.37435142  0.12668917  0.24945264  1
  Zn  Zn91  1  -0.00883842  0.74108688  0.25976260  1
  Zn  Zn92  1  0.24081198  0.48648882  0.25379358  1
  Zn  Zn93  1  0.62331865  0.12517360  -0.00030317  1
  Zn  Zn94  1  0.16307275  0.31387836  0.31061840  1
  Zn  Zn95  1  0.74626392  -0.00034154  0.73053003  1
  Zn  Zn96  1  0.62467036  0.62727326  0.50675191  1
  Zn  Zn97  1  0.50360088  0.37449523  0.37699580  1
  Zn  Zn98  1  0.49389907  0.37698821  0.87257237  1
  Zn  Zn99  1  0.13572527  0.61990579  0.51524751  1
  Zn  Zn100  1  0.75249753  0.00060459  0.24854588  1
  Zn  Zn101  1  0.12173706  0.38223580  0.74313733  1
  Zn  Zn102  1  0.87809171  0.62220661  0.74122250  1
  Zn  Zn103  1  0.25275712  0.86822419  0.61738269  1
  Zn  Zn104  1  0.50331476  0.24865652  0.24868672  1
  Zn  Zn105  1  0.24516428  0.50178389  0.75608882  1
  Zn  Zn106  1  0.36888594  0.61934056  0.24617267  1
  Zn  Zn107  1  0.18416653  0.18113213  0.18901406  1
  Zn  Zn108  1  0.18634460  0.18626560  0.69110172  1
  Zn  Zn109  1  0.18393570  0.67853303  0.19201405  1
  Zn  Zn110  1  0.20366216  0.68756018  0.68897196  1
  Zn  Zn111  1  0.68742376  0.18686897  0.18874648  1
  Zn  Zn112  1  0.69053472  0.19462814  0.69093582  1
  Zn  Zn113  1  0.69060799  0.68491686  0.18922373  1
  Zn  Zn114  1  0.68724028  0.68443142  0.68563294  1
  Zn  Zn115  1  0.32567486  0.31498174  0.30611769  1
  Zn  Zn116  1  0.31198973  0.31247913  0.81042660  1
  Zn  Zn117  1  0.31150819  0.81121103  0.31005748  1
  Zn  Zn118  1  0.30401453  0.79736144  0.79074689  1
  Zn  Zn119  1  0.81696371  0.31202927  0.31777271  1
  Zn  Zn120  1  0.81546068  0.31058872  0.81797738  1
  Zn  Zn121  1  0.80874800  0.81238550  0.31173792  1
  Zn  Zn122  1  0.81155166  0.81586507  0.80872481  1
  Zn  Zn123  1  0.18907324  0.44050383  0.44381410  1
  Zn  Zn124  1  0.18621255  0.44683277  0.93312927  1
  Zn  Zn125  1  0.18517173  0.93735554  0.43856822  1
  Zn  Zn126  1  0.18586371  0.94016825  0.93454943  1
  Zn  Zn127  1  0.68844584  0.44012669  0.43739648  1
  Zn  Zn128  1  0.68670915  0.43593452  0.93666832  1
  Zn  Zn129  1  0.68798123  0.93300693  0.42634256  1
  Zn  Zn130  1  0.68094592  0.93819380  0.93463308  1
  Zn  Zn131  1  0.31031965  0.06182278  0.06168509  1
  Zn  Zn132  1  0.30997210  0.05759940  0.56249565  1
  Zn  Zn133  1  0.30951961  0.55828258  0.06008092  1
  Zn  Zn134  1  0.31605083  0.56189127  0.55720145  1
  Zn  Zn135  1  0.80982325  0.06179658  0.06223458  1
  Zn  Zn136  1  0.83009713  0.06596812  0.55809680  1
  Zn  Zn137  1  0.81091317  0.55968906  0.06091681  1
  Zn  Zn138  1  0.81218389  0.57147837  0.56428528  1
  Zn  Zn139  1  0.43804045  0.43284841  0.18377358  1
  Zn  Zn140  1  0.43894830  0.43567085  0.68331161  1
  Zn  Zn141  1  0.43450588  0.93775313  0.18398810  1
  Zn  Zn142  1  0.44084314  0.93692007  0.68526387  1
  Zn  Zn143  1  0.94465242  0.43430677  0.18786982  1
  Zn  Zn144  1  0.93863374  0.43891548  0.68812373  1
  Zn  Zn145  1  0.93538629  0.93734371  0.18970700  1
  Zn  Zn146  1  0.93557654  0.93282529  0.68537912  1
  Zn  Zn147  1  0.06081735  0.06539213  0.31345353  1
  Zn  Zn148  1  0.06311104  0.06164521  0.81466901  1
  Zn  Zn149  1  0.05678158  0.56328494  0.31591303  1
  Zn  Zn150  1  0.07197338  0.56260652  0.81497192  1
  Zn  Zn151  1  0.56331982  0.06444529  0.31061994  1
  Zn  Zn152  1  0.56139365  0.06308816  0.81203070  1
  Zn  Zn153  1  0.56156832  0.56031461  0.31183682  1
  Zn  Zn154  1  0.56397605  0.56082026  0.80958617  1
  Zn  Zn155  1  0.43798312  0.18642763  0.43768283  1
  Zn  Zn156  1  0.43590489  0.19364831  0.94108328  1
  Zn  Zn157  1  0.43644689  0.68397543  0.43400734  1
  Zn  Zn158  1  0.43866230  0.69107123  0.93732470  1
  Zn  Zn159  1  0.94016746  0.19016526  0.43628769  1
  Zn  Zn160  1  0.93795219  0.18776316  0.93725667  1
  Zn  Zn161  1  0.93966032  0.69299275  0.44582503  1
  Zn  Zn162  1  0.93794383  0.68703845  0.94109288  1
  Zn  Zn163  1  0.06269614  0.31074422  0.06482477  1
  Zn  Zn164  1  0.06153844  0.31534965  0.55781300  1
  Zn  Zn165  1  0.05734285  0.81558478  0.06301497  1
  Zn  Zn166  1  0.08653210  0.77622592  0.58953154  1
  Zn  Zn167  1  0.56484794  0.31402791  0.06097957  1
  Zn  Zn168  1  0.56087060  0.31751442  0.56436559  1
  Zn  Zn169  1  0.55687221  0.81230094  0.05823119  1
  Zn  Zn170  1  0.56239034  0.81518554  0.55712758  1
  O  O171  1  0.12610574  0.11399218  0.11583982  1
  O  O172  1  0.12114413  0.11488913  0.62216201  1
  O  O173  1  0.12635906  0.61704016  0.11209678  1
  O  O174  1  0.12547774  0.66952770  0.61479532  1
  O  O175  1  0.61763290  0.11708984  0.12337148  1
  O  O176  1  0.61597103  0.13345384  0.62212182  1
  O  O177  1  0.62053839  0.62085573  0.11853477  1
  O  O178  1  0.63145636  0.60784245  0.62253294  1
  O  O179  1  0.38113672  0.37939333  0.38356423  1
  O  O180  1  0.37694680  0.36435505  0.89141507  1
  O  O181  1  0.37978419  0.88168409  0.37938161  1
  O  O182  1  0.38616075  0.86405248  0.87761034  1
  O  O183  1  0.88485175  0.37410300  0.38782786  1
  O  O184  1  0.88093694  0.38059630  0.88602990  1
  O  O185  1  0.88804664  0.87566491  0.36727101  1
  O  O186  1  0.87833019  0.88025264  0.88167669  1
  O  O187  1  0.25697102  0.00230684  0.36975653  1
  O  O188  1  0.24365082  0.01552055  0.86895869  1
  O  O189  1  0.25883613  0.50402672  0.37557188  1
  O  O190  1  0.24684644  0.52075642  0.87310127  1
  O  O191  1  0.75109893  0.00885175  0.37011002  1
  O  O192  1  0.74789422  0.01446585  0.87679393  1
  O  O193  1  0.74858804  0.51600180  0.37004110  1
  O  O194  1  0.75351215  0.50678736  0.87017441  1
  O  O195  1  0.23838578  0.50030896  0.12947163  1
  O  O196  1  0.25623784  0.48827313  0.62608613  1
  O  O197  1  0.23951727  0.99329569  0.12973309  1
  O  O198  1  0.24271742  0.99257078  0.63545255  1
  O  O199  1  0.74436556  0.49523116  0.13226653  1
  O  O200  1  0.74794399  0.50360748  0.63654592  1
  O  O201  1  0.73930856  0.99325568  0.12428235  1
  O  O202  1  0.73916833  1.01903014  0.61319007  1
  O  O203  1  -0.00372043  0.36618101  0.26507694  1
  O  O204  1  -0.00165676  0.36794933  0.75836957  1
  O  O205  1  0.00626738  0.87053412  0.25693655  1
  O  O206  1  0.00393564  0.87326889  0.76063658  1
  O  O207  1  0.51656504  0.37269464  0.24899421  1
  O  O208  1  0.49989262  0.36169615  0.75147613  1
  O  O209  1  0.50264008  0.86875889  0.25198092  1
  O  O210  1  0.50542475  0.86494207  0.75342417  1
  O  O211  1  0.49568032  0.12522460  0.23873997  1
  O  O212  1  0.49764195  0.13220664  0.74212849  1
  O  O213  1  0.49748135  0.62869834  0.23990966  1
  O  O214  1  0.49759869  0.63319998  0.75027038  1
  O  O215  1  0.98487272  0.13542876  0.25803627  1
  O  O216  1  0.99283508  0.12916848  0.74456046  1
  O  O217  1  1.00230466  0.63044013  0.24586491  1
  O  O218  1  0.99840073  0.63955177  0.76379360  1
  O  O219  1  0.37536572  0.26077263  0.01317131  1
  O  O220  1  0.38169914  0.25799914  0.50917906  1
  O  O221  1  0.38166059  0.76146842  0.00982527  1
  O  O222  1  0.38254276  0.76542715  0.49300998  1
  O  O223  1  0.86603340  0.25864771  -0.00595964  1
  O  O224  1  0.86780342  0.25594405  0.50747258  1
  O  O225  1  0.86618882  0.75714478  0.00666269  1
  O  O226  1  0.86464116  0.75305407  0.51200392  1
  O  O227  1  0.12101107  0.23180848  0.50651963  1
  O  O228  1  0.11604863  0.23753073  0.99363999  1
  O  O229  1  0.13172593  0.76541022  0.48412411  1
  O  O230  1  0.12219603  0.73920198  1.00777736  1
  O  O231  1  0.63173337  0.25807795  0.48990544  1
  O  O232  1  0.63380375  0.24793869  0.99188013  1
  O  O233  1  0.63328598  0.74944435  0.49148556  1
  O  O234  1  0.62916851  0.74588874  0.99144484  1
  O  O235  1  0.50342614  0.23644222  0.12210558  1
  O  O236  1  0.49330564  0.24106750  0.62979751  1
  O  O237  1  0.49142977  0.74366893  0.12731608  1
  O  O238  1  0.50513502  0.74979851  0.63509994  1
  O  O239  1  0.99719573  0.26212265  0.14695270  1
  O  O240  1  0.99347989  0.24693652  0.62976819  1
  O  O241  1  0.98188830  0.75214262  0.12324130  1
  O  O242  1  0.98353416  0.76319821  0.64005196  1
  O  O243  1  -0.00500274  0.26417279  0.36868335  1
  O  O244  1  0.00846895  0.25336853  0.86962416  1
  O  O245  1  0.00760078  0.75903181  0.37775677  1
  O  O246  1  -0.01119541  0.76355713  0.87054056  1
  O  O247  1  0.51073669  0.24934419  0.37236672  1
  O  O248  1  0.50788986  0.24781278  0.86660949  1
  O  O249  1  0.50660846  0.75278476  0.36676795  1
  O  O250  1  0.51236508  0.75578384  0.87166106  1
  O  O251  1  0.24145705  0.11747880  0.49118594  1
  O  O252  1  0.23768548  0.12006982  0.99276836  1
  O  O253  1  0.25135897  0.62108459  0.48517987  1
  O  O254  1  0.24370988  0.62577435  0.99303638  1
  O  O255  1  0.74211596  0.12858161  0.49559812  1
  O  O256  1  0.74881584  0.13271180  0.99309099  1
  O  O257  1  0.74715483  0.63446034  0.48612861  1
  O  O258  1  0.74304384  0.62838341  0.98913564  1
  O  O259  1  0.26101633  0.38013378  -0.00387078  1
  O  O260  1  0.26383606  0.37861189  0.51127826  1
  O  O261  1  0.26040963  0.88086221  0.00029457  1
  O  O262  1  0.26565944  0.87837594  0.49913446  1
  O  O263  1  0.75762162  0.36810600  0.00398625  1
  O  O264  1  0.75925191  0.36778073  0.49406009  1
  O  O265  1  0.75103420  0.86997728  0.00235452  1
  O  O266  1  0.74866522  0.85992604  0.49001544  1
  O  O267  1  0.11964962  0.50184688  0.23311126  1
  O  O268  1  0.12884479  0.49476892  0.75069987  1
  O  O269  1  0.12422579  0.99154858  0.24196105  1
  O  O270  1  0.12654879  0.99588635  0.74038684  1
  O  O271  1  0.63301692  0.49282932  0.24590147  1
  O  O272  1  0.63359002  0.49559464  0.74427155  1
  O  O273  1  0.62350665  0.99242342  0.23998398  1
  O  O274  1  0.62288334  0.98711647  0.74997059  1
  O  O275  1  0.36971393  -0.00073336  0.26014916  1
  O  O276  1  0.36287631  -0.00071287  0.74654079  1
  O  O277  1  0.37824848  0.49474930  0.26178547  1
  O  O278  1  0.38479204  0.51315148  0.74970403  1
  O  O279  1  0.87529752  0.01510218  0.25267309  1
  O  O280  1  0.86872058  0.01246731  0.74527293  1
  O  O281  1  0.86281229  0.49446844  0.24411392  1
  O  O282  1  0.86896309  0.50279918  0.75641939  1
  O  O283  1  0.10983950  0.37084718  0.39270168  1
  O  O284  1  0.11878424  0.36675825  0.87947198  1
  O  O285  1  0.11866000  0.87286019  0.36492907  1
  O  O286  1  0.10782219  0.88224798  0.87274680  1
  O  O287  1  0.62633626  0.36764341  0.36807987  1
  O  O288  1  0.62355207  0.36155388  0.87349706  1
  O  O289  1  0.61752117  0.86249678  0.36600717  1
  O  O290  1  0.61348952  0.86826078  0.86758613  1
  O  O291  1  0.37983164  0.13658380  0.12179631  1
  O  O292  1  0.38063190  0.12995484  0.62432411  1
  O  O293  1  0.37819971  0.63143769  0.12363520  1
  O  O294  1  0.37601672  0.62331167  0.63472714  1
  O  O295  1  0.87162058  0.12559633  0.13692638  1
  O  O296  1  0.88372141  0.13735823  0.63082860  1
  O  O297  1  0.87255969  0.63981326  0.11617538  1
  O  O298  1  0.86535245  0.64846289  0.62955074  1
  O  O299  1  0.25861952  0.24552021  0.12747698  1
  O  O300  1  0.26156697  0.25277392  0.63049321  1
  O  O301  1  0.26004287  0.75345748  0.13226075  1
  O  O302  1  0.26670264  0.77926782  0.68191918  1
  O  O303  1  0.74482474  0.25491912  0.11273298  1
  O  O304  1  0.75773993  0.24539970  0.61216775  1
  O  O305  1  0.75612608  0.75411466  0.11898592  1
  O  O306  1  0.74853365  0.75041997  0.61030267  1
  O  O307  1  0.25190561  0.23839311  0.36780235  1
  O  O308  1  0.23567987  0.24375891  0.86852459  1
  O  O309  1  0.24193316  0.74039216  0.36607831  1
  O  O310  1  0.25197063  0.72836576  0.86977119  1
  O  O311  1  0.74605962  0.24394057  0.38723242  1
  O  O312  1  0.74430560  0.24059041  0.88169189  1
  O  O313  1  0.74413584  0.74202690  0.37940721  1
  O  O314  1  0.74018295  0.74441921  0.87607016  1
  O  O315  1  0.00503564  0.11353193  -0.00460656  1
  O  O316  1  0.00705892  0.11592059  0.50466342  1
  O  O317  1  0.00938982  0.61934541  0.00463988  1
  O  O318  1  -0.00073029  0.60942946  0.49539527  1
  O  O319  1  0.49953451  0.11734685  0.00371047  1
  O  O320  1  0.50058010  0.11274981  0.50422624  1
  O  O321  1  0.50482082  0.61793821  0.00568200  1
  O  O322  1  0.50267696  0.61283577  0.49510080  1
  O  O323  1  0.48929622  0.38366768  0.49970563  1
  O  O324  1  0.49557734  0.38140138  0.99850137  1
  O  O325  1  0.49485046  0.88533327  0.49115838  1
  O  O326  1  0.49038066  0.88159524  0.99048690  1
  O  O327  1  0.99104291  0.38221569  0.49496083  1
  O  O328  1  0.99332308  0.38019737  0.99646293  1
  O  O329  1  1.00856630  0.88505261  0.49122578  1
  O  O330  1  0.99330340  0.88526246  0.99417499  1
  O  O331  1  0.49408663  0.49701903  0.38180885  1
  O  O332  1  0.50920122  0.49741118  0.88985670  1
  O  O333  1  0.49263565  0.99758689  0.37911833  1
  O  O334  1  0.50146992  0.99086173  0.88150370  1
  O  O335  1  1.00235670  0.48483196  0.38503052  1
  O  O336  1  0.99626825  0.49633793  0.88753891  1
  O  O337  1  1.00174311  0.99174615  0.38235808  1
  O  O338  1  0.99406879  0.99498610  0.88294328  1
  O  O339  1  0.00975393  -0.00765563  0.11660789  1
  O  O340  1  0.00577460  0.00166881  0.61929279  1
  O  O341  1  0.00462106  0.49985206  0.11355607  1
  O  O342  1  -0.00256361  0.49714549  0.61059423  1
  O  O343  1  0.50088178  0.00960980  0.11736633  1
  O  O344  1  0.49803263  0.01362084  0.61705084  1
  O  O345  1  0.50616932  0.50442624  0.11695403  1
  O  O346  1  0.50864853  0.49640216  0.61424199  1
  O  O347  1  0.24265575  0.37270503  0.26077791  1
  O  O348  1  0.25428105  0.37839339  0.73557912  1
  O  O349  1  0.24109997  0.88084474  0.24396109  1
  O  O350  1  0.23295031  0.89315330  0.78060208  1
  O  O351  1  0.74427614  0.37991994  0.24929674  1
  O  O352  1  0.75159080  0.38566531  0.75794703  1
  O  O353  1  0.74071889  0.87708328  0.24234309  1
  O  O354  1  0.73228831  0.88100968  0.75541895  1
  O  O355  1  0.25156300  0.11573446  0.25858180  1
  O  O356  1  0.25028623  0.11606654  0.75940647  1
  O  O357  1  0.25050324  0.61424526  0.26256209  1
  O  O358  1  0.27227616  0.62117576  0.75748889  1
  O  O359  1  0.76175367  0.12654112  0.25616177  1
  O  O360  1  0.75606886  0.12369313  0.75618018  1
  O  O361  1  0.74799338  0.61865354  0.26430246  1
  O  O362  1  0.74907366  0.61824576  0.76191731  1
  O  O363  1  0.36687467  0.11732856  0.37440211  1
  O  O364  1  0.36007409  0.13453691  0.87705053  1
  O  O365  1  0.36898313  0.61555337  0.37014619  1
  O  O366  1  0.37128308  0.62210732  0.87828192  1
  O  O367  1  0.86121455  0.12582543  0.37618568  1
  O  O368  1  0.86712003  0.12537683  0.86493289  1
  O  O369  1  0.86499435  0.63416057  0.37637272  1
  O  O370  1  0.86521930  0.61869354  0.87717308  1
  O  O371  1  0.12387828  0.39027686  0.11816953  1
  O  O372  1  0.14416960  0.36638711  0.62143874  1
  O  O373  1  0.12920655  0.87971587  0.12978844  1
  O  O374  1  0.12884336  0.87861055  0.63759713  1
  O  O375  1  0.63403291  0.37881831  0.13241488  1
  O  O376  1  0.62684340  0.38834722  0.62680173  1
  O  O377  1  0.62635141  0.87906848  0.12587143  1
  O  O378  1  0.61991023  0.87364238  0.63904030  1
  O  O379  1  0.10577027  0.23417068  0.25410391  1
  O  O380  1  0.11795604  0.25466983  0.75797700  1
  O  O381  1  0.12428210  0.76125706  0.25413898  1
  O  O382  1  0.11161680  0.76428463  0.75594728  1
  O  O383  1  0.62883051  0.25795047  0.26100329  1
  O  O384  1  0.61763365  0.25255533  0.75691424  1
  O  O385  1  0.61847423  0.75358651  0.25329997  1
  O  O386  1  0.61783242  0.75534934  0.75441560  1
  O  O387  1  0.38359799  0.24803986  0.23315490  1
  O  O388  1  0.38263660  0.24527060  0.74166180  1
  O  O389  1  0.38251774  0.74925308  0.23926843  1
  O  O390  1  0.39896774  0.73395422  0.75836533  1
  O  O391  1  0.88135619  0.23766183  0.25431666  1
  O  O392  1  0.87714216  0.24152766  0.74373954  1
  O  O393  1  0.87096762  0.75452526  0.23334480  1
  O  O394  1  0.87897834  0.74819631  0.74555732  1
  O  O395  1  0.38307261  0.49338160  0.48960398  1
  O  O396  1  0.38321069  0.48294941  1.00906343  1
  O  O397  1  0.38133750  0.99493769  0.48790485  1
  O  O398  1  0.38490177  0.99038908  1.00399310  1
  O  O399  1  0.87764092  0.49194468  0.50727089  1
  O  O400  1  0.88172915  0.49351302  0.99554642  1
  O  O401  1  0.89123200  0.99907626  0.49467038  1
  O  O402  1  0.88106920  0.99577551  0.99975384  1
  O  O403  1  0.11601306  0.00712068  0.00608655  1
  O  O404  1  0.12097895  0.00216821  0.51462573  1
  O  O405  1  0.11826096  0.50664539  0.00857566  1
  O  O406  1  0.11314997  0.50325547  0.50501689  1
  O  O407  1  0.61063886  -0.00004277  0.00660078  1
  O  O408  1  0.61676661  -0.00249771  0.49318474  1
  O  O409  1  0.62037602  0.50311243  0.00736877  1
  O  O410  1  0.61741893  0.50026441  0.50500405  1
  O  O411  1  0.37747934  0.36034035  0.11590950  1
  O  O412  1  0.36849083  0.36615949  0.61879819  1
  O  O413  1  0.36710150  0.86884045  0.11574817  1
  O  O414  1  0.38096858  0.88133773  0.60437825  1
  O  O415  1  0.86996978  0.37947038  0.11301694  1
  O  O416  1  0.87835096  0.36380048  0.61895069  1
  O  O417  1  0.86671113  0.86950101  0.11849668  1
  O  O418  1  0.86059286  0.86019097  0.63690461  1
  O  O419  1  0.13551973  0.11505149  0.38627335  1
  O  O420  1  0.12972150  0.13242688  0.88241138  1
  O  O421  1  0.13131195  0.63502279  0.38116499  1
  O  O422  1  0.12754372  0.62589836  0.89503023  1
  O  O423  1  0.63860023  0.13471609  0.36703967  1
  O  O424  1  0.63147047  0.13501287  0.87491564  1
  O  O425  1  0.62658087  0.63661804  0.37392267  1
  O  O426  1  0.63058502  0.63239823  0.87886559  1
