# generated using pymatgen
data_V85Zn86O256
_symmetry_space_group_name_H-M   'P 1'
_cell_length_a   16.91489869
_cell_length_b   16.91005245
_cell_length_c   16.92599445
_cell_angle_alpha   89.96537579
_cell_angle_beta   90.03566350
_cell_angle_gamma   90.06050262
_symmetry_Int_Tables_number   1
_chemical_formula_structural   V85Zn86O256
_chemical_formula_sum   'V85 Zn86 O256'
_cell_volume   4841.36854729
_cell_formula_units_Z   1
loop_
 _symmetry_equiv_pos_site_id
 _symmetry_equiv_pos_as_xyz
  1  'x, y, z'
loop_
 _atom_site_type_symbol
 _atom_site_label
 _atom_site_symmetry_multiplicity
 _atom_site_fract_x
 _atom_site_fract_y
 _atom_site_fract_z
 _atom_site_occupancy
  V  V0  1  0.87615783  0.00715196  0.37218125  1
  V  V1  1  0.86444794  0.87838312  0.50648111  1
  V  V2  1  0.24648183  0.87992530  0.62396257  1
  V  V3  1  0.24770568  0.50092816  0.74916145  1
  V  V4  1  0.00221068  0.11833386  0.13744383  1
  V  V5  1  -0.00020215  0.87202192  0.87610389  1
  V  V6  1  0.49950957  0.37828894  0.87404037  1
  V  V7  1  0.75429674  0.62485328  0.36965443  1
  V  V8  1  0.12476062  0.74659166  0.87639175  1
  V  V9  1  0.61152734  0.86602464  0.74963689  1
  V  V10  1  0.87488930  0.50294290  0.87120473  1
  V  V11  1  0.62563876  0.62766288  0.50063292  1
  V  V12  1  0.50710880  0.50384913  -0.00021521  1
  V  V13  1  0.49755502  0.12478475  0.12438123  1
  V  V14  1  0.49543045  0.25220937  0.24773509  1
  V  V15  1  0.12319931  0.87856903  0.74645196  1
  V  V16  1  0.24920971  0.24923451  0.49705161  1
  V  V17  1  0.12199241  0.87643555  0.24586047  1
  V  V18  1  0.75389997  0.86504690  0.12186460  1
  V  V19  1  -0.01424356  0.74535548  0.24694903  1
  V  V20  1  0.12529882  0.12003004  0.50465989  1
  V  V21  1  0.62271836  0.75491554  0.37605923  1
  V  V22  1  -0.01976901  0.62617089  0.12536720  1
  V  V23  1  -0.00304418  0.36316071  0.87281717  1
  V  V24  1  0.87394025  0.85963693  0.00316703  1
  V  V25  1  0.37451265  0.75354505  0.62361731  1
  V  V26  1  0.38526533  0.88061190  -0.00671459  1
  V  V27  1  0.12784372  0.11637598  0.00015016  1
  V  V28  1  0.63461007  0.12881563  0.50170949  1
  V  V29  1  -0.00172518  0.62232389  0.60671033  1
  V  V30  1  0.25469212  -0.00488428  0.25132820  1
  V  V31  1  0.62959420  0.00843956  0.12350485  1
  V  V32  1  0.75096586  0.12181874  0.88109726  1
  V  V33  1  0.49946172  0.50254976  0.49907890  1
  V  V34  1  0.63015064  0.25377243  0.37819851  1
  V  V35  1  -0.00191224  0.73658563  0.75073068  1
  V  V36  1  0.62706846  0.37462968  0.74985712  1
  V  V37  1  0.12147285  0.50492392  0.61270157  1
  V  V38  1  0.50076930  0.63074993  0.62985402  1
  V  V39  1  0.86967782  0.75041347  0.62946947  1
  V  V40  1  0.87721787  -0.00149899  0.87996511  1
  V  V41  1  0.37589697  0.63003874  0.75135304  1
  V  V42  1  0.88390838  0.24609220  0.13677309  1
  V  V43  1  0.50904810  0.62672440  0.12282753  1
  V  V44  1  0.37553461  0.37199324  0.00458467  1
  V  V45  1  0.62522528  0.87982166  0.24910450  1
  V  V46  1  0.24846183  0.49950787  0.24785069  1
  V  V47  1  0.75630139  0.13275863  0.36812300  1
  V  V48  1  0.88048429  0.38185675  0.50065693  1
  V  V49  1  0.00466241  0.50161232  -0.00226174  1
  V  V50  1  0.12518994  0.51044063  0.12265467  1
  V  V51  1  0.11934900  0.36963110  0.74760862  1
  V  V52  1  0.25137713  0.36667432  0.12510756  1
  V  V53  1  0.12123724  0.74433836  0.37965080  1
  V  V54  1  0.63296082  -0.00591559  0.62315214  1
  V  V55  1  0.49965496  0.12766653  0.62302401  1
  V  V56  1  0.62512384  0.24968440  0.88250219  1
  V  V57  1  0.37513890  0.12301732  0.25003202  1
  V  V58  1  0.24436682  0.62267991  0.87928248  1
  V  V59  1  0.11797761  0.36687232  0.24549059  1
  V  V60  1  0.24799967  0.37633709  0.62338137  1
  V  V61  1  0.24553398  0.88019604  0.12130885  1
  V  V62  1  0.75052265  0.37197301  0.12547294  1
  V  V63  1  0.49975689  0.37595652  0.37499075  1
  V  V64  1  0.25375844  0.11744735  0.37617623  1
  V  V65  1  -0.00010394  0.37447547  0.37491045  1
  V  V66  1  0.24496183  0.74618715  0.00187942  1
  V  V67  1  0.75040555  0.37104458  0.61885262  1
  V  V68  1  0.13316601  0.24614677  0.87592453  1
  V  V69  1  0.24991462  0.00159233  0.75803498  1
  V  V70  1  0.37544625  0.62548129  0.24979700  1
  V  V71  1  0.75196582  0.50787501  0.75031122  1
  V  V72  1  0.37077549  0.12714787  0.75593079  1
  V  V73  1  0.37402301  0.75014419  0.12339503  1
  V  V74  1  0.49458348  -0.00030718  0.49289809  1
  V  V75  1  0.37427587  0.37530678  0.49873415  1
  V  V76  1  0.87756636  0.25098279  0.62734839  1
  V  V77  1  0.75362435  -0.00917247  0.74885246  1
  V  V78  1  0.00256508  -0.00097048  0.50838064  1
  V  V79  1  0.00371013  0.12846106  0.63351715  1
  V  V80  1  0.61169372  0.74882408  0.88450285  1
  V  V81  1  0.56546132  0.06714110  -0.04289250  1
  V  V82  1  -0.00206491  0.87504548  0.37600482  1
  V  V83  1  0.74975598  0.63438137  0.88789446  1
  V  V84  1  0.24574522  0.62368618  0.38139684  1
  Zn  Zn85  1  0.74620661  0.75579504  0.50696114  1
  Zn  Zn86  1  0.87880414  0.12968325  0.75349858  1
  Zn  Zn87  1  0.25373632  0.24322924  0.00139647  1
  Zn  Zn88  1  0.88624537  0.50906767  0.37319589  1
  Zn  Zn89  1  0.87644756  0.36851553  0.00020770  1
  Zn  Zn90  1  0.62621386  0.50125261  0.62590522  1
  Zn  Zn91  1  0.11892041  0.24364462  0.36762575  1
  Zn  Zn92  1  0.38644245  0.00056970  0.87718558  1
  Zn  Zn93  1  0.37455653  0.50174202  0.37416744  1
  Zn  Zn94  1  0.24380480  0.74918715  0.50188848  1
  Zn  Zn95  1  0.62604434  0.38033577  0.24914111  1
  Zn  Zn96  1  0.63037207  0.50200532  0.12460674  1
  Zn  Zn97  1  0.75659871  0.50349995  0.24518206  1
  Zn  Zn98  1  0.36807151  0.87900509  0.49172592  1
  Zn  Zn99  1  0.49802698  0.25338488  0.74797389  1
  Zn  Zn100  1  0.00407352  -0.00499033  0.00720793  1
  Zn  Zn101  1  0.75343204  0.24404242  0.00360086  1
  Zn  Zn102  1  0.37411196  0.25074042  0.62611153  1
  Zn  Zn103  1  0.49891216  0.75276735  0.24997929  1
  Zn  Zn104  1  0.75753467  0.00585345  0.24618254  1
  Zn  Zn105  1  0.49136133  0.88250742  0.36624308  1
  Zn  Zn106  1  0.37469939  0.50068235  0.87554304  1
  Zn  Zn107  1  0.18477369  0.18287734  0.18427533  1
  Zn  Zn108  1  0.18785539  0.18879296  0.68687939  1
  Zn  Zn109  1  0.18488624  0.69066420  0.19307374  1
  Zn  Zn110  1  0.18490886  0.68879307  0.68668635  1
  Zn  Zn111  1  0.68667010  0.19223859  0.18939939  1
  Zn  Zn112  1  0.69239430  0.18724017  0.69198301  1
  Zn  Zn113  1  0.68676700  0.69065272  0.19018463  1
  Zn  Zn114  1  0.68760827  0.68780648  0.69170186  1
  Zn  Zn115  1  0.31177881  0.30956595  0.31133594  1
  Zn  Zn116  1  0.31240273  0.31426143  0.81241147  1
  Zn  Zn117  1  0.31239544  0.81051513  0.31483358  1
  Zn  Zn118  1  0.31449617  0.81246449  0.81314216  1
  Zn  Zn119  1  0.81613714  0.31522328  0.31049172  1
  Zn  Zn120  1  0.81205328  0.31163580  0.80894706  1
  Zn  Zn121  1  0.80779101  0.81649178  0.31615783  1
  Zn  Zn122  1  0.81201872  0.81183127  0.81124397  1
  Zn  Zn123  1  0.18400190  0.43649946  0.43218467  1
  Zn  Zn124  1  0.18576971  0.43508307  0.93824699  1
  Zn  Zn125  1  0.18476396  0.93603705  0.43644814  1
  Zn  Zn126  1  0.19001852  0.93520181  0.93497934  1
  Zn  Zn127  1  0.68812890  0.44050823  0.43930864  1
  Zn  Zn128  1  0.69062378  0.43575976  0.94107180  1
  Zn  Zn129  1  0.68754046  0.94338110  0.43489708  1
  Zn  Zn130  1  0.69067893  0.92435873  0.93389200  1
  Zn  Zn131  1  0.31243491  0.06058020  0.06425359  1
  Zn  Zn132  1  0.31189657  0.06144805  0.56940640  1
  Zn  Zn133  1  0.31667924  0.55860805  0.06207782  1
  Zn  Zn134  1  0.31232508  0.56261228  0.56216320  1
  Zn  Zn135  1  0.81782160  0.06169773  0.06330094  1
  Zn  Zn136  1  0.81502612  0.06612145  0.56190097  1
  Zn  Zn137  1  0.81281016  0.55578511  0.05611684  1
  Zn  Zn138  1  0.81303353  0.56297241  0.56167950  1
  Zn  Zn139  1  0.43784444  0.43983540  0.18568671  1
  Zn  Zn140  1  0.43689990  0.44264315  0.68600536  1
  Zn  Zn141  1  0.43767727  0.94059227  0.18096439  1
  Zn  Zn142  1  0.43666787  0.94203497  0.68326590  1
  Zn  Zn143  1  0.93254432  0.43811037  0.19219775  1
  Zn  Zn144  1  0.93768599  0.44111596  0.68838770  1
  Zn  Zn145  1  0.93584269  0.93713320  0.18812417  1
  Zn  Zn146  1  0.93854504  0.93639458  0.68942692  1
  Zn  Zn147  1  0.06705531  0.05776857  0.31663349  1
  Zn  Zn148  1  0.06509979  0.06014533  0.81654412  1
  Zn  Zn149  1  0.05926815  0.55870012  0.30865949  1
  Zn  Zn150  1  0.06430254  0.55770411  0.80980922  1
  Zn  Zn151  1  0.56786347  0.06639858  0.31159126  1
  Zn  Zn152  1  0.56416854  0.06229317  0.79467824  1
  Zn  Zn153  1  0.56688912  0.56184656  0.30963788  1
  Zn  Zn154  1  0.56545601  0.56580847  0.81420795  1
  Zn  Zn155  1  0.43745296  0.18609049  0.43488905  1
  Zn  Zn156  1  0.43204638  0.19565297  0.93209372  1
  Zn  Zn157  1  0.43613520  0.69304983  0.43738410  1
  Zn  Zn158  1  0.43351114  0.68780266  0.93947391  1
  Zn  Zn159  1  0.93695037  0.19557243  0.44347923  1
  Zn  Zn160  1  0.93962701  0.18444175  0.94557786  1
  Zn  Zn161  1  0.93465312  0.69468904  0.43964821  1
  Zn  Zn162  1  0.93712711  0.68111304  0.93793036  1
  Zn  Zn163  1  0.06173082  0.31002754  0.06075620  1
  Zn  Zn164  1  0.06124270  0.31055026  0.55857245  1
  Zn  Zn165  1  0.06092464  0.80692295  0.06304389  1
  Zn  Zn166  1  0.05952197  0.81197380  0.56359778  1
  Zn  Zn167  1  0.56297350  0.31157488  0.06321788  1
  Zn  Zn168  1  0.56427636  0.31266007  0.56149703  1
  Zn  Zn169  1  0.56452815  0.81364971  0.06504846  1
  Zn  Zn170  1  0.56078395  0.81479887  0.56535096  1
  O  O171  1  0.11307870  0.12897027  0.11279949  1
  O  O172  1  0.11973133  0.12975781  0.61304644  1
  O  O173  1  0.12529287  0.61229611  0.12982518  1
  O  O174  1  0.11159815  0.61864761  0.62844595  1
  O  O175  1  0.62081738  0.11576275  0.12690058  1
  O  O176  1  0.62134195  0.12098562  0.61974712  1
  O  O177  1  0.61261030  0.62809682  0.12764219  1
  O  O178  1  0.61715383  0.62698803  0.61969089  1
  O  O179  1  0.38000279  0.37590229  0.38235468  1
  O  O180  1  0.38280071  0.37854349  0.87998739  1
  O  O181  1  0.37992958  0.86928855  0.37942993  1
  O  O182  1  0.37576447  0.87488042  0.88832230  1
  O  O183  1  0.88453668  0.37245187  0.38374839  1
  O  O184  1  0.88253089  0.37955344  0.87412772  1
  O  O185  1  0.87962393  0.88304636  0.38535915  1
  O  O186  1  0.87861794  0.87909051  0.88243613  1
  O  O187  1  0.24783684  0.00969810  0.36928670  1
  O  O188  1  0.25627767  -0.00537313  0.86104851  1
  O  O189  1  0.24984077  0.50645980  0.36596083  1
  O  O190  1  0.24922633  0.50660475  0.86944014  1
  O  O191  1  0.75916920  0.01186308  0.37440487  1
  O  O192  1  0.75661305  0.00169181  0.86962883  1
  O  O193  1  0.74562234  0.51917794  0.37761767  1
  O  O194  1  0.75619257  0.50601169  0.87168379  1
  O  O195  1  0.24214996  0.49373708  0.12844190  1
  O  O196  1  0.24220519  0.49696140  0.62979325  1
  O  O197  1  0.25027133  0.98691435  0.13308309  1
  O  O198  1  0.25441983  0.98603929  0.63604174  1
  O  O199  1  0.75042024  0.48870007  0.12289367  1
  O  O200  1  0.74956150  0.49458980  0.63439632  1
  O  O201  1  0.74494126  0.99691140  0.12741523  1
  O  O202  1  0.74073513  1.00699986  0.63192877  1
  O  O203  1  0.00837783  0.37537634  0.25844322  1
  O  O204  1  0.00950608  0.38161550  0.75906225  1
  O  O205  1  0.00610808  0.86958216  0.25317855  1
  O  O206  1  0.00802612  0.86773046  0.75537191  1
  O  O207  1  0.49947510  0.36796845  0.25459077  1
  O  O208  1  0.50890629  0.37724621  0.75267803  1
  O  O209  1  0.51232498  0.87733425  0.24608174  1
  O  O210  1  0.51313066  0.88117120  0.74768393  1
  O  O211  1  0.49306684  0.12949802  0.24628943  1
  O  O212  1  0.49271496  0.12928155  0.73839179  1
  O  O213  1  0.49139363  0.62638631  0.24304316  1
  O  O214  1  0.49000230  0.61835371  0.74070865  1
  O  O215  1  1.01472251  0.12196425  0.23669311  1
  O  O216  1  1.00238450  0.11645684  0.73646292  1
  O  O217  1  1.00143362  0.63060473  0.23539841  1
  O  O218  1  1.00286902  0.63450709  0.74791598  1
  O  O219  1  0.37071501  0.26539469  -0.00297521  1
  O  O220  1  0.36472058  0.25333212  0.50009241  1
  O  O221  1  0.36366600  0.75900734  0.00359129  1
  O  O222  1  0.37000048  0.75063743  0.51342959  1
  O  O223  1  0.87307030  0.24985459  0.01051254  1
  O  O224  1  0.87556574  0.26477330  0.51577097  1
  O  O225  1  0.87843926  0.76039437  -0.00340508  1
  O  O226  1  0.87228754  0.76206465  0.50935550  1
  O  O227  1  0.13765772  0.24283853  0.49691351  1
  O  O228  1  0.12726882  0.24139277  0.99189535  1
  O  O229  1  0.12241023  0.75451115  0.48423887  1
  O  O230  1  0.13749081  0.75171141  0.99375637  1
  O  O231  1  0.61930309  0.24198952  0.48799902  1
  O  O232  1  0.62952512  0.25319945  0.98613586  1
  O  O233  1  0.62549673  0.74692156  0.49549649  1
  O  O234  1  0.62377691  0.75927439  0.98351671  1
  O  O235  1  0.50811254  0.23666912  0.13486708  1
  O  O236  1  0.49960689  0.23862954  0.62352388  1
  O  O237  1  0.49297205  0.74381094  0.12608072  1
  O  O238  1  0.49120985  0.73940970  0.62164106  1
  O  O239  1  0.99112355  0.24015904  0.12300266  1
  O  O240  1  0.99427323  0.23960131  0.62156182  1
  O  O241  1  1.00235979  0.73352352  0.13066656  1
  O  O242  1  0.99546380  0.73844840  0.63067503  1
  O  O243  1  0.00394126  0.26478804  0.37999083  1
  O  O244  1  0.00709617  0.25971709  0.87890124  1
  O  O245  1  0.00358285  0.75343733  0.36716631  1
  O  O246  1  0.00423684  0.75083998  0.86892473  1
  O  O247  1  0.50583231  0.25611359  0.36943760  1
  O  O248  1  0.50905400  0.25866636  0.87033683  1
  O  O249  1  0.51264814  0.75333263  0.37345482  1
  O  O250  1  0.51236288  0.74064751  0.87449229  1
  O  O251  1  0.24716350  0.12695891  0.49543918  1
  O  O252  1  0.23466673  0.12632275  1.01058455  1
  O  O253  1  0.25252146  0.62548311  0.48523764  1
  O  O254  1  0.25770114  0.63228535  0.99110870  1
  O  O255  1  0.73859897  0.12309003  0.49397583  1
  O  O256  1  0.75298461  0.12143745  0.98579928  1
  O  O257  1  0.73599182  0.62801285  0.49713876  1
  O  O258  1  0.74788669  0.62249441  0.98644101  1
  O  O259  1  0.25696088  0.37692755  0.00869781  1
  O  O260  1  0.25416794  0.36692990  0.49989463  1
  O  O261  1  0.25405615  0.86762586  0.00672776  1
  O  O262  1  0.24860867  0.87448087  0.50968693  1
  O  O263  1  0.75453318  0.37019840  0.01103265  1
  O  O264  1  0.75396594  0.37995534  0.51392622  1
  O  O265  1  0.75808063  0.87705027  0.01345125  1
  O  O266  1  0.76044687  0.87842392  0.49904271  1
  O  O267  1  0.12963288  0.48932013  0.24028948  1
  O  O268  1  0.13118135  0.48966989  0.74212836  1
  O  O269  1  0.13658011  0.98455727  0.25648635  1
  O  O270  1  0.13216333  0.98711065  0.75520692  1
  O  O271  1  0.63445511  0.49844656  0.24466694  1
  O  O272  1  0.63200019  0.48963976  0.75029805  1
  O  O273  1  0.62919514  0.99585935  0.24183602  1
  O  O274  1  0.63277627  0.98964568  0.74143225  1
  O  O275  1  0.36284207  0.00411722  0.24734540  1
  O  O276  1  0.37053209  0.00711435  0.75320502  1
  O  O277  1  0.36904879  0.51134683  0.25021097  1
  O  O278  1  0.36544186  0.51182790  0.74959431  1
  O  O279  1  0.87734042  -0.00268343  0.26821791  1
  O  O280  1  0.86943328  -0.00070413  0.76050383  1
  O  O281  1  0.86963183  0.49798900  0.26101070  1
  O  O282  1  0.86765019  0.49582633  0.76288376  1
  O  O283  1  0.11770711  0.37115477  0.36504076  1
  O  O284  1  0.11773477  0.36885972  0.86742043  1
  O  O285  1  0.11627178  0.86791674  0.36784030  1
  O  O286  1  0.12023736  0.86626549  0.86862702  1
  O  O287  1  0.61980606  0.36913462  0.37600819  1
  O  O288  1  0.62236413  0.36890279  0.86842895  1
  O  O289  1  0.62428474  0.87235711  0.36653762  1
  O  O290  1  0.62767913  0.86111945  0.86154937  1
  O  O291  1  0.38230017  0.12037978  0.13779618  1
  O  O292  1  0.38439206  0.12610426  0.63290410  1
  O  O293  1  0.37973362  0.63050431  0.13208171  1
  O  O294  1  0.37946595  0.63177248  0.63081735  1
  O  O295  1  0.88973930  0.13272035  0.12323392  1
  O  O296  1  0.88406632  0.13333145  0.62559198  1
  O  O297  1  0.88188704  0.62233984  0.12325555  1
  O  O298  1  0.88902517  0.63240307  0.61906944  1
  O  O299  1  0.24630011  0.26357496  0.12456002  1
  O  O300  1  0.25074242  0.25811496  0.61458010  1
  O  O301  1  0.25288387  0.75587986  0.11906169  1
  O  O302  1  0.25479044  0.75929723  0.62401886  1
  O  O303  1  0.76110073  0.25122290  0.12420290  1
  O  O304  1  0.75718123  0.26070160  0.63029670  1
  O  O305  1  0.74528379  0.76632200  0.12738031  1
  O  O306  1  0.76526205  0.74320732  0.62684306  1
  O  O307  1  0.24883060  0.23640902  0.38039651  1
  O  O308  1  0.23679803  0.25539613  0.87814105  1
  O  O309  1  0.23860434  0.74071993  0.37413426  1
  O  O310  1  0.24577802  0.74297495  0.88202416  1
  O  O311  1  0.74173151  0.24714805  0.37261547  1
  O  O312  1  0.74268630  0.23901482  0.87261461  1
  O  O313  1  0.73891278  0.74459127  0.38063167  1
  O  O314  1  0.74658263  0.73728034  0.87021719  1
  O  O315  1  0.01217509  0.11889603  0.00836814  1
  O  O316  1  0.00840616  0.11918994  0.50692755  1
  O  O317  1  -0.00187129  0.61698198  0.01365516  1
  O  O318  1  0.00215296  0.62811620  0.50820242  1
  O  O319  1  0.49690368  0.13202269  0.00724940  1
  O  O320  1  0.50873636  0.11767479  0.50379579  1
  O  O321  1  0.48998358  0.61596536  0.01051281  1
  O  O322  1  0.50828002  0.62328881  0.50444381  1
  O  O323  1  0.49372827  0.38132479  0.49710414  1
  O  O324  1  0.49361873  0.37999929  0.99618168  1
  O  O325  1  0.50193619  0.89335499  0.50233598  1
  O  O326  1  0.48314705  0.87329852  1.00753945  1
  O  O327  1  0.99384467  0.37555502  0.49076631  1
  O  O328  1  1.00017033  0.38232586  0.98972476  1
  O  O329  1  0.99315193  0.88270962  0.49630456  1
  O  O330  1  0.99417131  0.87505782  0.99604124  1
  O  O331  1  0.49926947  0.49492791  0.38166902  1
  O  O332  1  0.49912999  0.49666936  0.88140674  1
  O  O333  1  0.50811175  1.00311852  0.38993682  1
  O  O334  1  0.50874877  1.01370434  0.88536482  1
  O  O335  1  1.00332070  0.48391034  0.37500717  1
  O  O336  1  0.99475847  0.49620319  0.88040902  1
  O  O337  1  0.99458904  0.99682674  0.38648004  1
  O  O338  1  0.99214162  0.99016819  0.87596545  1
  O  O339  1  -0.00463829  0.01295652  0.12493232  1
  O  O340  1  -0.00623106  0.00757260  0.61391893  1
  O  O341  1  0.00388930  0.50841153  0.11871803  1
  O  O342  1  0.00472930  0.51530916  0.62830928  1
  O  O343  1  0.50971333  0.01476087  0.12487180  1
  O  O344  1  0.51170030  0.01110054  0.61834871  1
  O  O345  1  0.50174914  0.50925595  0.11792309  1
  O  O346  1  0.50057686  0.51340295  0.61681960  1
  O  O347  1  0.24676856  0.38112100  0.24321778  1
  O  O348  1  0.24374049  0.38195239  0.74334894  1
  O  O349  1  0.24430269  0.87795873  0.24327903  1
  O  O350  1  0.24310514  0.87850318  0.74497819  1
  O  O351  1  0.74838052  0.37203882  0.23667696  1
  O  O352  1  0.74321317  0.38385651  0.74359232  1
  O  O353  1  0.74198047  0.88001354  0.24126523  1
  O  O354  1  0.74222817  0.88687930  0.75310535  1
  O  O355  1  0.25373137  0.11679623  0.25454772  1
  O  O356  1  0.25811994  0.11458285  0.74038355  1
  O  O357  1  0.25667781  0.62013050  0.25602675  1
  O  O358  1  0.25451572  0.62029112  0.75549224  1
  O  O359  1  0.74706631  0.12497334  0.26440243  1
  O  O360  1  0.74903565  0.11139534  0.76260687  1
  O  O361  1  0.74757258  0.63085252  0.26701805  1
  O  O362  1  0.74523205  0.61114671  0.75754771  1
  O  O363  1  0.36824259  0.12572814  0.36196583  1
  O  O364  1  0.37819766  0.12375791  0.86066646  1
  O  O365  1  0.36758799  0.62711270  0.36619058  1
  O  O366  1  0.36402729  0.62532933  0.86648586  1
  O  O367  1  0.86700019  0.12105009  0.38802455  1
  O  O368  1  0.87073803  0.11641646  0.87322125  1
  O  O369  1  0.85726734  0.62827262  0.38740957  1
  O  O370  1  0.86188801  0.61718246  0.87653372  1
  O  O371  1  0.12918410  0.38228251  0.12919212  1
  O  O372  1  0.12703140  0.37963612  0.63089111  1
  O  O373  1  0.13260259  0.86767283  0.13312827  1
  O  O374  1  0.13138711  0.86821419  0.63576381  1
  O  O375  1  0.63579934  0.37256636  0.12708355  1
  O  O376  1  0.63210974  0.37566081  0.63208533  1
  O  O377  1  0.63419973  0.88559291  0.12892369  1
  O  O378  1  0.62472593  0.88204508  0.63551769  1
  O  O379  1  0.13285235  0.26299425  0.24946989  1
  O  O380  1  0.12932633  0.26152468  0.75641809  1
  O  O381  1  0.11663832  0.75980440  0.25864689  1
  O  O382  1  0.11795252  0.75761797  0.75635717  1
  O  O383  1  0.61291946  0.25032518  0.26239176  1
  O  O384  1  0.62569216  0.26065346  0.75848111  1
  O  O385  1  0.62281320  0.76147344  0.25824869  1
  O  O386  1  0.62536130  0.76212888  0.75264984  1
  O  O387  1  0.38741345  0.24173904  0.25296634  1
  O  O388  1  0.37541637  0.24337780  0.74629754  1
  O  O389  1  0.37476012  0.73962995  0.24256118  1
  O  O390  1  0.36885249  0.73889407  0.73968538  1
  O  O391  1  0.87601395  0.24806508  0.23601678  1
  O  O392  1  0.87355399  0.24807680  0.73587907  1
  O  O393  1  0.88714697  0.75848792  0.25578379  1
  O  O394  1  0.88681867  0.75748676  0.74196930  1
  O  O395  1  0.38129441  0.49462539  0.49716934  1
  O  O396  1  0.38497196  0.48944321  0.99712428  1
  O  O397  1  0.39188822  1.00332051  0.50632996  1
  O  O398  1  0.36947554  0.98560781  0.99735186  1
  O  O399  1  0.87034078  0.48693468  0.49574042  1
  O  O400  1  0.88627691  0.49456528  0.98793197  1
  O  O401  1  0.88160165  0.99572238  0.49455276  1
  O  O402  1  0.87723570  0.99176550  0.98882520  1
  O  O403  1  0.12527076  0.01191861  -0.00736674  1
  O  O404  1  0.11557048  0.00751847  0.49753060  1
  O  O405  1  0.11279875  0.49585608  0.00638302  1
  O  O406  1  0.13001818  0.49541031  0.51398014  1
  O  O407  1  0.62817429  -0.00324093  0.00527859  1
  O  O408  1  0.62022873  0.00773282  0.50745316  1
  O  O409  1  0.61123413  0.49532559  0.00175025  1
  O  O410  1  0.61717372  0.50997202  0.50346155  1
  O  O411  1  0.36453406  0.38141321  0.11734595  1
  O  O412  1  0.36805806  0.37553847  0.61611505  1
  O  O413  1  0.36607225  0.86920723  0.11788396  1
  O  O414  1  0.36812685  0.86830426  0.62357339  1
  O  O415  1  0.87301474  0.36127999  0.12398611  1
  O  O416  1  0.87081177  0.37270839  0.62140174  1
  O  O417  1  0.86224909  0.87977751  0.11916643  1
  O  O418  1  0.88253261  0.86552949  0.61714305  1
  O  O419  1  0.13294723  0.12544644  0.38637154  1
  O  O420  1  0.11963279  0.13349211  0.88708878  1
  O  O421  1  0.13246534  0.63235354  0.36433858  1
  O  O422  1  0.13688214  0.62912390  0.86939675  1
  O  O423  1  0.63376555  0.13289980  0.38269014  1
  O  O424  1  0.62631198  0.12713416  0.88015206  1
  O  O425  1  0.62979603  0.63488739  0.38281539  1
  O  O426  1  0.63619771  0.63889073  0.86960194  1
