# generated using pymatgen
data_V85Zn86O256
_symmetry_space_group_name_H-M   'P 1'
_cell_length_a   16.93912743
_cell_length_b   16.93863250
_cell_length_c   16.94228320
_cell_angle_alpha   89.99328781
_cell_angle_beta   90.08019699
_cell_angle_gamma   90.02783897
_symmetry_Int_Tables_number   1
_chemical_formula_structural   V85Zn86O256
_chemical_formula_sum   'V85 Zn86 O256'
_cell_volume   4861.17032581
_cell_formula_units_Z   1
loop_
 _symmetry_equiv_pos_site_id
 _symmetry_equiv_pos_as_xyz
  1  'x, y, z'
loop_
 _atom_site_type_symbol
 _atom_site_label
 _atom_site_symmetry_multiplicity
 _atom_site_fract_x
 _atom_site_fract_y
 _atom_site_fract_z
 _atom_site_occupancy
  V  V0  1  0.63905248  0.87864861  0.25249760  1
  V  V1  1  0.61019911  0.01400535  0.62016319  1
  V  V2  1  -0.00345831  0.61579516  0.62298091  1
  V  V3  1  0.75116237  0.25543410  0.00382378  1
  V  V4  1  0.64023459  0.74329029  0.87492724  1
  V  V5  1  0.62576577  0.50044481  0.62490035  1
  V  V6  1  0.37387109  0.38069462  0.50259258  1
  V  V7  1  0.88251164  0.50059428  0.38111666  1
  V  V8  1  0.50345741  0.88264282  0.37391714  1
  V  V9  1  0.62425791  -0.00220797  0.12111013  1
  V  V10  1  0.39285252  0.21663260  0.60136623  1
  V  V11  1  0.24779235  0.12499549  0.37478801  1
  V  V12  1  0.00117746  0.62871450  0.12449358  1
  V  V13  1  0.01308010  0.24801639  0.75297853  1
  V  V14  1  0.12862962  0.75171936  0.87755230  1
  V  V15  1  0.37410531  0.12347908  0.24806223  1
  V  V16  1  0.75033804  0.49139985  0.25030291  1
  V  V17  1  0.12048157  0.50892080  0.11318920  1
  V  V18  1  0.24795041  0.50324995  0.24658134  1
  V  V19  1  -0.00280186  0.88434350  0.37596592  1
  V  V20  1  -0.00555799  0.24974608  0.25205754  1
  V  V21  1  0.62474439  0.24526764  0.87493364  1
  V  V22  1  0.75567467  0.12082447  0.87822097  1
  V  V23  1  0.24469379  0.25104838  0.49900683  1
  V  V24  1  0.01761353  0.00357951  0.50356060  1
  V  V25  1  0.12912474  0.49804591  0.63043313  1
  V  V26  1  0.24962595  0.74997613  0.50005409  1
  V  V27  1  0.01878659  0.12022697  0.62492484  1
  V  V28  1  0.25003925  0.62671696  0.37483350  1
  V  V29  1  -0.07425747  -0.06245902  -0.06732898  1
  V  V30  1  0.37264387  0.25535793  0.12302601  1
  V  V31  1  0.37596874  0.50147960  0.37245624  1
  V  V32  1  0.62916302  0.37397360  0.75173628  1
  V  V33  1  0.87993572  0.12278240  0.75143842  1
  V  V34  1  0.24279647  0.00182460  0.24766711  1
  V  V35  1  0.87067146  0.25943350  0.12773937  1
  V  V36  1  0.50122000  0.62917946  0.63042874  1
  V  V37  1  0.50379332  0.62443256  0.12155507  1
  V  V38  1  0.74947562  0.24148736  0.50317945  1
  V  V39  1  0.24900601  0.00238693  0.74723937  1
  V  V40  1  0.00234754  0.75118618  0.74981832  1
  V  V41  1  0.38516343  0.00070515  0.87901059  1
  V  V42  1  0.37832212  0.75183347  0.63321806  1
  V  V43  1  0.75370536  0.87869177  0.11307295  1
  V  V44  1  0.86796136  0.11352293  0.26039009  1
  V  V45  1  0.24389793  0.61793519  0.87229771  1
  V  V46  1  0.12516329  0.24755782  0.37232151  1
  V  V47  1  0.75910807  0.50586012  0.76131458  1
  V  V48  1  0.38213494  0.87551656  0.49746812  1
  V  V49  1  -0.01462612  0.75414612  0.25065719  1
  V  V50  1  0.75310324  0.74913830  0.50075404  1
  V  V51  1  0.87512039  0.88755143  0.50083778  1
  V  V52  1  0.50283470  0.24860237  0.24981635  1
  V  V53  1  0.75278123  -0.00227923  0.75212335  1
  V  V54  1  0.49963276  0.86116578  0.87671661  1
  V  V55  1  0.63625005  0.62697002  -0.00224110  1
  V  V56  1  0.74944066  0.62432258  0.37745857  1
  V  V57  1  0.24858528  0.88336380  0.62058577  1
  V  V58  1  0.50487321  0.37640841  0.37481996  1
  V  V59  1  0.88443686  0.37566928  0.50342563  1
  V  V60  1  0.23527248  0.12563217  0.88339222  1
  V  V61  1  0.37592812  0.62562824  0.24774901  1
  V  V62  1  0.37279822  0.49855660  0.86605825  1
  V  V63  1  0.50049133  0.11887678  0.11726710  1
  V  V64  1  0.37656178  0.74819985  0.12237196  1
  V  V65  1  0.24643460  0.87515703  0.12357221  1
  V  V66  1  0.38305120  0.12575288  0.75528097  1
  V  V67  1  0.25412656  0.37702192  0.63247320  1
  V  V68  1  0.74742250  0.87547012  0.62635261  1
  V  V69  1  0.12186221  0.38079061  0.24866889  1
  V  V70  1  0.62748772  0.48904134  0.12345612  1
  V  V71  1  0.86480080  0.74843766  0.11406294  1
  V  V72  1  0.62615198  0.23772146  0.38068270  1
  V  V73  1  0.38253297  0.87765356  0.00322290  1
  V  V74  1  -0.00500815  0.11299751  0.11917107  1
  V  V75  1  0.12431220  0.87599559  0.74583419  1
  V  V76  1  0.61776028  0.87018948  0.74837452  1
  V  V77  1  0.87644596  0.74911303  0.62544821  1
  V  V78  1  0.49834467  0.37331854  0.87464062  1
  V  V79  1  0.11977564  0.61811700  0.49935535  1
  V  V80  1  0.12154444  0.75101575  0.37296385  1
  V  V81  1  0.62440827  0.74739131  0.37512023  1
  V  V82  1  0.75447863  0.37388731  0.62700759  1
  V  V83  1  0.00168921  0.36215904  0.88675214  1
  V  V84  1  -0.05890221  0.56293611  -0.05737023  1
  Zn  Zn85  1  0.50221156  0.24614876  0.74362626  1
  Zn  Zn86  1  0.24560089  0.74499402  0.00069674  1
  Zn  Zn87  1  0.74907827  0.11019745  0.38243491  1
  Zn  Zn88  1  0.87565865  0.62502563  0.76554699  1
  Zn  Zn89  1  0.13954267  0.03047787  0.08255902  1
  Zn  Zn90  1  0.00298165  0.37922163  0.38117414  1
  Zn  Zn91  1  0.37845871  -0.00081856  0.37385551  1
  Zn  Zn92  1  0.49913030  0.49952611  -0.00289266  1
  Zn  Zn93  1  0.50193382  0.50254353  0.49996557  1
  Zn  Zn94  1  0.13022951  0.37525402  0.75876013  1
  Zn  Zn95  1  0.24840925  0.37875340  0.12017387  1
  Zn  Zn96  1  0.62354243  0.11735117  -0.00293720  1
  Zn  Zn97  1  0.87261003  0.62392175  0.25288742  1
  Zn  Zn98  1  0.87992770  0.24752385  0.62668201  1
  Zn  Zn99  1  0.23568570  0.25671086  -0.01169486  1
  Zn  Zn100  1  0.87386856  0.38512964  -0.00027777  1
  Zn  Zn101  1  0.36995035  0.37609748  -0.00274022  1
  Zn  Zn102  1  0.63005641  0.36915069  0.24655301  1
  Zn  Zn103  1  0.62409923  0.62444051  0.50186482  1
  Zn  Zn104  1  0.12008879  0.87585117  0.24598072  1
  Zn  Zn105  1  0.37449224  0.62468977  0.74978738  1
  Zn  Zn106  1  0.50287433  0.75124731  0.24961183  1
  Zn  Zn107  1  0.17045745  0.20376022  0.15993719  1
  Zn  Zn108  1  0.19909566  0.18858396  0.68871862  1
  Zn  Zn109  1  0.18395370  0.69240011  0.18762966  1
  Zn  Zn110  1  0.19112697  0.68666137  0.68784287  1
  Zn  Zn111  1  0.68887039  0.18479935  0.18831669  1
  Zn  Zn112  1  0.68965571  0.18569479  0.68937806  1
  Zn  Zn113  1  0.68926142  0.68432541  0.19135668  1
  Zn  Zn114  1  0.68795650  0.68668385  0.69206691  1
  Zn  Zn115  1  0.31252442  0.31473222  0.30706633  1
  Zn  Zn116  1  0.31573051  0.30393656  0.81032782  1
  Zn  Zn117  1  0.31353957  0.81229255  0.30943364  1
  Zn  Zn118  1  0.31017048  0.81244280  0.81284485  1
  Zn  Zn119  1  0.81257552  0.31053080  0.31964812  1
  Zn  Zn120  1  0.82125531  0.31035501  0.81496851  1
  Zn  Zn121  1  0.81257988  0.93598231  0.31710570  1
  Zn  Zn122  1  0.81288165  0.81007932  0.80979617  1
  Zn  Zn123  1  0.18698192  0.43898474  0.43792866  1
  Zn  Zn124  1  0.18492900  0.43891345  0.93781404  1
  Zn  Zn125  1  0.18848284  0.93751287  0.43412145  1
  Zn  Zn126  1  0.19868890  0.93483523  0.92901474  1
  Zn  Zn127  1  0.69182606  0.43323066  0.44041054  1
  Zn  Zn128  1  0.68593147  0.43613295  0.93972462  1
  Zn  Zn129  1  0.68072791  0.93900664  0.44653074  1
  Zn  Zn130  1  0.68894339  0.93573275  0.93684447  1
  Zn  Zn131  1  0.31814592  0.06172872  0.06085679  1
  Zn  Zn132  1  0.32800262  0.06455447  0.55307671  1
  Zn  Zn133  1  0.31061285  0.56024718  0.05331656  1
  Zn  Zn134  1  0.31181164  0.56326844  0.56391082  1
  Zn  Zn135  1  0.81402324  0.06408542  0.06521358  1
  Zn  Zn136  1  0.81332583  0.06125155  0.57091124  1
  Zn  Zn137  1  0.80766428  0.56493899  0.07057580  1
  Zn  Zn138  1  0.81254489  0.56009604  0.56452113  1
  Zn  Zn139  1  0.44129931  0.43791711  0.18749642  1
  Zn  Zn140  1  0.44143999  0.43622915  0.68911628  1
  Zn  Zn141  1  0.44076717  0.93709162  0.19115052  1
  Zn  Zn142  1  0.43628127  0.93592054  0.69091287  1
  Zn  Zn143  1  0.93802416  0.44054533  0.18902373  1
  Zn  Zn144  1  0.94052410  0.43554379  0.69446555  1
  Zn  Zn145  1  0.93539806  0.93468065  0.18154859  1
  Zn  Zn146  1  0.93870869  0.93961833  0.68942844  1
  Zn  Zn147  1  0.06070252  0.06427830  0.30882912  1
  Zn  Zn148  1  0.06184622  0.05235694  0.81656746  1
  Zn  Zn149  1  0.05946131  0.56659005  0.30935828  1
  Zn  Zn150  1  0.06538162  0.56384621  0.80781655  1
  Zn  Zn151  1  0.56657352  0.05959084  0.30612510  1
  Zn  Zn152  1  0.56434405  0.05678455  0.81082933  1
  Zn  Zn153  1  0.56415308  0.56139020  0.30852536  1
  Zn  Zn154  1  0.56290001  0.56184895  0.80969399  1
  Zn  Zn155  1  0.43459577  0.19011664  0.43172694  1
  Zn  Zn156  1  0.43468702  0.19010925  0.93965490  1
  Zn  Zn157  1  0.44086727  0.68904957  0.44204630  1
  Zn  Zn158  1  0.43568620  0.68254414  0.93865856  1
  Zn  Zn159  1  0.93843268  0.18584175  0.44153715  1
  Zn  Zn160  1  0.93641701  0.18545710  0.93987344  1
  Zn  Zn161  1  0.93614781  0.69124795  0.43865361  1
  Zn  Zn162  1  0.95949530  0.74333777  0.95773972  1
  Zn  Zn163  1  0.06185930  0.30982076  0.06547534  1
  Zn  Zn164  1  0.06532063  0.30872807  0.56657071  1
  Zn  Zn165  1  0.07674989  0.86699685  0.03135617  1
  Zn  Zn166  1  0.06326843  0.81073580  0.56279590  1
  Zn  Zn167  1  0.55946564  0.30807152  0.05806955  1
  Zn  Zn168  1  0.56454258  0.31347437  0.56007482  1
  Zn  Zn169  1  0.56646243  0.81034485  0.06042343  1
  Zn  Zn170  1  0.56279907  0.81303062  0.56159379  1
  O  O171  1  0.10116759  0.11382611  0.14669443  1
  O  O172  1  0.11736881  0.12652652  0.62923381  1
  O  O173  1  0.11315768  0.62317171  0.12831976  1
  O  O174  1  0.12141775  0.61856260  0.61809143  1
  O  O175  1  0.61789226  0.11558668  0.12609640  1
  O  O176  1  0.62350573  0.11374708  0.63229969  1
  O  O177  1  0.61941229  0.61984140  0.11961992  1
  O  O178  1  0.61984642  0.61814627  0.62559681  1
  O  O179  1  0.38388050  0.38067202  0.37898797  1
  O  O180  1  0.38204615  0.37767468  0.87177305  1
  O  O181  1  0.38612768  0.87092247  0.37849574  1
  O  O182  1  0.38100162  0.87847293  0.88229391  1
  O  O183  1  0.87673965  0.38260668  0.38624037  1
  O  O184  1  0.89540178  0.37443459  0.87748194  1
  O  O185  1  0.88808720  0.87698564  0.38584019  1
  O  O186  1  0.85852203  0.88598432  0.87728457  1
  O  O187  1  0.25253009  0.00867345  0.36778783  1
  O  O188  1  0.26357105  0.00608069  0.86588136  1
  O  O189  1  0.25492480  0.50749091  0.36798800  1
  O  O190  1  0.25419748  0.51019704  0.87475940  1
  O  O191  1  0.74477949  -0.00199234  0.37906343  1
  O  O192  1  0.73967347  0.01309075  0.86718715  1
  O  O193  1  0.75482849  0.50805882  0.37360009  1
  O  O194  1  0.74511278  0.49365666  0.85887583  1
  O  O195  1  0.24105102  0.50495636  0.13099759  1
  O  O196  1  0.24235841  0.48961478  0.61938034  1
  O  O197  1  0.24691935  0.99515076  0.12901859  1
  O  O198  1  0.25986853  0.98895540  0.62952799  1
  O  O199  1  0.74036945  0.50109931  0.13731526  1
  O  O200  1  0.74546106  0.48981895  0.63266416  1
  O  O201  1  0.74636461  0.98557577  0.12391611  1
  O  O202  1  0.74081149  0.99302701  0.63351881  1
  O  O203  1  0.00472629  0.36866765  0.25569130  1
  O  O204  1  0.00372052  0.36336394  0.75879167  1
  O  O205  1  -0.00097383  0.87235919  0.25784204  1
  O  O206  1  0.01268523  0.86592690  0.73775884  1
  O  O207  1  0.50272102  0.36807444  0.26006389  1
  O  O208  1  0.50975740  0.37119445  0.75915424  1
  O  O209  1  0.51140227  0.87060397  0.25718862  1
  O  O210  1  0.51156954  0.87650628  0.75909748  1
  O  O211  1  0.49264533  0.12827379  0.24198633  1
  O  O212  1  0.48698564  0.12278598  0.75480315  1
  O  O213  1  0.49526787  0.62617877  0.23786973  1
  O  O214  1  0.49652891  0.62085704  0.73512865  1
  O  O215  1  0.98549418  0.13197094  0.24906878  1
  O  O216  1  0.99900904  0.12527016  0.74407401  1
  O  O217  1  0.99598489  0.63680112  0.24317418  1
  O  O218  1  0.99736956  0.63149780  0.73935208  1
  O  O219  1  0.36736921  0.25118939  0.01129444  1
  O  O220  1  0.36357564  0.26762282  0.49672182  1
  O  O221  1  0.37628575  0.75452630  0.01180038  1
  O  O222  1  0.36836536  0.75809192  0.50548728  1
  O  O223  1  0.86721223  0.24885358  0.01136507  1
  O  O224  1  0.86856735  0.25777400  0.50353299  1
  O  O225  1  0.86015628  0.74183347  0.01624384  1
  O  O226  1  0.87164789  0.76157272  0.50665051  1
  O  O227  1  0.13736105  0.25639914  0.48945978  1
  O  O228  1  0.14523703  0.23955773  1.05151862  1
  O  O229  1  0.12968180  0.74099877  0.49314757  1
  O  O230  1  0.12342695  0.76511258  0.98033998  1
  O  O231  1  0.63484806  0.25304430  0.49310607  1
  O  O232  1  0.63176697  0.24622532  0.98948745  1
  O  O233  1  0.63362788  0.75095068  0.48905950  1
  O  O234  1  0.62159123  0.74257716  0.98466105  1
  O  O235  1  0.49268555  0.24334309  0.13063743  1
  O  O236  1  0.48760337  0.25704445  0.62437088  1
  O  O237  1  0.49550594  0.74262334  0.12678293  1
  O  O238  1  0.49092877  0.74216009  0.61854990  1
  O  O239  1  0.98996101  0.24368400  0.14045459  1
  O  O240  1  1.00146764  0.23629217  0.63202035  1
  O  O241  1  0.98198364  0.74366126  0.13186471  1
  O  O242  1  0.99754129  0.74079817  0.63213825  1
  O  O243  1  0.00766044  0.25002205  0.36809189  1
  O  O244  1  0.00335751  0.25532013  0.87148255  1
  O  O245  1  0.00278470  0.75875858  0.36956080  1
  O  O246  1  0.01249583  0.74551060  0.85691293  1
  O  O247  1  0.50699799  0.25547636  0.37246119  1
  O  O248  1  0.50822213  0.25406420  0.87312238  1
  O  O249  1  0.51033954  0.75444007  0.37302335  1
  O  O250  1  0.49910911  0.75890732  0.87538051  1
  O  O251  1  0.25733607  0.13479885  0.48260741  1
  O  O252  1  0.25102429  0.11795314  0.98631409  1
  O  O253  1  0.24286388  0.63065735  0.49397425  1
  O  O254  1  0.25420063  0.62991018  0.98008783  1
  O  O255  1  0.75972375  0.13776951  0.50278468  1
  O  O256  1  0.74911210  0.13291227  0.99252855  1
  O  O257  1  0.74760302  0.63025896  0.49598317  1
  O  O258  1  0.73511608  0.62243587  1.00319959  1
  O  O259  1  0.25108797  0.37293023  0.00286736  1
  O  O260  1  0.25570081  0.37029902  0.50488689  1
  O  O261  1  0.26588638  0.86961611  0.00746632  1
  O  O262  1  0.25485429  0.86892617  0.50422595  1
  O  O263  1  0.75488005  0.36010475  -0.00836900  1
  O  O264  1  0.75913384  0.36601939  0.51055412  1
  O  O265  1  0.74361258  0.86988355  0.01516533  1
  O  O266  1  0.75830069  0.86905466  0.50623070  1
  O  O267  1  0.12828534  0.49658322  0.24768068  1
  O  O268  1  0.12422313  0.49685142  0.73452680  1
  O  O269  1  0.13812251  0.99479720  0.25595008  1
  O  O270  1  0.14017786  0.99151587  0.75192434  1
  O  O271  1  0.63155935  0.49552758  0.24156461  1
  O  O272  1  0.63520081  0.49537720  0.74060269  1
  O  O273  1  0.62412282  0.98915785  0.23642494  1
  O  O274  1  0.63389164  0.99021493  0.74439314  1
  O  O275  1  0.36559121  0.00746834  0.24965958  1
  O  O276  1  0.36696451  0.00358936  0.75773602  1
  O  O277  1  0.37000229  0.50668446  0.25343139  1
  O  O278  1  0.37720530  0.49902768  0.76154063  1
  O  O279  1  0.87665354  0.00957798  0.25107909  1
  O  O280  1  0.86033539  0.00461102  0.74462993  1
  O  O281  1  0.86691680  0.50109803  0.26018258  1
  O  O282  1  0.86320543  0.50273586  0.74806208  1
  O  O283  1  0.12420233  0.36863973  0.36617871  1
  O  O284  1  0.10675793  0.38383191  0.87361849  1
  O  O285  1  0.11396799  0.86755500  0.37565535  1
  O  O286  1  0.14024739  0.86427340  0.85309135  1
  O  O287  1  0.61446657  0.36834845  0.37763386  1
  O  O288  1  0.61958988  0.36632509  0.87034203  1
  O  O289  1  0.62114570  0.86741734  0.36981555  1
  O  O290  1  0.61946433  0.86331902  0.87170828  1
  O  O291  1  0.38092575  0.12997251  0.13271007  1
  O  O292  1  0.34857552  0.12521758  0.64869325  1
  O  O293  1  0.38171863  0.63046374  0.12538369  1
  O  O294  1  0.38074892  0.63367340  0.62509263  1
  O  O295  1  0.88073470  0.13153422  0.13820616  1
  O  O296  1  0.88176791  0.12595235  0.64009869  1
  O  O297  1  0.87561076  0.63592326  0.13232277  1
  O  O298  1  0.88372110  0.63158748  0.62174557  1
  O  O299  1  0.27164693  0.25712275  0.14871968  1
  O  O300  1  0.26344907  0.25365011  0.61177343  1
  O  O301  1  0.25930340  0.75541758  0.12326610  1
  O  O302  1  0.25841761  0.75767389  0.61850199  1
  O  O303  1  0.75714834  0.24487638  0.11639362  1
  O  O304  1  0.75221195  0.25926559  0.62249717  1
  O  O305  1  0.75946568  0.75831679  0.13610715  1
  O  O306  1  0.75523100  0.75524441  0.62240741  1
  O  O307  1  0.24437354  0.24629888  0.37628014  1
  O  O308  1  0.25073942  0.23121270  0.87493849  1
  O  O309  1  0.24280725  0.74580277  0.37779197  1
  O  O310  1  0.24499389  0.74170887  0.87576305  1
  O  O311  1  0.74112040  0.24785027  0.38633322  1
  O  O312  1  0.74504788  0.23945257  0.87829188  1
  O  O313  1  0.74281362  0.73322880  0.38057008  1
  O  O314  1  0.73853616  0.74630400  0.87246211  1
  O  O315  1  -0.00307554  0.13168447  0.02105458  1
  O  O316  1  -0.00209833  0.11865024  0.51600195  1
  O  O317  1  -0.00795565  0.63218434  0.00509954  1
  O  O318  1  0.00962742  0.63226139  0.50881795  1
  O  O319  1  0.50167932  0.12966262  0.01371505  1
  O  O320  1  0.42850136  0.13958629  0.53142377  1
  O  O321  1  0.50671833  0.62331756  0.01104770  1
  O  O322  1  0.50356666  0.62098035  0.51208910  1
  O  O323  1  0.49133108  0.37834209  0.49206624  1
  O  O324  1  0.49883780  0.37429776  0.98455773  1
  O  O325  1  0.49313403  0.86714310  0.48771743  1
  O  O326  1  0.49029888  0.87052963  0.99465135  1
  O  O327  1  0.98870248  0.36861954  0.50166581  1
  O  O328  1  0.99697896  0.36749473  0.99136933  1
  O  O329  1  0.99581336  0.88297402  0.49702132  1
  O  O330  1  0.97418306  0.85774343  0.98691616  1
  O  O331  1  0.49658032  0.49262527  0.37559312  1
  O  O332  1  0.49481417  0.49069062  0.87342071  1
  O  O333  1  0.50078547  0.98707529  0.36973199  1
  O  O334  1  0.49008828  0.98755993  0.87054941  1
  O  O335  1  0.98635038  0.50146160  0.37279841  1
  O  O336  1  0.99955161  0.50286699  0.88255369  1
  O  O337  1  1.00641780  0.99433742  0.38557832  1
  O  O338  1  0.98736190  0.98820848  0.86942256  1
  O  O339  1  -0.00470349  0.01031649  0.12309552  1
  O  O340  1  0.00188580  0.01314324  0.62178547  1
  O  O341  1  0.00354778  0.51901777  0.13241681  1
  O  O342  1  0.00607852  0.51009449  0.62748609  1
  O  O343  1  0.50779633  0.00799116  0.12893128  1
  O  O344  1  0.51143254  -0.00221934  0.63385142  1
  O  O345  1  0.50892137  0.50801019  0.12358624  1
  O  O346  1  0.51059188  0.50445824  0.62362615  1
  O  O347  1  0.24057049  0.38595367  0.24784536  1
  O  O348  1  0.24934791  0.36421789  0.73558128  1
  O  O349  1  0.25295632  0.88403144  0.24049439  1
  O  O350  1  0.24959265  0.88292313  0.73920490  1
  O  O351  1  0.74757356  0.38689531  0.26074141  1
  O  O352  1  0.75009316  0.37868991  0.74385271  1
  O  O353  1  0.74141739  0.87486605  0.24466705  1
  O  O354  1  0.74026200  0.88075891  0.74678091  1
  O  O355  1  0.25706828  0.11951153  0.25628572  1
  O  O356  1  0.25433846  0.11729670  0.76460959  1
  O  O357  1  0.25530327  0.62315502  0.25551419  1
  O  O358  1  0.25600102  0.63033301  0.76483102  1
  O  O359  1  0.76547664  0.12851262  0.25417075  1
  O  O360  1  0.75925743  0.11844252  0.75673418  1
  O  O361  1  0.74985771  0.61261330  0.26137517  1
  O  O362  1  0.75517654  0.61050537  0.74780718  1
  O  O363  1  0.36965094  0.12353746  0.36081846  1
  O  O364  1  0.37283229  0.11664797  0.87169548  1
  O  O365  1  0.37221650  0.62188445  0.36965367  1
  O  O366  1  0.36899776  0.61685202  0.87069009  1
  O  O367  1  0.87356573  0.12902287  0.36319060  1
  O  O368  1  0.86831119  0.12887063  0.86387368  1
  O  O369  1  0.86679291  0.61818300  0.37840543  1
  O  O370  1  0.88827982  0.62392021  0.88351776  1
  O  O371  1  0.11954017  0.38932365  0.13863494  1
  O  O372  1  0.13515635  0.38218991  0.62266271  1
  O  O373  1  0.14202799  0.86427755  0.12840162  1
  O  O374  1  0.13860616  0.86797545  0.63180434  1
  O  O375  1  0.61765768  0.38549147  0.12382195  1
  O  O376  1  0.63311504  0.38023233  0.63143678  1
  O  O377  1  0.63474958  0.87593194  0.13184569  1
  O  O378  1  0.62934015  0.87368992  0.63467647  1
  O  O379  1  0.11618251  0.26091709  0.25334957  1
  O  O380  1  0.11661753  0.25016386  0.74527867  1
  O  O381  1  0.11364567  0.75289376  0.25924145  1
  O  O382  1  0.12017855  0.75544580  0.75098735  1
  O  O383  1  0.62078656  0.25067796  0.25853641  1
  O  O384  1  0.62540419  0.25346767  0.76059282  1
  O  O385  1  0.62713603  0.75504533  0.26240566  1
  O  O386  1  0.62687967  0.75605743  0.76306421  1
  O  O387  1  0.38626199  0.24243474  0.24919518  1
  O  O388  1  0.38022790  0.23768911  0.74053435  1
  O  O389  1  0.37724015  0.74398437  0.23773908  1
  O  O390  1  0.37398267  0.75357844  0.73584530  1
  O  O391  1  0.87888262  0.24656670  0.24746207  1
  O  O392  1  0.88992231  0.24009176  0.74920100  1
  O  O393  1  0.88395810  0.74880459  0.25140911  1
  O  O394  1  0.88355089  0.74668837  0.74414090  1
  O  O395  1  0.37423336  0.49375993  0.49084190  1
  O  O396  1  0.37940908  0.49675376  0.98462967  1
  O  O397  1  0.37089590  0.97962577  0.49158196  1
  O  O398  1  0.37521002  0.98987641  0.99187715  1
  O  O399  1  0.86836735  0.48887920  0.49285573  1
  O  O400  1  0.87685971  0.50448686  1.00071494  1
  O  O401  1  0.88402706  0.98958095  0.51043526  1
  O  O402  1  0.87601057  0.99979374  0.99541630  1
  O  O403  1  0.11739105  -0.03151647  -0.00380362  1
  O  O404  1  0.11709282  -0.00366937  0.50247363  1
  O  O405  1  0.12470379  0.50180390  0.01462760  1
  O  O406  1  0.12755008  0.51221147  0.50622396  1
  O  O407  1  0.62781457  -0.00146267  0.01436440  1
  O  O408  1  0.61965752  -0.00360792  0.52112887  1
  O  O409  1  0.62269920  0.50598807  0.00680536  1
  O  O410  1  0.62839991  0.49807544  0.51463052  1
  O  O411  1  0.37814871  0.36864721  0.12165321  1
  O  O412  1  0.36958129  0.38210198  0.61395736  1
  O  O413  1  0.37168264  0.86869935  0.12117550  1
  O  O414  1  0.37196470  0.86885765  0.61683812  1
  O  O415  1  0.88037048  0.36330517  0.12354573  1
  O  O416  1  0.87002383  0.37343578  0.62160229  1
  O  O417  1  0.86132200  0.86349108  0.12951768  1
  O  O418  1  0.86941406  0.86916905  0.62082881  1
  O  O419  1  0.13311119  0.13931707  0.36564341  1
  O  O420  1  0.13674140  0.11614854  0.87626207  1
  O  O421  1  0.12744882  0.63014552  0.38192841  1
  O  O422  1  0.13678473  0.63292908  0.86821317  1
  O  O423  1  0.62436755  0.13435694  0.37329498  1
  O  O424  1  0.63048498  0.13060833  0.87515036  1
  O  O425  1  0.62930348  0.62949545  0.37786044  1
  O  O426  1  0.61755197  0.63675426  0.88036423  1
