# generated using pymatgen
data_V85Zn86O256
_symmetry_space_group_name_H-M   'P 1'
_cell_length_a   16.94181876
_cell_length_b   16.92515806
_cell_length_c   16.93679713
_cell_angle_alpha   90.02004489
_cell_angle_beta   89.99481642
_cell_angle_gamma   90.06087641
_symmetry_Int_Tables_number   1
_chemical_formula_structural   V85Zn86O256
_chemical_formula_sum   'V85 Zn86 O256'
_cell_volume   4856.50428793
_cell_formula_units_Z   1
loop_
 _symmetry_equiv_pos_site_id
 _symmetry_equiv_pos_as_xyz
  1  'x, y, z'
loop_
 _atom_site_type_symbol
 _atom_site_label
 _atom_site_symmetry_multiplicity
 _atom_site_fract_x
 _atom_site_fract_y
 _atom_site_fract_z
 _atom_site_occupancy
  V  V0  1  0.62747118  0.87829817  0.25556765  1
  V  V1  1  0.25205933  0.87106878  0.12421455  1
  V  V2  1  0.62815847  0.50218358  0.13617119  1
  V  V3  1  0.61969788  0.37769287  0.74841298  1
  V  V4  1  0.37599124  0.76356860  0.62287222  1
  V  V5  1  0.12231179  0.24367830  0.38021655  1
  V  V6  1  0.49635686  0.23602964  0.74755389  1
  V  V7  1  0.25573908  0.74296948  -0.00711092  1
  V  V8  1  0.87607486  0.74996993  0.12454792  1
  V  V9  1  0.49859932  0.88395919  0.88175712  1
  V  V10  1  0.12411336  0.26015123  0.86781093  1
  V  V11  1  0.01062398  0.12488689  0.62331018  1
  V  V12  1  0.37055516  0.62608025  0.75151118  1
  V  V13  1  0.75241377  0.25242544  -0.00211741  1
  V  V14  1  0.25353528  0.49942003  0.25169102  1
  V  V15  1  0.50126834  0.75335384  0.75236613  1
  V  V16  1  0.62380812  0.00667968  0.62790059  1
  V  V17  1  0.62292472  0.00007574  0.11780793  1
  V  V18  1  0.74963513  0.00519574  0.25128506  1
  V  V19  1  0.25693313  0.12907716  0.86512288  1
  V  V20  1  0.37514911  0.24842812  0.12525840  1
  V  V21  1  0.75077607  0.24625724  0.48900693  1
  V  V22  1  0.74331053  0.37156222  0.62270746  1
  V  V23  1  0.25050560  -0.00125431  0.25233873  1
  V  V24  1  0.87420186  0.62335501  0.74913844  1
  V  V25  1  0.62837438  0.11930641  0.49499151  1
  V  V26  1  0.50188789  0.62139094  0.62654655  1
  V  V27  1  0.24094297  0.00184578  0.74461599  1
  V  V28  1  0.74542267  0.74812856  0.00205764  1
  V  V29  1  0.61921342  0.24977525  0.37686279  1
  V  V30  1  0.74666136  0.49839692  0.74579611  1
  V  V31  1  0.87714507  0.49793152  0.88892641  1
  V  V32  1  0.01792591  -0.10174957  -0.12390083  1
  V  V33  1  0.50105806  0.49260904  0.50378342  1
  V  V34  1  0.12365750  0.49551055  0.61864661  1
  V  V35  1  0.75143032  0.88294705  0.63030717  1
  V  V36  1  0.12247520  0.12313938  -0.00556082  1
  V  V37  1  0.38157876  0.49041654  0.37655329  1
  V  V38  1  0.12263137  0.62073233  -0.00673501  1
  V  V39  1  0.74317389  0.62383185  0.88049554  1
  V  V40  1  0.87549454  0.25299486  0.11975639  1
  V  V41  1  0.25121621  0.37524672  0.12523310  1
  V  V42  1  0.87135247  0.24875369  0.62084515  1
  V  V43  1  -0.00250670  0.24923576  0.25150979  1
  V  V44  1  0.87594280  0.87771222  0.50381579  1
  V  V45  1  0.37679551  0.37806629  -0.00069075  1
  V  V46  1  0.01204576  0.00491643  0.50423289  1
  V  V47  1  0.62960387  0.87963492  0.75238246  1
  V  V48  1  0.12349049  0.87212217  0.24999209  1
  V  V49  1  0.24916741  0.25206299  -0.00228586  1
  V  V50  1  0.22863283  0.87807790  0.62719178  1
  V  V51  1  -0.00158903  0.38278427  0.88538190  1
  V  V52  1  0.12026584  -0.00190104  0.11917574  1
  V  V53  1  0.25355614  0.75427219  0.49976279  1
  V  V54  1  0.24030862  0.50003877  0.75169706  1
  V  V55  1  0.37500302  0.11879393  0.25506949  1
  V  V56  1  0.87084815  0.00149232  0.37774747  1
  V  V57  1  -0.00043362  0.87443300  0.37640670  1
  V  V58  1  0.50126674  0.74987165  0.25284361  1
  V  V59  1  0.86705298  0.00110333  0.88423926  1
  V  V60  1  0.62509339  0.62476609  0.50303062  1
  V  V61  1  0.00223984  0.62248860  0.61669795  1
  V  V62  1  0.00090177  0.12245502  0.12147187  1
  V  V63  1  0.50588626  0.62795976  0.12028870  1
  V  V64  1  -0.00241915  0.26549416  0.74767876  1
  V  V65  1  0.24730566  0.24507263  0.50184309  1
  V  V66  1  -0.00216805  0.74377136  0.25035382  1
  V  V67  1  0.51109188  0.50376275  -0.00282887  1
  V  V68  1  -0.00602622  0.38572803  0.38472247  1
  V  V69  1  0.48895314  0.00104908  0.50353384  1
  V  V70  1  0.25049421  0.37439594  0.62847737  1
  V  V71  1  0.12597160  0.37243042  0.25082363  1
  V  V72  1  0.24915672  0.11768769  0.37908943  1
  V  V73  1  0.12198418  0.50132253  0.12313309  1
  V  V74  1  0.87158995  0.11858649  0.74964768  1
  V  V75  1  0.25316205  0.62329224  0.37769832  1
  V  V76  1  0.37745351  0.23554953  0.62838806  1
  V  V77  1  0.37126816  0.50536776  0.87542474  1
  V  V78  1  0.49769819  0.25430721  0.25512091  1
  V  V79  1  0.87443576  0.12552267  0.25339963  1
  V  V80  1  0.49787795  0.12008025  0.11811955  1
  V  V81  1  0.74984515  0.37630414  0.13097281  1
  V  V82  1  0.62350462  0.24994598  0.87570338  1
  V  V83  1  0.48727601  0.88043020  0.38043547  1
  V  V84  1  0.87568698  0.75363959  0.63026092  1
  Zn  Zn85  1  -0.00213634  0.61915237  0.12268011  1
  Zn  Zn86  1  0.12434105  0.62054643  0.49641485  1
  Zn  Zn87  1  0.62218174  0.12231148  -0.00244203  1
  Zn  Zn88  1  0.62405322  0.74748167  0.87945645  1
  Zn  Zn89  1  0.37467100  0.00654454  0.87128974  1
  Zn  Zn90  1  0.75304212  0.87666678  0.12365049  1
  Zn  Zn91  1  0.37732017  0.74871083  0.12529473  1
  Zn  Zn92  1  0.13055293  0.75396871  0.86998324  1
  Zn  Zn93  1  0.37949803  0.62360907  0.25075354  1
  Zn  Zn94  1  0.88035727  0.87516905  -0.00032989  1
  Zn  Zn95  1  0.62378687  0.37480014  0.25664803  1
  Zn  Zn96  1  0.75438489  0.61507681  0.37402307  1
  Zn  Zn97  1  0.12569312  0.74740830  0.37680451  1
  Zn  Zn98  1  0.74664107  0.12433869  0.87238737  1
  Zn  Zn99  1  0.38224164  0.88103395  0.00508372  1
  Zn  Zn100  1  0.37999081  0.36864841  0.49885903  1
  Zn  Zn101  1  0.49764373  0.37501979  0.87165860  1
  Zn  Zn102  1  0.84278873  0.43408062  0.46219674  1
  Zn  Zn103  1  0.74978435  0.75120954  0.50026092  1
  Zn  Zn104  1  0.86291507  0.61410476  0.25346751  1
  Zn  Zn105  1  0.01363647  0.75721804  0.75015547  1
  Zn  Zn106  1  0.62807310  0.74969553  0.37836732  1
  Zn  Zn107  1  0.18736628  0.18577958  0.18762393  1
  Zn  Zn108  1  0.18595308  0.19013154  0.68977849  1
  Zn  Zn109  1  0.18926742  0.68548769  0.18760106  1
  Zn  Zn110  1  0.18759243  0.68657480  0.68629105  1
  Zn  Zn111  1  0.68700366  0.18715805  0.18954896  1
  Zn  Zn112  1  0.68662764  0.18679952  0.68830336  1
  Zn  Zn113  1  0.68974414  0.68628059  0.19277633  1
  Zn  Zn114  1  0.68707203  0.69113074  0.68699900  1
  Zn  Zn115  1  0.31256202  0.30874445  0.31477886  1
  Zn  Zn116  1  0.31442732  0.31645604  0.80948797  1
  Zn  Zn117  1  0.31482670  0.81042889  0.31186236  1
  Zn  Zn118  1  0.31146870  0.81834398  0.80718684  1
  Zn  Zn119  1  0.80559510  0.45425453  0.29803413  1
  Zn  Zn120  1  0.81432485  0.31415550  0.81109739  1
  Zn  Zn121  1  0.81090963  0.80786084  0.31542218  1
  Zn  Zn122  1  0.81490348  0.81455819  0.81521200  1
  Zn  Zn123  1  0.18868167  0.43163443  0.43841979  1
  Zn  Zn124  1  0.18770607  0.44012178  0.93435318  1
  Zn  Zn125  1  0.18971320  0.93369244  0.43985155  1
  Zn  Zn126  1  0.20629907  0.94424311  0.94311179  1
  Zn  Zn127  1  0.67260713  0.43388760  0.44189453  1
  Zn  Zn128  1  0.69085680  0.43281490  0.93833049  1
  Zn  Zn129  1  0.68907049  0.93664386  0.43902921  1
  Zn  Zn130  1  0.69104894  0.93286060  0.93837499  1
  Zn  Zn131  1  0.31029100  0.06083506  0.05909098  1
  Zn  Zn132  1  0.30653673  0.05942888  0.56346216  1
  Zn  Zn133  1  0.31657457  0.56392571  0.06570289  1
  Zn  Zn134  1  0.31614811  0.56438717  0.56374187  1
  Zn  Zn135  1  0.80809737  0.06756436  0.06254549  1
  Zn  Zn136  1  0.81244451  0.06354769  0.56371301  1
  Zn  Zn137  1  0.81120875  0.56553034  0.07117802  1
  Zn  Zn138  1  0.80651214  0.56461649  0.56733160  1
  Zn  Zn139  1  0.44031011  0.43914757  0.18615188  1
  Zn  Zn140  1  0.43366762  0.43433417  0.68599900  1
  Zn  Zn141  1  0.43819756  0.93768157  0.19049474  1
  Zn  Zn142  1  0.43467494  0.94701275  0.69265888  1
  Zn  Zn143  1  0.94355105  0.42964639  0.18191225  1
  Zn  Zn144  1  0.92021368  0.45027923  0.65390290  1
  Zn  Zn145  1  0.93828933  0.93480715  0.18654176  1
  Zn  Zn146  1  0.94717081  0.94016804  0.69422088  1
  Zn  Zn147  1  0.06193060  0.06008405  0.31342661  1
  Zn  Zn148  1  0.06424937  0.06976907  0.80591262  1
  Zn  Zn149  1  0.06554784  0.56185717  0.31146246  1
  Zn  Zn150  1  0.04737287  0.59388281  0.82575921  1
  Zn  Zn151  1  0.56044610  0.06407969  0.31468573  1
  Zn  Zn152  1  0.56338755  0.06163868  0.81278412  1
  Zn  Zn153  1  0.56489614  0.56432606  0.31702314  1
  Zn  Zn154  1  0.56035809  0.56209278  0.81188258  1
  Zn  Zn155  1  0.43641080  0.18027177  0.44094629  1
  Zn  Zn156  1  0.43925181  0.19018741  0.93806667  1
  Zn  Zn157  1  0.43687699  0.68704434  0.43841202  1
  Zn  Zn158  1  0.43752261  0.68870057  0.93709424  1
  Zn  Zn159  1  0.93686973  0.18777769  0.43822912  1
  Zn  Zn160  1  0.93966428  0.18873965  0.93500098  1
  Zn  Zn161  1  0.93053335  0.68498806  0.43635910  1
  Zn  Zn162  1  0.93703970  0.68901335  0.93854824  1
  Zn  Zn163  1  0.06279830  0.31290361  0.06001461  1
  Zn  Zn164  1  0.06496140  0.31187366  0.56262955  1
  Zn  Zn165  1  0.06305098  0.80852838  0.05556210  1
  Zn  Zn166  1  0.06038714  0.80558826  0.55841139  1
  Zn  Zn167  1  0.56274730  0.31376074  0.06378759  1
  Zn  Zn168  1  0.56109665  0.30671429  0.56452283  1
  Zn  Zn169  1  0.56685457  0.81349254  0.06487320  1
  Zn  Zn170  1  0.56234126  0.81522495  0.56453208  1
  O  O171  1  0.12256566  0.11749921  0.11736256  1
  O  O172  1  0.10965685  0.13543787  0.62481995  1
  O  O173  1  0.12733056  0.61593830  0.11799928  1
  O  O174  1  0.11778455  0.61661121  0.62103704  1
  O  O175  1  0.61491827  0.11748513  0.12634389  1
  O  O176  1  0.62803573  0.11154739  0.62094406  1
  O  O177  1  0.61462437  0.61681859  0.12757413  1
  O  O178  1  0.61051480  0.63062344  0.62088268  1
  O  O179  1  0.37043089  0.38554953  0.37874550  1
  O  O180  1  0.37766497  0.38321952  0.88211621  1
  O  O181  1  0.38857903  0.87713817  0.37203981  1
  O  O182  1  0.39311814  0.87171594  0.87249999  1
  O  O183  1  0.89037201  0.38094747  0.37124272  1
  O  O184  1  0.87961503  0.39094159  0.87123988  1
  O  O185  1  0.88105683  0.88257466  0.38076909  1
  O  O186  1  0.88015522  0.89330605  0.87424970  1
  O  O187  1  0.24297646  0.01053714  0.37065606  1
  O  O188  1  0.24422111  0.01517094  0.86229048  1
  O  O189  1  0.25656618  0.50432754  0.37137893  1
  O  O190  1  0.26374052  0.49530318  0.86650559  1
  O  O191  1  0.76328404  -0.00307745  0.36904193  1
  O  O192  1  0.76305108  0.00378277  0.87648731  1
  O  O193  1  0.75927097  0.49022925  0.39467557  1
  O  O194  1  0.75790307  0.50276953  0.86816863  1
  O  O195  1  0.24804556  0.49408802  0.13319761  1
  O  O196  1  0.24839628  0.49238780  0.63076772  1
  O  O197  1  0.23841433  0.99200678  0.13260489  1
  O  O198  1  0.24877411  0.98504477  0.62631282  1
  O  O199  1  0.73618373  0.48992018  0.11269836  1
  O  O200  1  0.74313793  0.48863353  0.63925423  1
  O  O201  1  0.74323882  0.99931764  0.13376971  1
  O  O202  1  0.74356659  0.98976694  0.62446773  1
  O  O203  1  0.00779347  0.36434043  0.25686935  1
  O  O204  1  -0.00933798  0.36570667  0.75516699  1
  O  O205  1  0.00745068  0.86690082  0.25453377  1
  O  O206  1  -0.00142788  0.87315114  0.77404003  1
  O  O207  1  0.49836719  0.35738758  0.24419030  1
  O  O208  1  0.50675438  0.36771867  0.74862225  1
  O  O209  1  0.50659391  0.87315843  0.26188112  1
  O  O210  1  0.50855348  0.87012023  0.75749958  1
  O  O211  1  0.49025738  0.12970367  0.24326441  1
  O  O212  1  0.50102393  0.13643515  0.75163138  1
  O  O213  1  0.50293470  0.63550005  0.24618347  1
  O  O214  1  0.49416380  0.63261543  0.74484771  1
  O  O215  1  0.99596870  0.12907483  0.24243164  1
  O  O216  1  0.98972366  0.13559149  0.74239947  1
  O  O217  1  1.00675417  0.63788437  0.24704359  1
  O  O218  1  0.98218954  0.62044849  0.73529027  1
  O  O219  1  0.36973713  0.25747902  0.00581956  1
  O  O220  1  0.37046630  0.24822760  0.51094307  1
  O  O221  1  0.36589727  0.75417244  0.00338390  1
  O  O222  1  0.36470988  0.74597557  0.50932310  1
  O  O223  1  0.86680436  0.24110431  0.00842829  1
  O  O224  1  0.86429533  0.24224775  0.50909451  1
  O  O225  1  0.86715506  0.74865880  0.00720230  1
  O  O226  1  0.87657994  0.75957131  0.51539243  1
  O  O227  1  0.13337245  0.24922799  0.49121927  1
  O  O228  1  0.13113541  0.24670732  0.98996985  1
  O  O229  1  0.13941748  0.74575002  0.49765479  1
  O  O230  1  0.13720372  0.73669612  0.99666544  1
  O  O231  1  0.62555871  0.23891870  0.49605726  1
  O  O232  1  0.62799316  0.24925281  0.99037034  1
  O  O233  1  0.62145641  0.73781954  0.50256891  1
  O  O234  1  0.64030931  0.75382876  0.99925617  1
  O  O235  1  0.49361727  0.24083517  0.13161435  1
  O  O236  1  0.48502111  0.24982775  0.63034799  1
  O  O237  1  0.50207942  0.74441523  0.13230360  1
  O  O238  1  0.49420823  0.74812682  0.63545145  1
  O  O239  1  0.99518275  0.24555103  0.13016915  1
  O  O240  1  0.99003668  0.24819959  0.62921807  1
  O  O241  1  0.99444468  0.75003229  0.13156903  1
  O  O242  1  0.99306020  0.74367668  0.63109348  1
  O  O243  1  0.00574936  0.25215088  0.36758154  1
  O  O244  1  0.00464756  0.26036594  0.86804016  1
  O  O245  1  0.00234091  0.75698805  0.36811456  1
  O  O246  1  0.01371926  0.71670446  0.86246668  1
  O  O247  1  0.50393797  0.24044556  0.36675317  1
  O  O248  1  0.50619140  0.25256907  0.86733711  1
  O  O249  1  0.50228956  0.76168458  0.37115434  1
  O  O250  1  0.50329768  0.75550755  0.86519614  1
  O  O251  1  0.25275173  0.13346521  0.49232628  1
  O  O252  1  0.23853804  0.13501531  0.99329794  1
  O  O253  1  0.25176184  0.63217269  0.49325174  1
  O  O254  1  0.24818773  0.63898372  1.00763290  1
  O  O255  1  0.73700173  0.13009776  0.50555345  1
  O  O256  1  0.74323612  0.13823223  0.99795575  1
  O  O257  1  0.73335427  0.62782178  0.50979437  1
  O  O258  1  0.75459347  0.63235184  0.99062774  1
  O  O259  1  0.25687000  0.37090111  0.00415886  1
  O  O260  1  0.25320294  0.35917568  0.50516815  1
  O  O261  1  0.24344171  0.85979125  0.01480265  1
  O  O262  1  0.24854208  0.86825675  0.51354039  1
  O  O263  1  0.74521678  0.35997298  0.01045995  1
  O  O264  1  0.74656991  0.36505575  0.50959063  1
  O  O265  1  0.75838140  0.86516799  0.00198353  1
  O  O266  1  0.75819345  0.87579608  0.51148696  1
  O  O267  1  0.13450667  0.49348094  0.24269329  1
  O  O268  1  0.14009893  0.51073327  0.74349018  1
  O  O269  1  0.12877275  0.98848884  0.24423360  1
  O  O270  1  0.13848716  1.00753005  0.74645173  1
  O  O271  1  0.61472748  0.49359987  0.23996893  1
  O  O272  1  0.62895916  0.48583214  0.75758210  1
  O  O273  1  0.63320983  0.99816093  0.24704735  1
  O  O274  1  0.61977179  0.99197113  0.74105480  1
  O  O275  1  0.36709222  0.01117887  0.24679123  1
  O  O276  1  0.35658636  -0.00209617  0.75511798  1
  O  O277  1  0.37253689  0.49943565  0.25867385  1
  O  O278  1  0.37197867  0.50742183  0.75703074  1
  O  O279  1  0.86978691  0.00463664  0.25487244  1
  O  O280  1  0.88167706  0.01387618  0.76011542  1
  O  O281  1  0.87438944  0.50234847  0.22640582  1
  O  O282  1  0.86281185  0.50763084  0.74842728  1
  O  O283  1  0.12254679  0.36078998  0.36869426  1
  O  O284  1  0.11632993  0.37005715  0.87594818  1
  O  O285  1  0.12007067  0.87292319  0.36530514  1
  O  O286  1  0.11865428  0.88372837  0.88243145  1
  O  O287  1  0.62128349  0.35662281  0.37502257  1
  O  O288  1  0.62264549  0.36467597  0.86780365  1
  O  O289  1  0.61934658  0.87709580  0.36530465  1
  O  O290  1  0.61600986  0.87514128  0.86891044  1
  O  O291  1  0.37818838  0.12723792  0.13031234  1
  O  O292  1  0.36839950  0.13731556  0.62484048  1
  O  O293  1  0.39164926  0.62487217  0.13020576  1
  O  O294  1  0.38569220  0.63543529  0.63125918  1
  O  O295  1  0.88033581  0.13020175  0.13355077  1
  O  O296  1  0.87826766  0.13215454  0.63457411  1
  O  O297  1  0.87976281  0.63799279  0.12824308  1
  O  O298  1  0.87623462  0.63728181  0.63190546  1
  O  O299  1  0.25552132  0.25481806  0.12010787  1
  O  O300  1  0.25657448  0.25370642  0.62079167  1
  O  O301  1  0.25402301  0.75603169  0.12008925  1
  O  O302  1  0.25640650  0.76055469  0.61955641  1
  O  O303  1  0.75648644  0.25339169  0.12022234  1
  O  O304  1  0.75299302  0.25220055  0.61714486  1
  O  O305  1  0.75703413  0.75151495  0.11973434  1
  O  O306  1  0.75743835  0.76357734  0.62533031  1
  O  O307  1  0.24297435  0.24102801  0.38251324  1
  O  O308  1  0.24193372  0.24938184  0.87482717  1
  O  O309  1  0.25316884  0.74311121  0.38237700  1
  O  O310  1  0.25208035  0.75937359  0.89044621  1
  O  O311  1  0.73974466  0.24826897  0.38917805  1
  O  O312  1  0.74326959  0.25138327  0.88126696  1
  O  O313  1  0.74489677  0.74835855  0.38353445  1
  O  O314  1  0.75173833  0.74094601  0.88235718  1
  O  O315  1  0.01487592  0.13339728  0.00530830  1
  O  O316  1  -0.00732472  0.11709505  0.51050749  1
  O  O317  1  0.01904774  0.62604092  0.00392226  1
  O  O318  1  0.00154159  0.63228545  0.51349073  1
  O  O319  1  0.49975092  0.12700070  0.01359251  1
  O  O320  1  0.51010563  0.10810669  0.49684817  1
  O  O321  1  0.49790218  0.61738765  0.00728358  1
  O  O322  1  0.50542656  0.62001305  0.50849777  1
  O  O323  1  0.50061563  0.38810819  0.50919953  1
  O  O324  1  0.49152905  0.38370091  1.00008796  1
  O  O325  1  0.50539993  0.88409171  0.48786905  1
  O  O326  1  0.50152569  0.86925260  0.98567412  1
  O  O327  1  1.00240079  0.36655863  0.48350782  1
  O  O328  1  1.00041743  0.37356898  0.98519838  1
  O  O329  1  0.99406969  0.88180859  0.49687128  1
  O  O330  1  0.99607106  0.86123767  0.97473545  1
  O  O331  1  0.49124286  0.50515954  0.38715233  1
  O  O332  1  0.49089183  0.49944552  0.88178857  1
  O  O333  1  0.50323129  0.98913618  0.38628607  1
  O  O334  1  0.49763129  0.98801777  0.87412046  1
  O  O335  1  1.01409095  0.48376443  0.37547662  1
  O  O336  1  0.98449561  0.49852432  0.86915538  1
  O  O337  1  0.98976340  0.99534744  0.37984212  1
  O  O338  1  0.99709804  1.00013543  0.87629156  1
  O  O339  1  0.01269063  0.00372295  0.12870757  1
  O  O340  1  -0.00522596  0.01127120  0.61711670  1
  O  O341  1  0.01874045  0.49716191  0.12416418  1
  O  O342  1  0.01778622  0.50679169  0.63411915  1
  O  O343  1  0.50931559  0.00807553  0.13247887  1
  O  O344  1  0.50898068  -0.01048555  0.61140942  1
  O  O345  1  0.50808077  0.50635955  0.11712570  1
  O  O346  1  0.49040443  0.51124657  0.61874803  1
  O  O347  1  0.24488992  0.37674867  0.24603034  1
  O  O348  1  0.25429188  0.38619069  0.74048242  1
  O  O349  1  0.24350548  0.87531137  0.24258933  1
  O  O350  1  0.24801239  0.88128404  0.73435277  1
  O  O351  1  0.74508006  0.37265711  0.23474905  1
  O  O352  1  0.74033452  0.37961482  0.74696410  1
  O  O353  1  0.74353423  0.88624886  0.24963478  1
  O  O354  1  0.73778056  0.87156779  0.74717998  1
  O  O355  1  0.25572700  0.12049779  0.25682087  1
  O  O356  1  0.24837885  0.12192673  0.75595566  1
  O  O357  1  0.25535737  0.61931642  0.25857415  1
  O  O358  1  0.26606717  0.61667517  0.73906996  1
  O  O359  1  0.75939935  0.11388417  0.24630338  1
  O  O360  1  0.76713082  0.13227073  0.75263246  1
  O  O361  1  0.74489030  0.61596416  0.25709652  1
  O  O362  1  0.75524415  0.61794751  0.75252566  1
  O  O363  1  0.36251483  0.12903732  0.36595496  1
  O  O364  1  0.35951349  0.13087414  0.88088299  1
  O  O365  1  0.36694823  0.61517059  0.37443006  1
  O  O366  1  0.37952180  0.61809251  0.86459640  1
  O  O367  1  0.88189703  0.11758398  0.36088597  1
  O  O368  1  0.87705337  0.11576359  0.86781889  1
  O  O369  1  0.87114416  0.62313036  0.36905331  1
  O  O370  1  0.86606596  0.61398990  0.86675139  1
  O  O371  1  0.13227856  0.37922887  0.12921186  1
  O  O372  1  0.13862904  0.38010279  0.62219695  1
  O  O373  1  0.12839114  0.87933302  0.12899021  1
  O  O374  1  0.13071319  0.87186407  0.62422870  1
  O  O375  1  0.63101595  0.38149433  0.12871358  1
  O  O376  1  0.63488919  0.36472886  0.63424535  1
  O  O377  1  0.62445916  0.88406918  0.13894541  1
  O  O378  1  0.63291543  0.88228995  0.63215058  1
  O  O379  1  0.11494079  0.25110237  0.25375959  1
  O  O380  1  0.11393548  0.24922537  0.76005637  1
  O  O381  1  0.12014566  0.75989348  0.24948677  1
  O  O382  1  0.12748380  0.74381475  0.75716341  1
  O  O383  1  0.61497321  0.24558441  0.25920880  1
  O  O384  1  0.61760240  0.25579252  0.75572709  1
  O  O385  1  0.61565387  0.76145286  0.25125319  1
  O  O386  1  0.61625664  0.75898427  0.75140489  1
  O  O387  1  0.37842209  0.23947065  0.24519226  1
  O  O388  1  0.38172320  0.25387065  0.73749535  1
  O  O389  1  0.39015131  0.74969084  0.24843792  1
  O  O390  1  0.38080930  0.74418038  0.74489102  1
  O  O391  1  0.88865376  0.24007651  0.24179016  1
  O  O392  1  0.88137200  0.24032207  0.74678305  1
  O  O393  1  0.88458005  0.75292795  0.24224816  1
  O  O394  1  0.87434061  0.74432950  0.74238043  1
  O  O395  1  0.38261974  0.49808100  0.49364742  1
  O  O396  1  0.38098658  0.49737333  0.99317144  1
  O  O397  1  0.39024694  1.00441789  0.50476891  1
  O  O398  1  0.34492516  0.98710969  0.98344731  1
  O  O399  1  0.88483596  0.48922778  0.54764587  1
  O  O400  1  0.87154654  0.50488721  0.98704813  1
  O  O401  1  0.87899191  0.99680723  0.49253457  1
  O  O402  1  0.87476702  1.00400740  0.98752437  1
  O  O403  1  0.13249999  0.01050969  0.00821344  1
  O  O404  1  0.11049779  -0.00080097  0.49198085  1
  O  O405  1  0.14105961  0.51248691  0.01062977  1
  O  O406  1  0.13552537  0.50132987  0.51350504  1
  O  O407  1  0.63139036  -0.00036794  0.01414253  1
  O  O408  1  0.62123915  0.00412549  0.50650267  1
  O  O409  1  0.61323063  0.49358316  0.00315341  1
  O  O410  1  0.61323720  0.51268288  0.50337386  1
  O  O411  1  0.37009225  0.37064714  0.11934243  1
  O  O412  1  0.36289094  0.36674233  0.62083720  1
  O  O413  1  0.36587925  0.87445363  0.12519748  1
  O  O414  1  0.37654298  0.86433717  0.62998702  1
  O  O415  1  0.86912886  0.35897199  0.12463655  1
  O  O416  1  0.85688777  0.35486659  0.63863599  1
  O  O417  1  0.87565161  0.86466304  0.12123853  1
  O  O418  1  0.87066184  0.87354897  0.62844136  1
  O  O419  1  0.13209719  0.13611665  0.36695744  1
  O  O420  1  0.12963358  0.13746221  0.87995442  1
  O  O421  1  0.14001860  0.62532435  0.37574582  1
  O  O422  1  0.13868523  0.61197951  0.89293624  1
  O  O423  1  0.62347579  0.13252169  0.38418290  1
  O  O424  1  0.62639656  0.13535618  0.87550108  1
  O  O425  1  0.62598049  0.62672999  0.39210017  1
  O  O426  1  0.63923167  0.62549278  0.86783612  1
