# generated using pymatgen
data_V85Zn86O256
_symmetry_space_group_name_H-M   'P 1'
_cell_length_a   16.98157035
_cell_length_b   16.97283966
_cell_length_c   16.99322608
_cell_angle_alpha   89.84391926
_cell_angle_beta   90.00430729
_cell_angle_gamma   89.95910512
_symmetry_Int_Tables_number   1
_chemical_formula_structural   V85Zn86O256
_chemical_formula_sum   'V85 Zn86 O256'
_cell_volume   4897.86114924
_cell_formula_units_Z   1
loop_
 _symmetry_equiv_pos_site_id
 _symmetry_equiv_pos_as_xyz
  1  'x, y, z'
loop_
 _atom_site_type_symbol
 _atom_site_label
 _atom_site_symmetry_multiplicity
 _atom_site_fract_x
 _atom_site_fract_y
 _atom_site_fract_z
 _atom_site_occupancy
  V  V0  1  0.87496045  0.12546195  0.75076022  1
  V  V1  1  0.25107151  0.62678664  0.37476480  1
  V  V2  1  0.62069027  0.00187596  0.62366243  1
  V  V3  1  0.25965651  0.12020473  0.38170591  1
  V  V4  1  0.75399434  0.62606147  0.86646914  1
  V  V5  1  0.75137914  -0.00135033  0.25185689  1
  V  V6  1  0.01085794  0.11986672  0.12170460  1
  V  V7  1  0.37574548  0.62546814  0.75440715  1
  V  V8  1  0.50233071  0.25083604  0.25078886  1
  V  V9  1  0.00402301  0.51993717  0.00104922  1
  V  V10  1  0.75141386  0.12344573  0.37640480  1
  V  V11  1  0.89310707  0.86383136  0.02408506  1
  V  V12  1  0.62321212  0.75089964  0.87534939  1
  V  V13  1  0.31226538  0.31568637  0.56271830  1
  V  V14  1  0.74300461  0.75687576  0.49135542  1
  V  V15  1  0.87011323  0.76228855  0.63199466  1
  V  V16  1  0.49597583  0.49464035  0.50593997  1
  V  V17  1  0.37634623  0.37157743  -0.00401582  1
  V  V18  1  0.87570977  -0.01153765  0.37895040  1
  V  V19  1  0.74743731  0.25242464  0.49810202  1
  V  V20  1  0.00014951  0.12434057  0.62268141  1
  V  V21  1  0.50034357  0.37316186  0.38013295  1
  V  V22  1  0.01813852  0.86957586  0.86657013  1
  V  V23  1  0.12144996  0.62300074  0.50175542  1
  V  V24  1  0.62770053  0.37119729  0.76616274  1
  V  V25  1  0.37550155  0.00220740  0.87442973  1
  V  V26  1  0.37729015  0.11452141  0.25295869  1
  V  V27  1  0.87919049  0.12002844  0.24768026  1
  V  V28  1  0.37566597  0.75779852  0.62670318  1
  V  V29  1  0.49931709  0.62582031  0.62403768  1
  V  V30  1  0.50186183  -0.00019835  0.00017346  1
  V  V31  1  0.06502470  0.69613900  0.31827661  1
  V  V32  1  0.19145917  0.82666050  0.68521283  1
  V  V33  1  0.37105251  0.75554228  0.12332341  1
  V  V34  1  0.25537776  0.49192182  0.74268600  1
  V  V35  1  0.87838715  -0.00898538  0.87554911  1
  V  V36  1  0.50436814  0.49208197  -0.00103457  1
  V  V37  1  -0.00261590  -0.00186729  0.50071351  1
  V  V38  1  0.00036299  0.37305802  0.87484322  1
  V  V39  1  0.36909319  0.88188709  0.49856509  1
  V  V40  1  -0.01187892  0.62253416  0.63072348  1
  V  V41  1  0.37852743  0.49658040  0.87677372  1
  V  V42  1  0.01537774  0.25879355  0.24582667  1
  V  V43  1  0.23661192  0.74864334  -0.00246182  1
  V  V44  1  0.50015074  0.25400501  0.76961475  1
  V  V45  1  0.50140583  0.87658396  0.87817156  1
  V  V46  1  0.13595722  -0.00530077  0.12218782  1
  V  V47  1  0.87410627  0.25415578  0.62128408  1
  V  V48  1  0.74936985  0.38721302  0.12428251  1
  V  V49  1  0.13022469  0.37111457  0.74086290  1
  V  V50  1  0.88092247  0.37347068  0.00320041  1
  V  V51  1  0.37297229  0.62137142  0.24733720  1
  V  V52  1  0.50256454  0.12586127  0.12519259  1
  V  V53  1  0.62412885  0.87340351  0.25717093  1
  V  V54  1  0.75253125  0.75614009  0.00005621  1
  V  V55  1  0.49244507  0.88479954  0.37548776  1
  V  V56  1  0.49637337  0.14001354  0.62550173  1
  V  V57  1  0.01142853  0.00514814  -0.00402179  1
  V  V58  1  0.24617935  0.25029371  0.00066627  1
  V  V59  1  0.12796160  0.00065964  0.62726190  1
  V  V60  1  0.62470866  0.87521842  0.74932986  1
  V  V61  1  0.12808778  0.13046637  0.49768813  1
  V  V62  1  0.13331420  0.87421887  0.25079411  1
  V  V63  1  0.87727037  0.50171482  0.86632166  1
  V  V64  1  0.62493030  0.50003220  0.62747091  1
  V  V65  1  0.87624792  0.24691198  0.12716822  1
  V  V66  1  0.50847241  0.73995619  0.26199297  1
  V  V67  1  0.62807228  0.00052399  0.12488635  1
  V  V68  1  0.00842879  0.87306662  0.37560755  1
  V  V69  1  0.25082495  0.00203715  0.74633874  1
  V  V70  1  0.24668505  0.75489844  0.49335840  1
  V  V71  1  0.62365738  0.12560091  0.50008761  1
  V  V72  1  0.74639691  0.24732991  -0.00035403  1
  V  V73  1  0.62738298  0.38592428  0.24351830  1
  V  V74  1  0.37466555  0.49446494  0.37695876  1
  V  V75  1  0.62380956  0.62166987  -0.00017843  1
  V  V76  1  0.74919155  0.00243829  0.75056879  1
  V  V77  1  0.12499732  0.25028637  0.87916916  1
  V  V78  1  0.74746300  0.12691196  0.87699293  1
  V  V79  1  0.37612929  0.25054912  0.12523191  1
  V  V80  1  0.24572988  0.48584871  0.24928172  1
  V  V81  1  0.24263987  0.12426762  0.87853836  1
  V  V82  1  0.49976559  0.62014318  0.12298736  1
  V  V83  1  0.00038830  0.24883836  0.74985455  1
  V  V84  1  0.11577584  0.50050868  0.13492445  1
  Zn  Zn85  1  0.75164161  0.88038838  0.62154990  1
  Zn  Zn86  1  0.75070177  0.86766703  0.13001486  1
  Zn  Zn87  1  0.62436268  0.12744956  -0.00379344  1
  Zn  Zn88  1  0.77920654  0.55858785  0.31656485  1
  Zn  Zn89  1  0.00403658  0.75100607  0.75016743  1
  Zn  Zn90  1  0.74780386  0.37870458  0.62315747  1
  Zn  Zn91  1  0.62713483  0.25082491  0.37314788  1
  Zn  Zn92  1  0.37134380  0.87763857  0.00627254  1
  Zn  Zn93  1  0.75296120  0.50085937  0.74699483  1
  Zn  Zn94  1  0.25669351  -0.00712065  0.25015825  1
  Zn  Zn95  1  0.37174953  0.13540062  0.74550283  1
  Zn  Zn96  1  0.49911775  0.75126299  0.75138766  1
  Zn  Zn97  1  -0.10296300  0.70838067  0.15687982  1
  Zn  Zn98  1  0.12749744  0.49437718  0.62063166  1
  Zn  Zn99  1  0.64905743  0.62734605  0.45012267  1
  Zn  Zn100  1  0.86994406  0.38781472  0.48423451  1
  Zn  Zn101  1  0.24557642  0.37227511  0.12605776  1
  Zn  Zn102  1  0.23908898  0.63024850  0.87850838  1
  Zn  Zn103  1  0.49319829  0.00528539  0.49771390  1
  Zn  Zn104  1  -0.01139283  0.49835656  0.50140652  1
  Zn  Zn105  1  0.13306582  0.25108087  0.36967329  1
  Zn  Zn106  1  0.01063564  0.38627549  0.37766477  1
  Zn  Zn107  1  0.19333481  0.17947725  0.18587294  1
  Zn  Zn108  1  0.19071239  0.18967926  0.68509856  1
  Zn  Zn109  1  0.18965612  0.67869207  0.17857417  1
  Zn  Zn110  1  0.19060125  0.66379068  0.68513755  1
  Zn  Zn111  1  0.68862959  0.18912868  0.18720033  1
  Zn  Zn112  1  0.68530986  0.19073994  0.68808965  1
  Zn  Zn113  1  0.68460063  0.68440086  0.18224649  1
  Zn  Zn114  1  0.68562077  0.68780724  0.68350791  1
  Zn  Zn115  1  0.31555579  0.30599412  0.32073176  1
  Zn  Zn116  1  0.31457539  0.31430391  0.81456954  1
  Zn  Zn117  1  0.31864673  0.81146676  0.31452527  1
  Zn  Zn118  1  0.31623038  0.81012177  0.82421253  1
  Zn  Zn119  1  0.84075636  0.37517865  0.28931276  1
  Zn  Zn120  1  0.81110948  0.31314754  0.81268915  1
  Zn  Zn121  1  0.81671137  0.72171833  0.30963669  1
  Zn  Zn122  1  0.81342501  0.81204419  0.80979763  1
  Zn  Zn123  1  0.18286086  0.43287038  0.43710935  1
  Zn  Zn124  1  0.16761765  0.47178209  0.91487174  1
  Zn  Zn125  1  0.18885022  0.94217453  0.43616406  1
  Zn  Zn126  1  0.19384918  0.93135596  0.94092673  1
  Zn  Zn127  1  0.68107071  0.43784267  0.43944763  1
  Zn  Zn128  1  0.69260176  0.43931424  0.94075810  1
  Zn  Zn129  1  0.68551493  0.93288227  0.43869218  1
  Zn  Zn130  1  0.69108356  0.93768407  0.93896059  1
  Zn  Zn131  1  0.31443508  0.06581093  0.06152818  1
  Zn  Zn132  1  0.31358558  0.06740321  0.56644111  1
  Zn  Zn133  1  0.30806248  0.56233543  0.06301314  1
  Zn  Zn134  1  0.31519295  0.56365360  0.55992500  1
  Zn  Zn135  1  0.82010226  0.05420946  0.06219658  1
  Zn  Zn136  1  0.81274593  0.06396464  0.56227634  1
  Zn  Zn137  1  0.81113335  0.56630128  0.04848458  1
  Zn  Zn138  1  0.80861853  0.56584180  0.55421971  1
  Zn  Zn139  1  0.43742843  0.43631838  0.18564275  1
  Zn  Zn140  1  0.43923250  0.42852673  0.69043392  1
  Zn  Zn141  1  0.44354844  0.93509720  0.18678917  1
  Zn  Zn142  1  0.43893990  0.94117043  0.68803698  1
  Zn  Zn143  1  0.91433183  0.52066897  0.17787609  1
  Zn  Zn144  1  0.93990070  0.43473844  0.68327421  1
  Zn  Zn145  1  0.92775295  0.87390739  0.19872171  1
  Zn  Zn146  1  0.94076806  0.93732898  0.69092198  1
  Zn  Zn147  1  0.06685194  0.06141179  0.31087339  1
  Zn  Zn148  1  0.06555470  0.06095230  0.80957156  1
  Zn  Zn149  1  -0.06023887  0.55506773  0.34345380  1
  Zn  Zn150  1  0.06337530  0.56229857  0.80585505  1
  Zn  Zn151  1  0.56315126  0.06244626  0.31445931  1
  Zn  Zn152  1  0.56273522  0.06666369  0.81092532  1
  Zn  Zn153  1  0.58194441  0.55451135  0.31994737  1
  Zn  Zn154  1  0.56191144  0.55957854  0.81331662  1
  Zn  Zn155  1  0.43349553  0.19130029  0.44070129  1
  Zn  Zn156  1  0.43519469  0.18316653  0.93705586  1
  Zn  Zn157  1  0.46440389  0.67276880  0.42285267  1
  Zn  Zn158  1  0.43585960  0.68615157  0.93833987  1
  Zn  Zn159  1  0.91217394  0.22747981  0.40534439  1
  Zn  Zn160  1  0.93514633  0.18473252  0.93763831  1
  Zn  Zn161  1  0.92421723  0.68910344  0.45304054  1
  Zn  Zn162  1  0.93805779  0.69140121  0.93023288  1
  Zn  Zn163  1  0.06684106  0.31787910  0.06702604  1
  Zn  Zn164  1  0.05998086  0.31335170  0.55624507  1
  Zn  Zn165  1  0.06393967  0.81732062  0.06366917  1
  Zn  Zn166  1  0.05561890  0.80587100  0.55617029  1
  Zn  Zn167  1  0.56594752  0.31205134  0.06211539  1
  Zn  Zn168  1  0.56310766  0.31488028  0.56616214  1
  Zn  Zn169  1  0.56131603  0.81076305  0.06700460  1
  Zn  Zn170  1  0.56158556  0.81350475  0.55940981  1
  O  O171  1  0.11690453  0.11475953  0.12595567  1
  O  O172  1  0.12183733  0.11712153  0.62063380  1
  O  O173  1  0.13246559  0.60011759  0.11969890  1
  O  O174  1  0.11396805  0.62072423  0.61672358  1
  O  O175  1  0.61825511  0.11845665  0.12413834  1
  O  O176  1  0.61776235  0.12021018  0.62056785  1
  O  O177  1  0.61458639  0.63016000  0.10791253  1
  O  O178  1  0.61105986  0.61164469  0.63943967  1
  O  O179  1  0.38631137  0.38700416  0.36652057  1
  O  O180  1  0.37945398  0.37884236  0.88878538  1
  O  O181  1  0.37816721  0.88036251  0.38663651  1
  O  O182  1  0.38288391  0.88803733  0.87731828  1
  O  O183  1  0.89510979  0.34205460  0.37877781  1
  O  O184  1  0.87989351  0.38011476  0.88237558  1
  O  O185  1  0.89021140  0.88914016  0.37576488  1
  O  O186  1  0.88211267  0.88569953  0.87269062  1
  O  O187  1  0.24930280  0.01514857  0.36859907  1
  O  O188  1  0.25519586  0.00472271  0.86867042  1
  O  O189  1  0.25809947  0.50502204  0.36797823  1
  O  O190  1  0.26964675  0.49232697  0.86268624  1
  O  O191  1  0.75655296  0.00272009  0.37138468  1
  O  O192  1  0.76078692  0.00418108  0.87071124  1
  O  O193  1  0.68975591  0.53346142  0.37955676  1
  O  O194  1  0.76095953  0.50832089  0.87666883  1
  O  O195  1  0.24849335  0.49524747  0.13476095  1
  O  O196  1  0.25339290  0.50921153  0.63993107  1
  O  O197  1  0.23984258  1.00549188  0.12396797  1
  O  O198  1  0.24527742  1.00336733  0.63838747  1
  O  O199  1  0.75516652  0.48595711  0.11156122  1
  O  O200  1  0.73864294  0.50178342  0.62818427  1
  O  O201  1  0.73703646  1.00843732  0.13346837  1
  O  O202  1  0.73827262  1.00243415  0.63156431  1
  O  O203  1  -0.00019175  0.35552859  0.24815822  1
  O  O204  1  0.00600521  0.36679277  0.75505390  1
  O  O205  1  0.01728259  0.87957166  0.26729796  1
  O  O206  1  0.00393114  0.87494739  0.76268293  1
  O  O207  1  0.50450195  0.36669674  0.25402534  1
  O  O208  1  0.51191223  0.36205623  0.75401341  1
  O  O209  1  0.50603094  0.86857031  0.25661264  1
  O  O210  1  0.51109066  0.87780611  0.75809852  1
  O  O211  1  0.49613637  0.13163342  0.24720250  1
  O  O212  1  0.50307493  0.13974829  0.74484944  1
  O  O213  1  0.49063334  0.62716398  0.23916260  1
  O  O214  1  0.48885498  0.62415146  0.74317905  1
  O  O215  1  0.99607424  0.11922098  0.23531203  1
  O  O216  1  0.99549301  0.12926240  0.74347323  1
  O  O217  1  1.00675928  0.63569438  0.26653570  1
  O  O218  1  1.00772287  0.63098463  0.73476671  1
  O  O219  1  0.37358553  0.25482541  0.00390800  1
  O  O220  1  0.36712274  0.26245363  0.49403879  1
  O  O221  1  0.38134381  0.75224642  0.01590674  1
  O  O222  1  0.36074721  0.75835929  0.51344859  1
  O  O223  1  0.87072043  0.25327814  0.00869544  1
  O  O224  1  0.86288601  0.24426154  0.50985459  1
  O  O225  1  0.86504126  0.76315617  -0.01555583  1
  O  O226  1  0.85852992  0.75253141  0.52106327  1
  O  O227  1  0.11981618  0.23184621  0.50200226  1
  O  O228  1  0.13471921  0.25553290  0.99222904  1
  O  O229  1  0.14014698  0.74071481  0.50987043  1
  O  O230  1  0.13822580  0.74918600  1.01183197  1
  O  O231  1  0.63090250  0.24350400  0.50097678  1
  O  O232  1  0.64213868  0.24697162  1.00358743  1
  O  O233  1  0.63799710  0.74887296  0.50873284  1
  O  O234  1  0.62919458  0.74607083  0.99214993  1
  O  O235  1  0.49656530  0.24519502  0.13131214  1
  O  O236  1  0.50719318  0.24225604  0.63571287  1
  O  O237  1  0.49210529  0.73857396  0.13303469  1
  O  O238  1  0.49268715  0.74232451  0.62815940  1
  O  O239  1  0.99810321  0.24018517  0.12795552  1
  O  O240  1  0.99157672  0.24239108  0.62964288  1
  O  O241  1  0.95824079  0.79953613  0.09866651  1
  O  O242  1  0.98815496  0.74439810  0.62695297  1
  O  O243  1  0.01118363  0.22856648  0.34795849  1
  O  O244  1  0.00501179  0.25158553  0.86968005  1
  O  O245  1  0.00464828  0.75577105  0.38174398  1
  O  O246  1  0.00371198  0.76452270  0.87036357  1
  O  O247  1  0.50070651  0.25749048  0.36781254  1
  O  O248  1  0.50871760  0.24070992  0.86744479  1
  O  O249  1  0.47733224  0.76923739  0.36012725  1
  O  O250  1  0.50524738  0.75696446  0.87408668  1
  O  O251  1  0.24564042  0.11737295  0.48907424  1
  O  O252  1  0.25803770  0.13849998  0.99009125  1
  O  O253  1  0.24560048  0.63286894  0.49417731  1
  O  O254  1  0.26163171  0.64345538  0.99818869  1
  O  O255  1  0.74149027  0.12898930  0.49670638  1
  O  O256  1  0.75512660  0.12962943  0.99354786  1
  O  O257  1  0.74204827  0.64701418  0.51080616  1
  O  O258  1  0.74022713  0.63281255  0.98786830  1
  O  O259  1  0.26199196  0.35933278  -0.00041991  1
  O  O260  1  0.25114320  0.38094018  0.51350469  1
  O  O261  1  0.25705709  0.85681108  -0.00073011  1
  O  O262  1  0.25545216  0.86757773  0.49461005  1
  O  O263  1  0.76115974  0.36558878  0.00227699  1
  O  O264  1  0.74907233  0.36696845  0.50031893  1
  O  O265  1  0.76064150  0.86855779  0.00033752  1
  O  O266  1  0.74403219  0.86582347  0.50818486  1
  O  O267  1  0.13676787  0.49988562  0.23830141  1
  O  O268  1  0.13713406  0.48772137  0.74365035  1
  O  O269  1  0.13043231  0.99063583  0.24060036  1
  O  O270  1  0.13318447  1.00202325  0.73628269  1
  O  O271  1  0.61163938  0.48416137  0.23760864  1
  O  O272  1  0.62304231  0.48628997  0.74782803  1
  O  O273  1  0.62828431  0.99537911  0.24363794  1
  O  O274  1  0.62927884  0.99587981  0.74425532  1
  O  O275  1  0.37884051  0.01129465  0.24262062  1
  O  O276  1  0.36711191  0.00163605  0.75763274  1
  O  O277  1  0.37096491  0.50624069  0.25436335  1
  O  O278  1  0.37545978  0.50289315  0.75653559  1
  O  O279  1  0.86418321  0.00355718  0.26030269  1
  O  O280  1  0.86973645  0.00598912  0.75485000  1
  O  O281  1  0.86679822  0.48995346  0.27292941  1
  O  O282  1  0.87515065  0.49200058  0.76310914  1
  O  O283  1  0.12292729  0.36156354  0.37994008  1
  O  O284  1  0.11742581  0.37212988  0.86397448  1
  O  O285  1  0.11829262  0.87915073  0.36924739  1
  O  O286  1  0.11575667  0.88042287  0.87271686  1
  O  O287  1  0.61515950  0.37147159  0.36408716  1
  O  O288  1  0.63115537  0.37716931  0.86475005  1
  O  O289  1  0.61439471  0.87990722  0.36261785  1
  O  O290  1  0.62090385  0.87252897  0.86929130  1
  O  O291  1  0.38306466  0.13128837  0.13269165  1
  O  O292  1  0.39146253  0.11987223  0.63037233  1
  O  O293  1  0.38061293  0.63115437  0.13091955  1
  O  O294  1  0.37758205  0.63751154  0.63418686  1
  O  O295  1  0.88647843  0.12693743  0.12671528  1
  O  O296  1  0.87887188  0.13316602  0.63148118  1
  O  O297  1  0.88943006  0.61013552  0.11434074  1
  O  O298  1  0.88616665  0.63228655  0.62530712  1
  O  O299  1  0.25798678  0.24837280  0.11710772  1
  O  O300  1  0.26008020  0.24908129  0.62207829  1
  O  O301  1  0.26608679  0.74411846  0.11855252  1
  O  O302  1  0.25248322  0.75865121  0.62902799  1
  O  O303  1  0.76126902  0.24898132  0.11729727  1
  O  O304  1  0.75533031  0.24919181  0.61489103  1
  O  O305  1  0.74694641  0.75157318  0.10466721  1
  O  O306  1  0.76043602  0.75686768  0.63369621  1
  O  O307  1  0.24866495  0.22679017  0.36564144  1
  O  O308  1  0.24583907  0.24206369  0.88003802  1
  O  O309  1  0.26068538  0.74019526  0.38503133  1
  O  O310  1  0.24963805  0.74700479  0.89057703  1
  O  O311  1  0.74739682  0.23976959  0.39013699  1
  O  O312  1  0.76256121  0.23772418  0.88627365  1
  O  O313  1  0.74756251  0.76178631  0.39236356  1
  O  O314  1  0.74335099  0.74521481  0.87959274  1
  O  O315  1  -0.00259947  0.11294447  0.00385503  1
  O  O316  1  0.01206312  0.10970232  0.50801651  1
  O  O317  1  0.00316686  0.61766899  -0.00822921  1
  O  O318  1  0.00712615  0.63117957  0.51450380  1
  O  O319  1  0.50301430  0.11760370  0.00607494  1
  O  O320  1  0.50484946  0.12682296  0.50815102  1
  O  O321  1  0.50530798  0.61658770  0.00403811  1
  O  O322  1  0.49009648  0.61576547  0.51910368  1
  O  O323  1  0.50592658  0.38028015  0.48901446  1
  O  O324  1  0.49669842  0.38596397  1.00670389  1
  O  O325  1  0.49046976  0.87550432  0.49098608  1
  O  O326  1  0.50003900  0.88339130  0.99590113  1
  O  O327  1  0.98891512  0.37817952  0.50305855  1
  O  O328  1  0.98854848  0.36732757  0.99420288  1
  O  O329  1  1.00961277  0.88826720  0.49119581  1
  O  O330  1  0.99902622  0.88604102  0.98259108  1
  O  O331  1  0.49489174  0.49070010  0.38432439  1
  O  O332  1  0.48885873  0.50390851  0.88547540  1
  O  O333  1  0.49941642  0.98992734  0.37695174  1
  O  O334  1  0.49323893  0.99997666  0.87959602  1
  O  O335  1  1.02054115  0.50072458  0.39049780  1
  O  O336  1  0.99359838  0.49377138  0.88477797  1
  O  O337  1  0.99639774  0.99713425  0.38346898  1
  O  O338  1  0.99722136  0.99522372  0.87657733  1
  O  O339  1  0.01356686  0.00651333  0.11000863  1
  O  O340  1  0.00783883  0.00255800  0.62083620  1
  O  O341  1  0.00683926  0.49607640  0.11440602  1
  O  O342  1  0.00031310  0.51204357  0.62274877  1
  O  O343  1  0.51100611  0.00452332  0.12085243  1
  O  O344  1  0.51180761  0.01042269  0.62744159  1
  O  O345  1  0.49111879  0.51307950  0.11454879  1
  O  O346  1  0.50034082  0.50348972  0.62179263  1
  O  O347  1  0.26193195  0.38410426  0.25081517  1
  O  O348  1  0.24276524  0.37928190  0.75329740  1
  O  O349  1  0.23894906  0.87301070  0.25806357  1
  O  O350  1  0.25065683  0.87967408  0.75177501  1
  O  O351  1  0.74161558  0.37103127  0.23644603  1
  O  O352  1  0.73825908  0.37586388  0.74772018  1
  O  O353  1  0.73854124  0.89143974  0.24784195  1
  O  O354  1  0.73766164  0.88390133  0.75106998  1
  O  O355  1  0.26356073  0.11889651  0.25545236  1
  O  O356  1  0.25285522  0.11761600  0.75839975  1
  O  O357  1  0.26067706  0.61840336  0.25456654  1
  O  O358  1  0.26300020  0.61536113  0.75723398  1
  O  O359  1  0.75330610  0.11615873  0.25547431  1
  O  O360  1  0.75461549  0.12221173  0.75727849  1
  O  O361  1  0.76379092  0.64193977  0.24266966  1
  O  O362  1  0.74101393  0.62222581  0.76429082  1
  O  O363  1  0.36872353  0.12417509  0.36906695  1
  O  O364  1  0.36617782  0.11407610  0.87195623  1
  O  O365  1  0.37558658  0.61242583  0.36522861  1
  O  O366  1  0.37515942  0.61670024  0.86763246  1
  O  O367  1  0.86676029  0.12204514  0.36632617  1
  O  O368  1  0.86986962  0.11243658  0.86986502  1
  O  O369  1  0.86643719  0.63540135  0.37258898  1
  O  O370  1  0.86605568  0.61542655  0.87975129  1
  O  O371  1  0.13139973  0.39122275  0.12289988  1
  O  O372  1  0.11804323  0.37305215  0.63786604  1
  O  O373  1  0.12253945  0.88371189  0.13663779  1
  O  O374  1  0.12715943  0.87915265  0.62350850  1
  O  O375  1  0.63830840  0.36653924  0.13148329  1
  O  O376  1  0.62422684  0.38765471  0.63395584  1
  O  O377  1  0.62570763  0.88372716  0.13530033  1
  O  O378  1  0.62123170  0.88520166  0.63437590  1
  O  O379  1  0.11790621  0.24654033  0.23923821  1
  O  O380  1  0.12132324  0.25333803  0.75722792  1
  O  O381  1  0.12279616  0.74909358  0.24811942  1
  O  O382  1  0.13593861  0.75877714  0.73555812  1
  O  O383  1  0.61295530  0.25303657  0.25010194  1
  O  O384  1  0.61957922  0.26364465  0.74945628  1
  O  O385  1  0.61393287  0.75983559  0.24153906  1
  O  O386  1  0.62228685  0.76017369  0.75559801  1
  O  O387  1  0.38752048  0.24202114  0.24603916  1
  O  O388  1  0.39440517  0.25131142  0.76090829  1
  O  O389  1  0.38045950  0.73983994  0.24011271  1
  O  O390  1  0.37539571  0.74253043  0.74744132  1
  O  O391  1  0.88561982  0.24035051  0.23369159  1
  O  O392  1  0.87945695  0.24363965  0.74425382  1
  O  O393  1  0.87565466  0.78020525  0.23641990  1
  O  O394  1  0.87893999  0.75132201  0.73798518  1
  O  O395  1  0.38563354  0.50364029  0.49022111  1
  O  O396  1  0.37927539  0.49160286  0.99451827  1
  O  O397  1  0.37601412  0.98488149  0.51421451  1
  O  O398  1  0.38142896  0.99878484  0.99330237  1
  O  O399  1  0.87139720  0.50188678  0.49090459  1
  O  O400  1  0.88836734  0.48986880  0.99206199  1
  O  O401  1  0.88618144  1.00723611  0.49261336  1
  O  O402  1  0.88881285  0.99107695  0.98964557  1
  O  O403  1  0.12087708  -0.00641767  0.00522992  1
  O  O404  1  0.12367710  0.00587679  0.51272444  1
  O  O405  1  0.10343829  0.48879530  0.00902098  1
  O  O406  1  0.13486233  0.51796935  0.50405582  1
  O  O407  1  0.62205851  0.00114590  0.00928854  1
  O  O408  1  0.62100741  0.00671595  0.50864391  1
  O  O409  1  0.61617007  0.50854937  -0.00662855  1
  O  O410  1  0.60794884  0.50275299  0.51311773  1
  O  O411  1  0.37472132  0.36719448  0.11400922  1
  O  O412  1  0.37628256  0.37012234  0.62059089  1
  O  O413  1  0.38110525  0.85876453  0.12824071  1
  O  O414  1  0.38328647  0.86304803  0.62298043  1
  O  O415  1  0.86739022  0.36333598  0.11632687  1
  O  O416  1  0.86956577  0.36032588  0.62894421  1
  O  O417  1  0.85953390  0.91125568  0.11339932  1
  O  O418  1  0.87425608  0.86666913  0.62982347  1
  O  O419  1  0.13670199  0.12307086  0.38313454  1
  O  O420  1  0.13712017  0.12895102  0.87185514  1
  O  O421  1  0.12891869  0.64049018  0.38071678  1
  O  O422  1  0.13849735  0.58141508  0.88264062  1
  O  O423  1  0.63194764  0.12557389  0.38250472  1
  O  O424  1  0.64346082  0.11584615  0.87762070  1
  O  O425  1  0.56901146  0.65117085  0.37354275  1
  O  O426  1  0.62750030  0.63074301  0.88275365  1
