# generated using pymatgen
data_V85Zn86O256
_symmetry_space_group_name_H-M   'P 1'
_cell_length_a   16.94524504
_cell_length_b   16.96264824
_cell_length_c   16.95269502
_cell_angle_alpha   89.98027787
_cell_angle_beta   89.91992613
_cell_angle_gamma   89.99160813
_symmetry_Int_Tables_number   1
_chemical_formula_structural   V85Zn86O256
_chemical_formula_sum   'V85 Zn86 O256'
_cell_volume   4872.81365901
_cell_formula_units_Z   1
loop_
 _symmetry_equiv_pos_site_id
 _symmetry_equiv_pos_as_xyz
  1  'x, y, z'
loop_
 _atom_site_type_symbol
 _atom_site_label
 _atom_site_symmetry_multiplicity
 _atom_site_fract_x
 _atom_site_fract_y
 _atom_site_fract_z
 _atom_site_occupancy
  V  V0  1  0.89449190  0.38580909  0.00291760  1
  V  V1  1  0.87881262  0.88242410  -0.00519499  1
  V  V2  1  0.75341886  0.48484923  0.75838138  1
  V  V3  1  0.87524255  0.50166836  0.37861104  1
  V  V4  1  0.25206338  0.75002617  -0.00419905  1
  V  V5  1  0.49898368  0.25088657  0.24645339  1
  V  V6  1  0.48210036  0.88531960  0.37813483  1
  V  V7  1  0.23560563  0.50069291  0.74366085  1
  V  V8  1  0.12623402  0.12410859  -0.00140766  1
  V  V9  1  0.24876819  0.62587345  0.87542954  1
  V  V10  1  0.38181364  0.25111167  0.62897996  1
  V  V11  1  0.73929139  0.62994000  0.38118497  1
  V  V12  1  0.00152204  0.37656948  0.37635686  1
  V  V13  1  0.50346991  0.74995610  0.26074137  1
  V  V14  1  0.24923733  0.87478389  0.11635625  1
  V  V15  1  0.63122678  0.12214479  -0.00819134  1
  V  V16  1  0.38396710  0.62444841  0.74561998  1
  V  V17  1  0.89229598  0.50789135  0.87650137  1
  V  V18  1  0.12336280  0.87228286  0.24519383  1
  V  V19  1  0.87816052  0.62721380  0.25176073  1
  V  V20  1  0.24951858  0.12688341  0.87410635  1
  V  V21  1  0.62493837  0.87323414  0.26236536  1
  V  V22  1  0.61941721  0.74878055  0.86576277  1
  V  V23  1  0.86903737  -0.00220208  0.37799881  1
  V  V24  1  0.50143719  0.25796590  0.75284970  1
  V  V25  1  0.74707789  0.75232995  -0.00138300  1
  V  V26  1  0.49908566  0.50014913  -0.00175003  1
  V  V27  1  0.12488947  0.75307838  0.86975853  1
  V  V28  1  0.38227996  0.75632808  0.62485404  1
  V  V29  1  0.00260577  0.74323331  0.74178544  1
  V  V30  1  0.00351052  0.88467237  0.86227909  1
  V  V31  1  0.50021036  0.62800126  0.12489359  1
  V  V32  1  0.73938135  0.74636660  0.50178877  1
  V  V33  1  0.62099525  0.01124784  0.62538839  1
  V  V34  1  0.75277751  0.62708809  0.86473172  1
  V  V35  1  0.25117350  0.49731789  0.24634911  1
  V  V36  1  0.62757477  0.86996002  0.73746013  1
  V  V37  1  0.25093339  0.75622703  0.50163298  1
  V  V38  1  0.13186178  0.24366067  0.37401228  1
  V  V39  1  0.63423077  0.50178037  0.62899419  1
  V  V40  1  0.24737101  0.25617264  0.00194036  1
  V  V41  1  0.24509767  0.62580843  0.37537332  1
  V  V42  1  0.31159478  0.06526190  0.41762750  1
  V  V43  1  0.74990001  0.50171546  0.24984043  1
  V  V44  1  0.86624965  0.36587446  0.50120835  1
  V  V45  1  0.63627715  0.25457447  0.87005239  1
  V  V46  1  0.23585656  0.38118150  0.62243883  1
  V  V47  1  0.25457117  -0.00022559  0.24793270  1
  V  V48  1  0.37395439  0.62574584  0.24959633  1
  V  V49  1  0.50938235  0.51035787  0.50173718  1
  V  V50  1  0.37192156  0.12441305  0.24848648  1
  V  V51  1  0.62416847  0.50099938  0.12268370  1
  V  V52  1  0.50345870  -0.00769340  0.00083675  1
  V  V53  1  0.49653230  0.86991694  0.86824579  1
  V  V54  1  0.11922176  0.62213694  0.51537096  1
  V  V55  1  0.00016312  0.12016470  0.12505976  1
  V  V56  1  0.38279831  0.12576921  0.75120276  1
  V  V57  1  0.62461839  0.37519114  0.24657982  1
  V  V58  1  0.37373310  0.49982219  0.87199297  1
  V  V59  1  0.87470358  0.25145469  0.12507966  1
  V  V60  1  0.12283751  0.50916993  0.11969564  1
  V  V61  1  0.50577610  0.11882519  0.12208595  1
  V  V62  1  0.00172189  0.24702082  0.25207964  1
  V  V63  1  -0.00257807  0.87385106  0.37491122  1
  V  V64  1  0.50070980  0.37802267  0.37495966  1
  V  V65  1  0.74074399  0.87865947  0.12376508  1
  V  V66  1  0.62492916  0.62660056  -0.00174994  1
  V  V67  1  0.24649183  -0.00863268  0.75380955  1
  V  V68  1  0.13058347  0.37447121  0.24402040  1
  V  V69  1  0.74958779  0.37512021  0.11841669  1
  V  V70  1  0.37248602  0.25223891  0.12300722  1
  V  V71  1  0.87331940  0.12211698  0.25012886  1
  V  V72  1  0.37502885  -0.00555652  0.88201658  1
  V  V73  1  0.86851072  0.12210983  0.77345476  1
  V  V74  1  0.12364577  -0.00698018  0.62802812  1
  V  V75  1  0.25394710  0.24878382  0.49785480  1
  V  V76  1  0.62670895  0.24813205  0.37536370  1
  V  V77  1  0.37425854  0.37632446  0.00192587  1
  V  V78  1  0.74107425  0.00129184  0.24766969  1
  V  V79  1  0.12386010  0.11943130  0.49898767  1
  V  V80  1  0.86868313  0.87452563  0.51238398  1
  V  V81  1  0.87548573  0.75250481  0.12573626  1
  V  V82  1  0.86704112  0.74484790  0.63526980  1
  V  V83  1  0.37729753  0.75594805  0.12038922  1
  V  V84  1  0.37773674  0.38049737  0.50224223  1
  Zn  Zn85  1  0.50842144  0.62864803  0.62393036  1
  Zn  Zn86  1  0.75660671  0.24522232  -0.00639178  1
  Zn  Zn87  1  0.24960813  0.87267078  0.62647935  1
  Zn  Zn88  1  0.37587570  0.50288888  0.37698914  1
  Zn  Zn89  1  0.12136128  0.74876168  0.37745625  1
  Zn  Zn90  1  -0.00044266  0.00065611  -0.00686364  1
  Zn  Zn91  1  0.00065334  0.74692561  0.25195130  1
  Zn  Zn92  1  -0.00840037  0.61012005  0.09791618  1
  Zn  Zn93  1  0.86867634  0.24040246  0.63389647  1
  Zn  Zn94  1  0.00912055  0.49751369  0.51357013  1
  Zn  Zn95  1  0.74451461  0.24248670  0.50588199  1
  Zn  Zn96  1  0.61689882  0.12681658  0.50618301  1
  Zn  Zn97  1  0.75465485  -0.00225330  0.75379952  1
  Zn  Zn98  1  0.50279113  0.37594093  0.87220203  1
  Zn  Zn99  1  -0.01448690  0.12073147  0.62565860  1
  Zn  Zn100  1  0.10016335  0.28750003  0.86201116  1
  Zn  Zn101  1  0.74340451  0.36632206  0.64046035  1
  Zn  Zn102  1  0.01897129  0.24792374  0.73241066  1
  Zn  Zn103  1  -0.00401066  -0.00160811  0.50252845  1
  Zn  Zn104  1  0.74651982  0.12455816  0.37769394  1
  Zn  Zn105  1  0.12265908  -0.00472734  0.12308853  1
  Zn  Zn106  1  0.48717768  0.00279818  0.50684449  1
  Zn  Zn107  1  0.18914854  0.18411642  0.18578190  1
  Zn  Zn108  1  0.19260713  0.18638099  0.68494422  1
  Zn  Zn109  1  0.18697061  0.68850034  0.18683638  1
  Zn  Zn110  1  0.18969782  0.68908666  0.68937410  1
  Zn  Zn111  1  0.68650595  0.18717489  0.18506039  1
  Zn  Zn112  1  0.69792937  0.18430830  0.69609956  1
  Zn  Zn113  1  0.68823427  0.68958268  0.19065172  1
  Zn  Zn114  1  0.68832185  0.68706840  0.68411347  1
  Zn  Zn115  1  0.31381068  0.31397301  0.31338200  1
  Zn  Zn116  1  0.27980557  0.32676549  0.82387466  1
  Zn  Zn117  1  0.30888731  0.80915206  0.30850269  1
  Zn  Zn118  1  0.31889232  0.81135137  0.80832441  1
  Zn  Zn119  1  0.81149692  0.31288722  0.31134545  1
  Zn  Zn120  1  0.90453255  0.31620117  0.81901175  1
  Zn  Zn121  1  0.80886984  0.81243886  0.31638294  1
  Zn  Zn122  1  0.80475656  0.83734491  0.81851779  1
  Zn  Zn123  1  0.18701133  0.44010940  0.43606231  1
  Zn  Zn124  1  0.18715853  0.44100553  0.94162613  1
  Zn  Zn125  1  0.18188172  0.93123412  0.43783879  1
  Zn  Zn126  1  0.18264104  0.93718051  0.93846902  1
  Zn  Zn127  1  0.68655751  0.43972929  0.43772767  1
  Zn  Zn128  1  0.68925437  0.43543520  0.93455009  1
  Zn  Zn129  1  0.68528924  0.93581033  0.44321583  1
  Zn  Zn130  1  0.68554024  0.93909249  0.93075963  1
  Zn  Zn131  1  0.31497535  0.06211543  0.06250808  1
  Zn  Zn132  1  0.31136328  0.06444815  0.58003664  1
  Zn  Zn133  1  0.30916089  0.56494150  0.06285390  1
  Zn  Zn134  1  0.31157825  0.56533347  0.56196476  1
  Zn  Zn135  1  0.81141402  0.06017029  0.06274500  1
  Zn  Zn136  1  0.79750575  0.06097129  0.56740017  1
  Zn  Zn137  1  0.81032919  0.56538676  0.05970044  1
  Zn  Zn138  1  0.84902755  0.54088422  0.59103931  1
  Zn  Zn139  1  0.43583877  0.43793846  0.18503098  1
  Zn  Zn140  1  0.43726110  0.44052233  0.68500514  1
  Zn  Zn141  1  0.43738757  0.93673773  0.18833406  1
  Zn  Zn142  1  0.43957896  0.93740336  0.69077788  1
  Zn  Zn143  1  0.94072318  0.43879402  0.19054118  1
  Zn  Zn144  1  0.96115293  0.43869987  0.68951393  1
  Zn  Zn145  1  0.93283952  0.93569623  0.18745579  1
  Zn  Zn146  1  0.93621904  0.94446693  0.68973752  1
  Zn  Zn147  1  0.06427841  0.05741629  0.31395772  1
  Zn  Zn148  1  0.06377375  0.07721728  0.80663977  1
  Zn  Zn149  1  0.06201203  0.56133831  0.31241699  1
  Zn  Zn150  1  0.06338473  0.57210416  0.81088732  1
  Zn  Zn151  1  0.55881367  0.06212653  0.31252576  1
  Zn  Zn152  1  0.56406314  0.06148275  0.81135018  1
  Zn  Zn153  1  0.56198384  0.56214962  0.31250290  1
  Zn  Zn154  1  0.56674548  0.55824086  0.80935073  1
  Zn  Zn155  1  0.44693902  0.19197559  0.44227276  1
  Zn  Zn156  1  0.44050455  0.18552988  0.93495821  1
  Zn  Zn157  1  0.43320127  0.68951429  0.43823530  1
  Zn  Zn158  1  0.43466385  0.68737217  0.93680034  1
  Zn  Zn159  1  0.94029009  0.18345938  0.43772872  1
  Zn  Zn160  1  0.93931798  0.18929505  0.94039451  1
  Zn  Zn161  1  0.93373658  0.68949495  0.44317952  1
  Zn  Zn162  1  0.93593127  0.69455876  0.93196926  1
  Zn  Zn163  1  0.06667484  0.30952774  0.06678897  1
  Zn  Zn164  1  0.05708777  0.30513876  0.55802368  1
  Zn  Zn165  1  0.04772494  0.78165235  0.04334865  1
  Zn  Zn166  1  0.06030241  0.81211742  0.56158500  1
  Zn  Zn167  1  0.56201588  0.30918979  0.05590654  1
  Zn  Zn168  1  0.56518542  0.31887924  0.56560743  1
  Zn  Zn169  1  0.56380743  0.81459442  0.06260690  1
  Zn  Zn170  1  0.55536211  0.81510225  0.55273443  1
  O  O171  1  0.11741594  0.12370051  0.11675769  1
  O  O172  1  0.13611553  0.11517045  0.60789303  1
  O  O173  1  0.12073464  0.61195605  0.13374477  1
  O  O174  1  0.12574947  0.62667616  0.61392935  1
  O  O175  1  0.61030254  0.13208939  0.11625967  1
  O  O176  1  0.62239341  0.11315543  0.63263617  1
  O  O177  1  0.61908619  0.62229416  0.12044617  1
  O  O178  1  0.62399315  0.61043448  0.62995932  1
  O  O179  1  0.38063186  0.37672077  0.38659415  1
  O  O180  1  0.37008741  0.38186050  0.88810428  1
  O  O181  1  0.38429307  0.87419640  0.36513968  1
  O  O182  1  0.38222626  0.88260927  0.87292246  1
  O  O183  1  0.88317280  0.38114997  0.37462720  1
  O  O184  1  0.87304739  0.39534360  0.89632146  1
  O  O185  1  0.87911551  0.88414468  0.37768098  1
  O  O186  1  0.89687626  0.86211153  0.88512639  1
  O  O187  1  0.24823671  -0.00271649  0.36660852  1
  O  O188  1  0.25604936  0.00618032  0.87412030  1
  O  O189  1  0.25164930  0.50732230  0.36388023  1
  O  O190  1  0.25530309  0.51135257  0.86771807  1
  O  O191  1  0.75409020  -0.00113082  0.36736012  1
  O  O192  1  0.76382929  -0.05673812  0.85512888  1
  O  O193  1  0.75610207  0.50621936  0.36788074  1
  O  O194  1  0.75122355  0.51072234  0.87300758  1
  O  O195  1  0.24145981  0.50689449  0.13888736  1
  O  O196  1  0.25041046  0.48952428  0.62722500  1
  O  O197  1  0.25046381  0.99058647  0.12989744  1
  O  O198  1  0.24548703  0.99335584  0.63722969  1
  O  O199  1  0.74394795  0.49582377  0.12989717  1
  O  O200  1  0.75260537  0.49785542  0.64103346  1
  O  O201  1  0.75303714  0.99033638  0.13569870  1
  O  O202  1  0.72651422  0.99288595  0.63296823  1
  O  O203  1  0.00680602  0.36774526  0.25960413  1
  O  O204  1  -0.01039096  0.35978800  0.75404313  1
  O  O205  1  0.00761013  0.87790509  0.25620697  1
  O  O206  1  -0.00205271  0.87135378  0.75997985  1
  O  O207  1  0.50386190  0.37165728  0.25345783  1
  O  O208  1  0.49213050  0.36204055  0.75178642  1
  O  O209  1  0.50590374  0.86863164  0.25498597  1
  O  O210  1  0.50353145  0.87246600  0.76367274  1
  O  O211  1  0.49319820  0.12937038  0.24016662  1
  O  O212  1  0.48762971  0.13392005  0.75814855  1
  O  O213  1  0.49552838  0.63296108  0.24648446  1
  O  O214  1  0.48708005  0.61867961  0.74958619  1
  O  O215  1  0.99616282  0.12772686  0.24532356  1
  O  O216  1  0.98404321  0.12845753  0.74751301  1
  O  O217  1  0.98542121  0.62660113  0.25310518  1
  O  O218  1  0.99435565  0.64526309  0.75290805  1
  O  O219  1  0.37302984  0.25604565  0.00575676  1
  O  O220  1  0.37198702  0.25855605  0.50611258  1
  O  O221  1  0.36543406  0.74907468  0.00772339  1
  O  O222  1  0.36428476  0.74143912  0.51481262  1
  O  O223  1  0.87377589  0.26618563  0.00861418  1
  O  O224  1  0.87118611  0.26103578  0.48630549  1
  O  O225  1  0.86422349  0.76215320  0.00814760  1
  O  O226  1  0.87066845  0.75768361  0.51287205  1
  O  O227  1  0.13341317  0.24007631  0.49209795  1
  O  O228  1  0.13499060  0.24361573  1.00146379  1
  O  O229  1  0.13130245  0.74000005  0.49893268  1
  O  O230  1  0.14597974  0.75830596  0.98636721  1
  O  O231  1  0.62142937  0.25360497  0.48752581  1
  O  O232  1  0.62453526  0.24004260  0.98835653  1
  O  O233  1  0.64014439  0.75338104  0.50555806  1
  O  O234  1  0.62906531  0.74621341  0.99193426  1
  O  O235  1  0.49055842  0.24397295  0.12688504  1
  O  O236  1  0.48892093  0.25748221  0.63167691  1
  O  O237  1  0.49311521  0.74791606  0.13042481  1
  O  O238  1  0.48578369  0.74573165  0.61576159  1
  O  O239  1  0.99636459  0.23913110  0.13238046  1
  O  O240  1  0.99046872  0.24021186  0.61906027  1
  O  O241  1  0.97928959  0.76488670  0.13738586  1
  O  O242  1  0.98995563  0.75884258  0.63665940  1
  O  O243  1  0.01186794  0.25510696  0.37061545  1
  O  O244  1  -0.00654771  0.26074904  0.87572875  1
  O  O245  1  -0.00460292  0.76253432  0.37174918  1
  O  O246  1  0.00925537  0.75846582  0.86123932  1
  O  O247  1  0.50537279  0.26051139  0.36498217  1
  O  O248  1  0.50412031  0.25365699  0.86743866  1
  O  O249  1  0.49355527  0.75825830  0.36465665  1
  O  O250  1  0.50818210  0.75750693  0.88385234  1
  O  O251  1  0.25070449  0.12592593  0.49011422  1
  O  O252  1  0.24400684  0.13054965  0.99760408  1
  O  O253  1  0.23969790  0.63060971  0.49275141  1
  O  O254  1  0.25690599  0.63373672  0.98454460  1
  O  O255  1  0.73430355  0.12572010  0.49364547  1
  O  O256  1  0.73557886  0.12615159  1.00877372  1
  O  O257  1  0.75597155  0.64059227  0.49218459  1
  O  O258  1  0.74150473  0.63315757  0.99411549  1
  O  O259  1  0.25825166  0.36154271  0.00716048  1
  O  O260  1  0.25776718  0.37363856  0.50596155  1
  O  O261  1  0.25063298  0.87232357  0.01105942  1
  O  O262  1  0.24706026  0.85940891  0.49907385  1
  O  O263  1  0.75422187  0.37657232  0.01257272  1
  O  O264  1  0.76192249  0.36998463  0.49057009  1
  O  O265  1  0.75189688  0.87055975  0.00911355  1
  O  O266  1  0.76000457  0.86014281  0.49018228  1
  O  O267  1  0.13244383  0.49219424  0.24636782  1
  O  O268  1  0.13612204  0.50743657  0.75083515  1
  O  O269  1  0.13576957  0.98984418  0.24755769  1
  O  O270  1  0.13595357  1.01167129  0.74022581  1
  O  O271  1  0.62855254  0.49425804  0.24154903  1
  O  O272  1  0.64125982  0.49999812  0.74570822  1
  O  O273  1  0.63447311  0.99286735  0.25269480  1
  O  O274  1  0.62121604  0.98483659  0.74425953  1
  O  O275  1  0.36250916  0.00425524  0.24648756  1
  O  O276  1  0.36992984  0.00672775  0.75939757  1
  O  O277  1  0.36838428  0.50653755  0.24993128  1
  O  O278  1  0.36720494  0.50653772  0.75355503  1
  O  O279  1  0.86307644  0.00214807  0.25731911  1
  O  O280  1  0.87344541  0.01543907  0.74875259  1
  O  O281  1  0.87070041  0.50559953  0.25909231  1
  O  O282  1  0.87080401  0.50238612  0.77436058  1
  O  O283  1  0.11841301  0.36896147  0.36843868  1
  O  O284  1  0.17618776  0.36549433  0.86483239  1
  O  O285  1  0.11407353  0.87175530  0.36649655  1
  O  O286  1  0.11415999  0.86572548  0.87670528  1
  O  O287  1  0.62074326  0.36932523  0.36596110  1
  O  O288  1  0.62105313  0.35920768  0.88189726  1
  O  O289  1  0.61555286  0.87717935  0.36490201  1
  O  O290  1  0.61473368  0.86466101  0.86349824  1
  O  O291  1  0.38540150  0.13225877  0.12758575  1
  O  O292  1  0.37086074  0.13897459  0.63828225  1
  O  O293  1  0.38040179  0.63508709  0.12861379  1
  O  O294  1  0.37671962  0.63155588  0.63182609  1
  O  O295  1  0.88174244  0.12980475  0.12923273  1
  O  O296  1  0.86931836  0.12382241  0.62501147  1
  O  O297  1  0.87584906  0.63254899  0.13185131  1
  O  O298  1  0.87024712  0.64742621  0.63116419  1
  O  O299  1  0.26448538  0.24182133  0.11722014  1
  O  O300  1  0.26023500  0.26078756  0.61780899  1
  O  O301  1  0.25602324  0.75359078  0.11611683  1
  O  O302  1  0.25724530  0.75187754  0.61865819  1
  O  O303  1  0.75706821  0.25938244  0.12419255  1
  O  O304  1  0.74898164  0.25393914  0.62221126  1
  O  O305  1  0.75648855  0.75628712  0.12101364  1
  O  O306  1  0.75803898  0.75073278  0.61511284  1
  O  O307  1  0.23873549  0.25643160  0.38070851  1
  O  O308  1  0.26445991  0.23144446  0.88873368  1
  O  O309  1  0.24884122  0.74232754  0.38219662  1
  O  O310  1  0.24847848  0.74727287  0.87646771  1
  O  O311  1  0.73760471  0.24851130  0.37023629  1
  O  O312  1  0.73489325  0.25285365  0.87697947  1
  O  O313  1  0.75486698  0.74123724  0.38753980  1
  O  O314  1  0.74086487  0.74635061  0.87945282  1
  O  O315  1  0.00744101  0.12315451  0.00879683  1
  O  O316  1  0.01178667  0.11806614  0.49878475  1
  O  O317  1  0.01097064  0.67431782  0.01063290  1
  O  O318  1  0.01761596  0.62646189  0.49146111  1
  O  O319  1  0.50679841  0.11457174  0.00441020  1
  O  O320  1  0.50571738  0.11464194  0.49137828  1
  O  O321  1  0.50462555  0.61982244  0.00472008  1
  O  O322  1  0.49583172  0.61259534  0.49729089  1
  O  O323  1  0.49343311  0.38458101  0.49471926  1
  O  O324  1  0.49165200  0.38298140  0.99860721  1
  O  O325  1  0.49385070  0.88043097  0.48228212  1
  O  O326  1  0.50746207  0.88677638  0.99220564  1
  O  O327  1  0.99115331  0.37606209  0.48825747  1
  O  O328  1  0.99266155  0.37747904  1.00983379  1
  O  O329  1  0.98932035  0.87620910  0.49096532  1
  O  O330  1  0.99355958  0.87541025  0.99300289  1
  O  O331  1  0.49970042  0.49392937  0.38127003  1
  O  O332  1  0.49307581  0.49783493  0.88031733  1
  O  O333  1  0.49443790  0.98715289  0.36892653  1
  O  O334  1  0.49298288  0.99158488  0.88014811  1
  O  O335  1  0.99264653  0.49113513  0.37564671  1
  O  O336  1  0.99138173  0.51386763  0.87935340  1
  O  O337  1  0.99028704  0.98897467  0.37549131  1
  O  O338  1  1.00996251  0.98674801  0.87245729  1
  O  O339  1  -0.00103089  0.01196449  0.12780089  1
  O  O340  1  0.01039662  0.00319979  0.62211616  1
  O  O341  1  0.01537543  0.50212969  0.13124887  1
  O  O342  1  -0.04041833  0.51326283  0.61341277  1
  O  O343  1  0.49416841  0.00680904  0.11494049  1
  O  O344  1  0.51148614  -0.00603860  0.62470815  1
  O  O345  1  0.50494054  0.50785258  0.11946349  1
  O  O346  1  0.50965211  0.50240598  0.61743673  1
  O  O347  1  0.24296583  0.38474234  0.25497883  1
  O  O348  1  0.25806460  0.38633768  0.72748094  1
  O  O349  1  0.24351398  0.87876218  0.24025086  1
  O  O350  1  0.25129176  0.88861940  0.75465614  1
  O  O351  1  0.74664609  0.38185294  0.23793551  1
  O  O352  1  0.76112536  0.38615944  0.75786531  1
  O  O353  1  0.74156397  0.87969121  0.24656531  1
  O  O354  1  0.72738531  0.85934858  0.73355189  1
  O  O355  1  0.25680783  0.11304891  0.24517435  1
  O  O356  1  0.26240468  0.11629687  0.76023054  1
  O  O357  1  0.25512007  0.62114524  0.25616404  1
  O  O358  1  0.25835027  0.61870035  0.75541564  1
  O  O359  1  0.75468198  0.11656267  0.24919757  1
  O  O360  1  0.76033061  0.11505198  0.76037448  1
  O  O361  1  0.75997298  0.62058933  0.25557698  1
  O  O362  1  0.75051729  0.62481905  0.76330519  1
  O  O363  1  0.37302566  0.13394109  0.36558716  1
  O  O364  1  0.36969759  0.11471205  0.87170355  1
  O  O365  1  0.36254183  0.62440076  0.36914414  1
  O  O366  1  0.36893648  0.62154865  0.86584761  1
  O  O367  1  0.87479141  0.11144052  0.36933785  1
  O  O368  1  0.87571254  0.12080551  0.87367053  1
  O  O369  1  0.86921137  0.61775865  0.37068749  1
  O  O370  1  0.86502213  0.61512865  0.88973773  1
  O  O371  1  0.12192252  0.38211860  0.13988298  1
  O  O372  1  0.13744670  0.37047558  0.61290005  1
  O  O373  1  0.13320917  0.87358299  0.13157010  1
  O  O374  1  0.12794796  0.88898223  0.61797144  1
  O  O375  1  0.63127830  0.37815252  0.12619191  1
  O  O376  1  0.63069531  0.39272810  0.62215396  1
  O  O377  1  0.63596147  0.87027478  0.13540374  1
  O  O378  1  0.60799819  0.87112851  0.63782551  1
  O  O379  1  0.12452914  0.25491338  0.25490004  1
  O  O380  1  0.12740570  0.22741986  0.76345522  1
  O  O381  1  0.12330941  0.76119632  0.25207905  1
  O  O382  1  0.11247757  0.75144951  0.75133571  1
  O  O383  1  0.61772897  0.25795535  0.25089221  1
  O  O384  1  0.61660461  0.24280726  0.76312502  1
  O  O385  1  0.61372026  0.75815990  0.24686226  1
  O  O386  1  0.62067986  0.75281623  0.75828657  1
  O  O387  1  0.37868370  0.24801163  0.24102732  1
  O  O388  1  0.37980151  0.24433830  0.74477215  1
  O  O389  1  0.38163096  0.74340253  0.24122868  1
  O  O390  1  0.37027996  0.73912808  0.73438870  1
  O  O391  1  0.88120106  0.24329426  0.24546559  1
  O  O392  1  0.86628868  0.23134109  0.75268298  1
  O  O393  1  0.86936791  0.74193926  0.24429682  1
  O  O394  1  0.87992317  0.76578327  0.73848700  1
  O  O395  1  0.38178004  0.49394422  0.49924635  1
  O  O396  1  0.37685681  0.49388743  0.99698562  1
  O  O397  1  0.36409024  1.01191026  0.49103269  1
  O  O398  1  0.38431106  1.00432509  0.98873421  1
  O  O399  1  0.86861722  0.48568074  0.48418631  1
  O  O400  1  0.87741695  0.49313780  1.00006600  1
  O  O401  1  0.86900514  0.99144041  0.49231780  1
  O  O402  1  0.87773332  0.98610723  1.00476773  1
  O  O403  1  0.12180404  0.00885989  0.00571897  1
  O  O404  1  0.12513504  0.00530303  0.50477626  1
  O  O405  1  0.13471938  0.49870235  0.02088727  1
  O  O406  1  0.12465474  0.51593039  0.49623008  1
  O  O407  1  0.61709457  0.00815807  -0.00970362  1
  O  O408  1  0.62118082  -0.00473170  0.51685919  1
  O  O409  1  0.62003843  0.50584458  0.00422849  1
  O  O410  1  0.61845628  0.49917305  0.50681533  1
  O  O411  1  0.37995851  0.36657895  0.11291123  1
  O  O412  1  0.37087075  0.37119059  0.61336550  1
  O  O413  1  0.36701906  0.86194656  0.13139351  1
  O  O414  1  0.37309256  0.85967297  0.63180192  1
  O  O415  1  0.86998318  0.37573427  0.11934179  1
  O  O416  1  0.86929427  0.36903853  0.60395062  1
  O  O417  1  0.86184671  0.87019419  0.12097264  1
  O  O418  1  0.87716283  0.87409380  0.61472249  1
  O  O419  1  0.12325734  0.13203535  0.38260509  1
  O  O420  1  0.13525981  0.11797129  0.88995505  1
  O  O421  1  0.13619815  0.62828469  0.37148709  1
  O  O422  1  0.13631930  0.64210986  0.86845743  1
  O  O423  1  0.62258222  0.14133278  0.36421845  1
  O  O424  1  0.61827940  0.13514143  0.88388657  1
  O  O425  1  0.64044670  0.62230421  0.36798863  1
  O  O426  1  0.63004877  0.63214806  0.87840351  1
