# generated using pymatgen
data_V85Zn86O256
_symmetry_space_group_name_H-M   'P 1'
_cell_length_a   16.97020016
_cell_length_b   16.95418165
_cell_length_c   16.98353459
_cell_angle_alpha   89.99553065
_cell_angle_beta   89.99543570
_cell_angle_gamma   89.99467382
_symmetry_Int_Tables_number   1
_chemical_formula_structural   V85Zn86O256
_chemical_formula_sum   'V85 Zn86 O256'
_cell_volume   4886.43214679
_cell_formula_units_Z   1
loop_
 _symmetry_equiv_pos_site_id
 _symmetry_equiv_pos_as_xyz
  1  'x, y, z'
loop_
 _atom_site_type_symbol
 _atom_site_label
 _atom_site_symmetry_multiplicity
 _atom_site_fract_x
 _atom_site_fract_y
 _atom_site_fract_z
 _atom_site_occupancy
  V  V0  1  0.62260886  0.87914569  0.24966924  1
  V  V1  1  0.50309195  0.25634645  0.75089759  1
  V  V2  1  0.37759368  0.87023901  0.48620903  1
  V  V3  1  0.74896348  0.75285712  0.49847488  1
  V  V4  1  0.11085049  0.50307808  0.12160159  1
  V  V5  1  0.06375924  0.31048440  0.70218074  1
  V  V6  1  0.63035704  0.49617337  0.62500221  1
  V  V7  1  0.62182546  0.75517857  0.37176970  1
  V  V8  1  0.11834972  0.25433939  0.87473379  1
  V  V9  1  0.49729763  0.62209233  0.12323722  1
  V  V10  1  0.49766880  0.25547039  0.25334978  1
  V  V11  1  0.75223504  0.12825260  0.87142096  1
  V  V12  1  0.12462473  0.12814604  0.00219493  1
  V  V13  1  0.49790082  0.75096497  0.75210717  1
  V  V14  1  0.38014465  0.25072757  0.62628664  1
  V  V15  1  0.26578607  0.74892131  0.00255688  1
  V  V16  1  0.24866786  0.37834755  0.12446468  1
  V  V17  1  0.61924329  0.61776237  0.00037632  1
  V  V18  1  0.62283247  0.62884339  0.49898935  1
  V  V19  1  0.50371216  0.00421399  -0.00202335  1
  V  V20  1  -0.00214680  0.62909456  0.62486293  1
  V  V21  1  0.11546932  0.24936678  0.37237721  1
  V  V22  1  0.62552622  0.38250802  0.26308413  1
  V  V23  1  -0.00009499  0.00093419  0.00248932  1
  V  V24  1  0.87583555  0.13065454  0.25293748  1
  V  V25  1  0.25101640  0.24729674  0.49788724  1
  V  V26  1  0.11893531  0.37166139  0.25048145  1
  V  V27  1  0.00107335  0.76437554  0.75040256  1
  V  V28  1  0.25143376  0.62183108  0.37429408  1
  V  V29  1  0.12349654  0.62075069  0.49566987  1
  V  V30  1  0.62360159  0.23327058  0.38073058  1
  V  V31  1  0.63008843  0.49924036  0.12875391  1
  V  V32  1  0.38369657  0.12373074  0.75661823  1
  V  V33  1  0.00164839  0.87295489  0.36976798  1
  V  V34  1  0.50061945  0.48987576  0.49703803  1
  V  V35  1  0.75198135  0.00594727  0.24913418  1
  V  V36  1  0.74996202  0.88798793  0.63462565  1
  V  V37  1  0.87566271  0.62900161  0.75137497  1
  V  V38  1  0.37854703  0.00434686  0.36973257  1
  V  V39  1  0.51000630  0.12865318  0.11995345  1
  V  V40  1  0.37227188  -0.00786981  0.88383333  1
  V  V41  1  0.01158780  -0.00686097  0.50960821  1
  V  V42  1  0.74686189  0.24809186  0.00438103  1
  V  V43  1  0.37549592  0.62692562  0.24568529  1
  V  V44  1  0.87482396  0.38194252  -0.00018694  1
  V  V45  1  0.87012057  0.61424886  0.25006925  1
  V  V46  1  0.87593535  0.74503271  0.12517385  1
  V  V47  1  0.00205108  0.12900191  0.13211516  1
  V  V48  1  0.25092508  0.25409848  -0.00130291  1
  V  V49  1  0.87742249  0.25339314  0.12934410  1
  V  V50  1  0.48954063  0.86478388  0.89229017  1
  V  V51  1  0.12491209  0.74525389  0.36910357  1
  V  V52  1  0.49994816  0.62752543  0.62246690  1
  V  V53  1  0.12323584  0.75842383  0.87730272  1
  V  V54  1  0.87195663  0.00166401  0.87313210  1
  V  V55  1  0.62194752  0.24907532  0.88291376  1
  V  V56  1  0.12910324  0.11879561  0.50375694  1
  V  V57  1  0.87568786  0.00398861  0.37737874  1
  V  V58  1  0.37655974  0.25137596  0.12102259  1
  V  V59  1  0.00319139  0.38353937  0.88075459  1
  V  V60  1  0.24882394  0.49634131  0.75121709  1
  V  V61  1  0.63431775  0.37883884  0.75463334  1
  V  V62  1  0.24292777  -0.00641954  0.74635630  1
  V  V63  1  0.75162460  0.61472076  0.37090682  1
  V  V64  1  0.62183680  0.75087983  0.87550114  1
  V  V65  1  0.74769569  0.75079875  0.00169127  1
  V  V66  1  -0.00118704  0.74032054  0.24287088  1
  V  V67  1  0.49628517  0.75403161  0.24676581  1
  V  V68  1  0.74953775  0.87657307  0.12034534  1
  V  V69  1  0.38106639  0.39184130  -0.00460723  1
  V  V70  1  0.26553712  0.87282202  0.12058278  1
  V  V71  1  -0.00856494  0.50222659  0.49345463  1
  V  V72  1  0.24894502  0.49952303  0.24865640  1
  V  V73  1  0.37598594  0.37493516  0.49378854  1
  V  V74  1  0.87605567  0.87124711  0.49813448  1
  V  V75  1  0.11003964  0.62386677  0.00251046  1
  V  V76  1  0.12500671  0.87461897  0.24167293  1
  V  V77  1  0.86542600  0.37407436  0.52016817  1
  V  V78  1  0.37286306  0.61875929  0.75352336  1
  V  V79  1  0.75034120  0.62351392  0.87529390  1
  V  V80  1  0.24997340  0.62107352  0.87476683  1
  V  V81  1  0.12242648  0.50506780  0.63069668  1
  V  V82  1  0.24972060  0.12509945  0.87721807  1
  V  V83  1  0.37229830  0.75026212  0.62066465  1
  V  V84  1  -0.01586812  0.37522480  0.37030291  1
  Zn  Zn85  1  0.24163240  0.89133778  0.61581168  1
  Zn  Zn86  1  0.76083155  0.22321114  0.50312370  1
  Zn  Zn87  1  0.62927323  0.00600780  0.11747809  1
  Zn  Zn88  1  0.37254343  0.12555897  0.24545811  1
  Zn  Zn89  1  0.24356362  0.75176349  0.50175227  1
  Zn  Zn90  1  0.01047544  0.12802937  0.63566652  1
  Zn  Zn91  1  0.87854720  0.87555540  0.00331341  1
  Zn  Zn92  1  0.25015578  0.00222718  0.24584728  1
  Zn  Zn93  1  0.89318657  0.14573972  0.74726056  1
  Zn  Zn94  1  0.61539158  0.88807152  0.74180922  1
  Zn  Zn95  1  0.54397045  0.10186310  0.60606942  1
  Zn  Zn96  1  0.75047350  0.37941089  0.13192715  1
  Zn  Zn97  1  0.50881704  0.00106827  0.48728243  1
  Zn  Zn98  1  0.38225888  0.49498842  0.37054731  1
  Zn  Zn99  1  0.75305877  0.50323156  0.74469540  1
  Zn  Zn100  1  0.87365572  0.75352816  0.62779765  1
  Zn  Zn101  1  0.49979010  0.39314035  0.87710921  1
  Zn  Zn102  1  0.24817564  0.12461629  0.36870202  1
  Zn  Zn103  1  0.00174165  0.88163523  0.87353269  1
  Zn  Zn104  1  0.88019804  0.50385283  0.87951927  1
  Zn  Zn105  1  0.12783273  0.00085511  0.12505516  1
  Zn  Zn106  1  0.24838619  0.37379557  0.62823561  1
  Zn  Zn107  1  0.18932214  0.19062436  0.18864295  1
  Zn  Zn108  1  0.20083339  0.17758310  0.68319053  1
  Zn  Zn109  1  0.18868300  0.68756862  0.18109648  1
  Zn  Zn110  1  0.17403274  0.71827996  0.67502988  1
  Zn  Zn111  1  0.68818671  0.19253655  0.19239912  1
  Zn  Zn112  1  0.72047523  0.19712844  0.68877797  1
  Zn  Zn113  1  0.68723801  0.68726294  0.18760766  1
  Zn  Zn114  1  0.68624798  0.69491031  0.68608415  1
  Zn  Zn115  1  0.30955912  0.31153801  0.31213363  1
  Zn  Zn116  1  0.31190307  0.31463298  0.81543197  1
  Zn  Zn117  1  0.31074147  0.81005350  0.30872489  1
  Zn  Zn118  1  0.31098087  0.80920493  0.81335297  1
  Zn  Zn119  1  0.80032392  0.30721074  0.31823815  1
  Zn  Zn120  1  0.81601301  0.31082277  0.81011309  1
  Zn  Zn121  1  0.81053904  0.81259524  0.30995185  1
  Zn  Zn122  1  0.81560151  0.81612881  0.81787009  1
  Zn  Zn123  1  0.18639930  0.43564417  0.43753686  1
  Zn  Zn124  1  0.18643483  0.43969125  0.93842632  1
  Zn  Zn125  1  0.19542621  0.93493446  0.42954025  1
  Zn  Zn126  1  0.18798988  0.93739495  0.94131813  1
  Zn  Zn127  1  0.68496390  0.43640501  0.43785686  1
  Zn  Zn128  1  0.68807018  0.43705557  0.93964389  1
  Zn  Zn129  1  0.69303636  0.94725252  0.43291466  1
  Zn  Zn130  1  0.66609609  0.95997433  0.90509645  1
  Zn  Zn131  1  0.31461812  0.06326644  0.06316683  1
  Zn  Zn132  1  0.37286140  0.04929467  0.57887727  1
  Zn  Zn133  1  0.30320109  0.56760888  0.06830536  1
  Zn  Zn134  1  0.31147749  0.56176851  0.56339664  1
  Zn  Zn135  1  0.81333882  0.06611844  0.06107838  1
  Zn  Zn136  1  0.82511191  0.05961940  0.57432633  1
  Zn  Zn137  1  0.81059932  0.56331468  0.06380620  1
  Zn  Zn138  1  0.81226140  0.56626122  0.55988763  1
  Zn  Zn139  1  0.44048695  0.43924106  0.18530935  1
  Zn  Zn140  1  0.44135713  0.43645946  0.68474553  1
  Zn  Zn141  1  0.44082503  0.94019831  0.18593272  1
  Zn  Zn142  1  0.43185474  0.93139041  0.69283002  1
  Zn  Zn143  1  0.93670564  0.43523963  0.18786690  1
  Zn  Zn144  1  0.93450542  0.44682723  0.68998588  1
  Zn  Zn145  1  0.93798905  0.93708393  0.18515276  1
  Zn  Zn146  1  0.93216485  0.95631810  0.68049705  1
  Zn  Zn147  1  0.06285760  0.06064750  0.31388594  1
  Zn  Zn148  1  0.06095562  0.06808089  0.81204228  1
  Zn  Zn149  1  0.05867156  0.55803751  0.30854239  1
  Zn  Zn150  1  0.06372315  0.56899717  0.81291041  1
  Zn  Zn151  1  0.55634173  0.06359942  0.30489590  1
  Zn  Zn152  1  0.59919327  0.08281602  0.77162048  1
  Zn  Zn153  1  0.56271792  0.56458578  0.31500231  1
  Zn  Zn154  1  0.56389913  0.56448155  0.80955224  1
  Zn  Zn155  1  0.44390072  0.18562131  0.44105077  1
  Zn  Zn156  1  0.44019920  0.18957411  0.93700673  1
  Zn  Zn157  1  0.43883888  0.68768851  0.43297526  1
  Zn  Zn158  1  0.43469534  0.57132350  0.93937837  1
  Zn  Zn159  1  0.91946951  0.17169650  0.45927687  1
  Zn  Zn160  1  0.93700728  0.19057906  0.93996655  1
  Zn  Zn161  1  0.93615458  0.68662721  0.43081975  1
  Zn  Zn162  1  0.93603830  0.69271024  0.93673560  1
  Zn  Zn163  1  0.05882459  0.31458074  0.06196185  1
  Zn  Zn164  1  0.05903986  0.31515774  0.53981218  1
  Zn  Zn165  1  0.06277101  0.81098507  0.06113514  1
  Zn  Zn166  1  0.06525124  0.81438660  0.56195070  1
  Zn  Zn167  1  0.56177891  0.31924378  0.06464056  1
  Zn  Zn168  1  0.59619315  0.28900037  0.58072512  1
  Zn  Zn169  1  0.56140951  0.80934834  0.06536402  1
  Zn  Zn170  1  0.58534444  0.85746947  0.53851607  1
  O  O171  1  0.11811936  0.12800720  0.11957319  1
  O  O172  1  0.12889009  0.12819023  0.60800953  1
  O  O173  1  0.12655820  0.61903200  0.11144347  1
  O  O174  1  0.11777089  0.62059657  0.61621633  1
  O  O175  1  0.61384167  0.12763640  0.12901310  1
  O  O176  1  0.62522476  0.12711595  0.67106100  1
  O  O177  1  0.61909866  0.62024764  0.11960322  1
  O  O178  1  0.61454326  0.62511278  0.61933168  1
  O  O179  1  0.37055650  0.37486529  0.38931807  1
  O  O180  1  0.37363243  0.37464072  0.89371870  1
  O  O181  1  0.37022809  0.87851911  0.38024219  1
  O  O182  1  0.37897411  0.87896952  0.87550151  1
  O  O183  1  0.88336619  0.37055271  0.36754082  1
  O  O184  1  0.88311407  0.37471097  0.88200103  1
  O  O185  1  0.87972349  0.88029225  0.37867513  1
  O  O186  1  0.87591930  0.88731123  0.88644856  1
  O  O187  1  0.26265798  0.00163323  0.36561931  1
  O  O188  1  0.25522863  0.00468165  0.87420129  1
  O  O189  1  0.24908018  0.50824710  0.36730240  1
  O  O190  1  0.24069976  0.51217578  0.86645276  1
  O  O191  1  0.76776766  -0.00297384  0.36490926  1
  O  O192  1  0.76836330  0.01485777  0.90228423  1
  O  O193  1  0.74145636  0.51623228  0.37730460  1
  O  O194  1  0.74870798  0.51666145  0.87521902  1
  O  O195  1  0.23932807  0.49533886  0.13175101  1
  O  O196  1  0.23887939  0.49661764  0.63025507  1
  O  O197  1  0.24866579  0.98572219  0.12225629  1
  O  O198  1  0.26495557  1.00351201  0.64347699  1
  O  O199  1  0.73480258  0.50206627  0.12616474  1
  O  O200  1  0.73381888  0.51318648  0.62487304  1
  O  O201  1  0.75021426  0.99488336  0.12967609  1
  O  O202  1  0.74986313  0.98634801  0.62397651  1
  O  O203  1  0.00862331  0.37891454  0.25777395  1
  O  O204  1  -0.00273301  0.36885486  0.75550084  1
  O  O205  1  0.00716631  0.86578552  0.25066193  1
  O  O206  1  -0.00711179  0.86624385  0.74960651  1
  O  O207  1  0.51219186  0.36652216  0.24168894  1
  O  O208  1  0.50476982  0.37070445  0.75650933  1
  O  O209  1  0.51014502  0.86629684  0.24151719  1
  O  O210  1  0.49586759  0.86144456  0.75980221  1
  O  O211  1  0.49333163  0.13506078  0.23605693  1
  O  O212  1  0.48716156  0.13700859  0.76565870  1
  O  O213  1  0.49288615  0.63135222  0.24629656  1
  O  O214  1  0.49304709  0.63397635  0.74374237  1
  O  O215  1  0.99729404  0.12184143  0.23672211  1
  O  O216  1  1.00850841  0.14355202  0.75045013  1
  O  O217  1  0.99089111  0.63508414  0.25411567  1
  O  O218  1  0.99072859  0.63240030  0.74650101  1
  O  O219  1  0.37156127  0.25955249  0.00851916  1
  O  O220  1  0.37087205  0.25543891  0.50705825  1
  O  O221  1  0.36018137  0.74479064  -0.00419350  1
  O  O222  1  0.37286957  0.75543230  0.50094679  1
  O  O223  1  0.86897162  0.26024661  0.00923843  1
  O  O224  1  0.87662074  0.27191543  0.50319172  1
  O  O225  1  0.86703420  0.75109776  0.00872311  1
  O  O226  1  0.86982362  0.75925264  0.49592662  1
  O  O227  1  0.13296980  0.24502944  0.49080933  1
  O  O228  1  0.13056129  0.24862652  0.99361299  1
  O  O229  1  0.12361366  0.73716729  0.48413386  1
  O  O230  1  0.12660244  0.73858564  0.99448505  1
  O  O231  1  0.58591819  0.25036779  0.47229377  1
  O  O232  1  0.63367578  0.26150085  0.99527116  1
  O  O233  1  0.63137825  0.75441866  0.48928349  1
  O  O234  1  0.62863175  0.73679812  0.99781489  1
  O  O235  1  0.49420638  0.24653072  0.12806471  1
  O  O236  1  0.49668026  0.25219810  0.64171764  1
  O  O237  1  0.50656132  0.73657890  0.13823006  1
  O  O238  1  0.48778013  0.74203090  0.63378594  1
  O  O239  1  0.98623145  0.24427448  0.12194131  1
  O  O240  1  1.01307451  0.25736319  0.63179971  1
  O  O241  1  0.98958474  0.75320114  0.13202868  1
  O  O242  1  0.99565239  0.74504145  0.63307081  1
  O  O243  1  0.01237062  0.26061307  0.38518856  1
  O  O244  1  0.01292937  0.25943549  0.88020892  1
  O  O245  1  0.00525050  0.75396248  0.36272710  1
  O  O246  1  0.00550896  0.75632037  0.86968299  1
  O  O247  1  0.49438184  0.24377161  0.35484499  1
  O  O248  1  0.50667313  0.25700437  0.87020369  1
  O  O249  1  0.51410665  0.74514257  0.36336853  1
  O  O250  1  0.50434691  0.75197328  0.86740145  1
  O  O251  1  0.24437569  0.13952984  0.49284567  1
  O  O252  1  0.24465941  0.13325568  0.99696770  1
  O  O253  1  0.24272307  0.61945445  0.48759037  1
  O  O254  1  0.24401340  0.63556356  0.99431860  1
  O  O255  1  0.81449527  0.12487162  0.48739892  1
  O  O256  1  0.75635475  0.14283364  0.99746457  1
  O  O257  1  0.74364183  0.63475223  0.49207109  1
  O  O258  1  0.74300667  0.63150324  0.99342616  1
  O  O259  1  0.25797609  0.37336386  0.00566066  1
  O  O260  1  0.25489213  0.36579364  0.50357083  1
  O  O261  1  0.24507850  0.86215599  0.01125242  1
  O  O262  1  0.26053822  0.86893879  0.49848496  1
  O  O263  1  0.75788650  0.36660783  0.00334035  1
  O  O264  1  0.76811846  0.38780031  0.49666248  1
  O  O265  1  0.74869400  0.87013889  0.01450968  1
  O  O266  1  0.76038249  0.86928639  0.50429052  1
  O  O267  1  0.12888851  0.49218002  0.24212249  1
  O  O268  1  0.13175722  0.50939964  0.73783323  1
  O  O269  1  0.12678333  0.98820444  0.24669619  1
  O  O270  1  0.14443964  1.00736680  0.75634923  1
  O  O271  1  0.61849684  0.48916582  0.24697179  1
  O  O272  1  0.62707585  0.49779866  0.74122143  1
  O  O273  1  0.63346055  0.99515204  0.24681857  1
  O  O274  1  0.62846533  0.98063583  0.79998248  1
  O  O275  1  0.37337231  -0.00133996  0.25840754  1
  O  O276  1  0.37144427  0.00853874  0.76753016  1
  O  O277  1  0.36930746  0.50539944  0.25159034  1
  O  O278  1  0.36712460  0.51252685  0.73965485  1
  O  O279  1  0.87023450  0.00512045  0.25473125  1
  O  O280  1  0.87275268  -0.00857174  0.77510041  1
  O  O281  1  0.87669582  0.51528246  0.24158613  1
  O  O282  1  0.87168872  0.51551197  0.75647965  1
  O  O283  1  0.11723336  0.37063130  0.36744981  1
  O  O284  1  0.11776179  0.36802625  0.87975304  1
  O  O285  1  0.12524605  0.86509775  0.35914383  1
  O  O286  1  0.12396614  0.86216456  0.88082500  1
  O  O287  1  0.62017272  0.37445721  0.36458370  1
  O  O288  1  0.62155420  0.37124337  0.87195164  1
  O  O289  1  0.63541799  0.86813075  0.35690261  1
  O  O290  1  0.61290012  0.85476737  0.88960126  1
  O  O291  1  0.38208239  0.13786854  0.12274414  1
  O  O292  1  0.36770466  0.14389706  0.64304279  1
  O  O293  1  0.38108558  0.62021589  0.13738368  1
  O  O294  1  0.38845023  0.62401818  0.62852164  1
  O  O295  1  0.88224583  0.13198478  0.13444546  1
  O  O296  1  0.90721982  0.07337138  0.64995583  1
  O  O297  1  0.86615342  0.63813418  0.13229809  1
  O  O298  1  0.87998171  0.62882369  0.63366898  1
  O  O299  1  0.25759135  0.25881216  0.11865220  1
  O  O300  1  0.25852667  0.25486867  0.61687953  1
  O  O301  1  0.24989609  0.75698964  0.11130479  1
  O  O302  1  0.27196787  0.71968592  0.61601787  1
  O  O303  1  0.75940121  0.25261717  0.12129317  1
  O  O304  1  0.70239816  0.25103299  0.59196503  1
  O  O305  1  0.75501066  0.75775294  0.12263501  1
  O  O306  1  0.75417995  0.74948778  0.60819259  1
  O  O307  1  0.23884227  0.25137374  0.38117886  1
  O  O308  1  0.24047922  0.24793121  0.88051583  1
  O  O309  1  0.24365401  0.73497311  0.37133109  1
  O  O310  1  0.24209410  0.74307694  0.88365269  1
  O  O311  1  0.72759234  0.25142826  0.38925272  1
  O  O312  1  0.74443149  0.24660268  0.88616113  1
  O  O313  1  0.74212414  0.74761002  0.38251511  1
  O  O314  1  0.74241853  0.74362268  0.88050360  1
  O  O315  1  0.00485626  0.12263962  0.01092571  1
  O  O316  1  0.00910698  0.11018001  0.50951243  1
  O  O317  1  0.01150307  0.62604473  -0.00485983  1
  O  O318  1  0.00264708  0.61903772  0.50069857  1
  O  O319  1  0.49552154  0.11670201  0.00701837  1
  O  O320  1  0.48112844  0.11120546  0.51415463  1
  O  O321  1  0.50659381  0.62810091  0.01155816  1
  O  O322  1  0.50504345  0.62296876  0.50700234  1
  O  O323  1  0.49055624  0.38758052  0.50834390  1
  O  O324  1  0.48343187  0.37834147  1.00185438  1
  O  O325  1  0.47843822  0.87000396  0.49923333  1
  O  O326  1  0.49648628  0.87610434  0.99629476  1
  O  O327  1  0.98582411  0.38532075  0.49064241  1
  O  O328  1  0.98953969  0.37327296  0.99139127  1
  O  O329  1  0.99674944  0.87013792  0.48775228  1
  O  O330  1  1.00056263  0.88727155  1.00081742  1
  O  O331  1  0.49798654  0.50904309  0.39134463  1
  O  O332  1  0.49885503  0.50634692  0.87634954  1
  O  O333  1  0.48450878  0.99913989  0.36927519  1
  O  O334  1  0.48736439  0.98238683  0.88688123  1
  O  O335  1  1.00458319  0.49005025  0.38442815  1
  O  O336  1  1.00164634  0.48739295  0.86826379  1
  O  O337  1  0.99304640  0.99025721  0.37809124  1
  O  O338  1  0.99089999  1.00277830  0.88400964  1
  O  O339  1  0.00287576  0.00943736  0.11921791  1
  O  O340  1  0.02301973  -0.03176438  0.60604884  1
  O  O341  1  0.01195688  0.49726335  0.12626752  1
  O  O342  1  0.00602571  0.50829365  0.61917553  1
  O  O343  1  0.50042750  0.01068270  0.11647723  1
  O  O344  1  0.47481522  0.00487829  0.62172454  1
  O  O345  1  0.51145620  0.51452174  0.13108760  1
  O  O346  1  0.50828273  0.51010131  0.61816058  1
  O  O347  1  0.24158798  0.38086652  0.24437675  1
  O  O348  1  0.25688933  0.39248904  0.75031559  1
  O  O349  1  0.24292431  0.86930969  0.23416762  1
  O  O350  1  0.25624984  0.89108258  0.75273265  1
  O  O351  1  0.72979678  0.36988273  0.24976436  1
  O  O352  1  0.73724676  0.38547104  0.76012310  1
  O  O353  1  0.74659606  0.88526299  0.23925317  1
  O  O354  1  0.75691167  0.86848059  0.73501141  1
  O  O355  1  0.25458848  0.12263620  0.24958563  1
  O  O356  1  0.26211223  0.11873396  0.76092486  1
  O  O357  1  0.25678887  0.62088033  0.25181850  1
  O  O358  1  0.25610799  0.61823686  0.75811161  1
  O  O359  1  0.75973291  0.11393523  0.24456420  1
  O  O360  1  0.74554213  0.11058513  0.77336879  1
  O  O361  1  0.75781365  0.63299374  0.25950115  1
  O  O362  1  0.75730263  0.63117524  0.75784181  1
  O  O363  1  0.37308963  0.11317644  0.37173773  1
  O  O364  1  0.36785009  0.12014153  0.87423557  1
  O  O365  1  0.36710848  0.62199505  0.36425243  1
  O  O366  1  0.36210065  0.62574226  0.86563799  1
  O  O367  1  0.89657968  0.11571857  0.35613195  1
  O  O368  1  0.87257689  0.11995103  0.87328265  1
  O  O369  1  0.86378991  0.62955029  0.36354547  1
  O  O370  1  0.86708781  0.62655303  0.87059324  1
  O  O371  1  0.12722473  0.38004484  0.13113261  1
  O  O372  1  0.11528541  0.37688558  0.63574175  1
  O  O373  1  0.13002942  0.87313378  0.13344950  1
  O  O374  1  0.15238562  0.82454777  0.62851969  1
  O  O375  1  0.62589021  0.38510437  0.13395966  1
  O  O376  1  0.61596534  0.38869550  0.64017110  1
  O  O377  1  0.63277233  0.87658267  0.13396522  1
  O  O378  1  0.64548059  0.86129349  0.63430968  1
  O  O379  1  0.12801550  0.26320150  0.25667629  1
  O  O380  1  0.13497748  0.25573061  0.75443068  1
  O  O381  1  0.11672329  0.75088342  0.24922725  1
  O  O382  1  0.11089831  0.73587962  0.76785310  1
  O  O383  1  0.61697986  0.25778054  0.26162200  1
  O  O384  1  0.61838477  0.26469559  0.76335498  1
  O  O385  1  0.62018303  0.75756100  0.25439198  1
  O  O386  1  0.61420761  0.75049058  0.75959730  1
  O  O387  1  0.38003503  0.25772701  0.23523186  1
  O  O388  1  0.38205213  0.24946317  0.74788608  1
  O  O389  1  0.38610459  0.74123047  0.25481711  1
  O  O390  1  0.37765163  0.73883869  0.74295555  1
  O  O391  1  0.86541826  0.24172606  0.24346157  1
  O  O392  1  0.82613910  0.23495698  0.72989861  1
  O  O393  1  0.88162478  0.74562554  0.24307887  1
  O  O394  1  0.88293775  0.74283369  0.75324122  1
  O  O395  1  0.38046879  0.49131510  0.50055478  1
  O  O396  1  0.36881665  0.49543745  1.00444857  1
  O  O397  1  0.36985860  0.98465364  0.48261277  1
  O  O398  1  0.38077903  1.00324178  0.98984233  1
  O  O399  1  0.88658079  0.49648214  0.50464525  1
  O  O400  1  0.86855306  0.48721395  0.99928999  1
  O  O401  1  0.89048062  0.98357040  0.49194732  1
  O  O402  1  0.88978252  1.00353084  0.99949810  1
  O  O403  1  0.11560179  0.00890730  0.00120313  1
  O  O404  1  0.12266166  0.00814723  0.48434139  1
  O  O405  1  0.13000507  0.51502497  0.00743703  1
  O  O406  1  0.11541893  0.50054280  0.51028576  1
  O  O407  1  0.60800289  -0.00444260  -0.00022816  1
  O  O408  1  0.61331798  -0.03521056  0.50360619  1
  O  O409  1  0.62859800  0.51180169  0.00859773  1
  O  O410  1  0.61687109  0.50517390  0.50676385  1
  O  O411  1  0.37052072  0.37304296  0.11470335  1
  O  O412  1  0.37433890  0.36496791  0.61762084  1
  O  O413  1  0.36377692  0.87413291  0.12745668  1
  O  O414  1  0.36529644  0.86197680  0.61605567  1
  O  O415  1  0.87234310  0.36901386  0.12015044  1
  O  O416  1  0.87250968  0.38340242  0.61907330  1
  O  O417  1  0.86723594  0.86489284  0.12532692  1
  O  O418  1  0.86709872  0.87444394  0.61498710  1
  O  O419  1  0.12295020  0.13417205  0.38149981  1
  O  O420  1  0.13059363  0.13510211  0.88400668  1
  O  O421  1  0.13130917  0.62481409  0.37407609  1
  O  O422  1  0.13051416  0.63115312  0.88724205  1
  O  O423  1  0.62070535  0.13363374  0.36947477  1
  O  O424  1  0.63219714  0.14435442  0.87680316  1
  O  O425  1  0.63099969  0.63603667  0.38024678  1
  O  O426  1  0.63002241  0.63345970  0.88219854  1
