# generated using pymatgen
data_V85Zn86O256
_symmetry_space_group_name_H-M   'P 1'
_cell_length_a   16.94191362
_cell_length_b   16.94738876
_cell_length_c   16.93778671
_cell_angle_alpha   90.01903870
_cell_angle_beta   90.06038070
_cell_angle_gamma   89.99073526
_symmetry_Int_Tables_number   1
_chemical_formula_structural   V85Zn86O256
_chemical_formula_sum   'V85 Zn86 O256'
_cell_volume   4863.19455295
_cell_formula_units_Z   1
loop_
 _symmetry_equiv_pos_site_id
 _symmetry_equiv_pos_as_xyz
  1  'x, y, z'
loop_
 _atom_site_type_symbol
 _atom_site_label
 _atom_site_symmetry_multiplicity
 _atom_site_fract_x
 _atom_site_fract_y
 _atom_site_fract_z
 _atom_site_occupancy
  V  V0  1  0.61687647  0.50196262  0.11711563  1
  V  V1  1  0.61546899  0.87260002  0.25371235  1
  V  V2  1  0.75337435  0.36992315  0.12595017  1
  V  V3  1  0.37941536  0.49943605  0.87695612  1
  V  V4  1  0.25035317  0.37610419  0.62017740  1
  V  V5  1  0.49263794  0.63626734  0.11868606  1
  V  V6  1  0.50304308  0.75166595  0.74916145  1
  V  V7  1  0.12476183  0.36431011  0.26612968  1
  V  V8  1  0.87503814  0.00306744  0.37076787  1
  V  V9  1  0.62012264  0.37705926  0.73942468  1
  V  V10  1  0.49821341  -0.00050209  -0.00138968  1
  V  V11  1  0.36337920  0.25273776  0.11997737  1
  V  V12  1  0.24708319  0.87617977  0.63624066  1
  V  V13  1  0.13480403  0.48766952  0.12779560  1
  V  V14  1  0.63270120  0.61592983  0.50196157  1
  V  V15  1  0.62099470  0.25321805  0.37400954  1
  V  V16  1  0.62533658  0.25223751  0.87141963  1
  V  V17  1  0.62712238  0.87585836  0.74739617  1
  V  V18  1  0.75614415  0.00284801  0.74831775  1
  V  V19  1  0.74958942  0.87442338  0.12645975  1
  V  V20  1  0.50522721  0.61488742  0.62405779  1
  V  V21  1  0.23474219  0.12850745  0.36964585  1
  V  V22  1  0.87733248  0.36612043  0.00395551  1
  V  V23  1  -0.01786163  0.12275738  0.12510489  1
  V  V24  1  0.75028531  0.00138340  0.24905658  1
  V  V25  1  0.49154013  0.12645006  0.12854760  1
  V  V26  1  0.25378511  0.85549745  0.12194374  1
  V  V27  1  0.12631046  0.88125575  0.24356725  1
  V  V28  1  0.25050690  0.75291279  0.49777677  1
  V  V29  1  0.87984154  0.74755782  0.12529156  1
  V  V30  1  0.62166482  0.00063130  0.12622968  1
  V  V31  1  -0.00968759  0.24056296  0.74694185  1
  V  V32  1  -0.01521511  0.25061407  0.25207091  1
  V  V33  1  0.62285281  0.37711520  0.25145973  1
  V  V34  1  0.26189483  0.61470623  0.37649367  1
  V  V35  1  0.75360533  0.25222865  0.49881387  1
  V  V36  1  0.88371685  0.49698007  0.37407302  1
  V  V37  1  0.74693453  0.50021865  0.74692173  1
  V  V38  1  0.63172001  0.75077779  0.87291846  1
  V  V39  1  0.87379367  0.86738285  0.49568027  1
  V  V40  1  0.25151368  0.00414950  0.24071605  1
  V  V41  1  0.75378231  0.74963846  0.00004333  1
  V  V42  1  0.12295150  0.74562730  0.85651642  1
  V  V43  1  0.00340418  0.87641763  0.37421854  1
  V  V44  1  0.12360032  0.62475956  0.49719470  1
  V  V45  1  0.50207465  0.37738487  0.88327283  1
  V  V46  1  0.23995559  0.25277729  0.49293025  1
  V  V47  1  0.12145710  0.10484328  0.00917911  1
  V  V48  1  0.12781160  0.25099036  0.88929510  1
  V  V49  1  0.50293134  0.87742897  0.87473504  1
  V  V50  1  0.62310750  0.12655327  0.50192784  1
  V  V51  1  0.75328709  0.12651798  0.87258066  1
  V  V52  1  0.00253739  0.74649046  0.24781346  1
  V  V53  1  0.87775638  0.62435770  0.24651107  1
  V  V54  1  0.00052139  0.50403573  0.01335604  1
  V  V55  1  0.37887994  0.75280036  0.62697259  1
  V  V56  1  0.62429101  0.75440783  0.38474625  1
  V  V57  1  0.00150508  0.62898952  0.62650997  1
  V  V58  1  0.48238791  0.38213861  0.37670271  1
  V  V59  1  0.12891835  0.63356330  0.01415628  1
  V  V60  1  0.62386576  0.00068026  0.62236599  1
  V  V61  1  0.88093734  0.00136254  0.88176856  1
  V  V62  1  0.12408961  0.37326765  0.75236177  1
  V  V63  1  0.62234621  0.12783178  -0.00127063  1
  V  V64  1  0.37370164  -0.00029733  0.87268352  1
  V  V65  1  0.49734957  0.25311663  0.74679652  1
  V  V66  1  0.74966218  0.87127215  0.61777880  1
  V  V67  1  0.49163658  0.24895971  0.24961175  1
  V  V68  1  0.74900262  0.50267288  0.25032922  1
  V  V69  1  0.87800529  0.50142340  0.87783759  1
  V  V70  1  0.37446563  0.62483500  0.75200866  1
  V  V71  1  0.75426036  0.37771172  0.62175224  1
  V  V72  1  0.49677896  -0.00295175  0.49473181  1
  V  V73  1  0.75017828  0.12752487  0.36827960  1
  V  V74  1  0.35999779  0.37514965  0.00293505  1
  V  V75  1  0.37313359  0.01275700  0.37392869  1
  V  V76  1  0.37441117  0.87821187  0.49239097  1
  V  V77  1  0.88124753  0.62877540  0.75089215  1
  V  V78  1  0.75300429  0.62547631  0.87426408  1
  V  V79  1  0.24890331  0.12889798  0.88090730  1
  V  V80  1  0.87466384  0.75023480  0.62353998  1
  V  V81  1  0.37077878  0.25085920  0.61713436  1
  V  V82  1  0.88444077  0.37205224  0.49919988  1
  V  V83  1  0.12322250  0.50078188  0.62763884  1
  V  V84  1  0.00087707  0.37551169  0.87660315  1
  Zn  Zn85  1  0.88292322  0.88356891  0.00728117  1
  Zn  Zn86  1  0.49245050  0.50102825  0.48894481  1
  Zn  Zn87  1  0.25279888  0.62601890  0.88614149  1
  Zn  Zn88  1  0.24476040  -0.00103169  0.75502971  1
  Zn  Zn89  1  0.95962649  0.12925036  0.62191122  1
  Zn  Zn90  1  -0.00060450  0.00406230  0.50548583  1
  Zn  Zn91  1  0.49066631  0.12479592  0.62386474  1
  Zn  Zn92  1  0.12807714  0.75041097  0.37303517  1
  Zn  Zn93  1  0.25966182  0.48825289  0.25309656  1
  Zn  Zn94  1  0.62574008  0.62038828  -0.00381506  1
  Zn  Zn95  1  0.37812839  0.86047532  0.01171580  1
  Zn  Zn96  1  -0.00101167  0.86712015  0.87807030  1
  Zn  Zn97  1  0.37694074  0.62485510  0.24758418  1
  Zn  Zn98  1  0.37037184  0.12839551  0.75094683  1
  Zn  Zn99  1  0.75267676  0.63088720  0.37820939  1
  Zn  Zn100  1  0.24958363  0.50134030  0.75194105  1
  Zn  Zn101  1  0.11448813  0.12606947  0.50397752  1
  Zn  Zn102  1  0.49345340  0.75257046  0.25198960  1
  Zn  Zn103  1  0.11241478  0.00969909  0.63040385  1
  Zn  Zn104  1  0.75325829  0.24808407  0.00385504  1
  Zn  Zn105  1  0.00268817  0.49590236  0.49530576  1
  Zn  Zn106  1  0.10299174  0.87546390  0.74644863  1
  Zn  Zn107  1  0.18196085  0.18819194  0.18698198  1
  Zn  Zn108  1  0.18325186  0.19010913  0.69486167  1
  Zn  Zn109  1  0.18517561  0.68304887  0.19043106  1
  Zn  Zn110  1  0.19237112  0.68884069  0.68589557  1
  Zn  Zn111  1  0.68244179  0.18890670  0.18787721  1
  Zn  Zn112  1  0.74766745  0.17094026  0.66621018  1
  Zn  Zn113  1  0.68471444  0.68726758  0.18921516  1
  Zn  Zn114  1  0.69169757  0.68757538  0.68354954  1
  Zn  Zn115  1  0.30875110  0.30923504  0.30699020  1
  Zn  Zn116  1  0.31124211  0.31239056  0.81243059  1
  Zn  Zn117  1  0.31495469  0.81110067  0.31007769  1
  Zn  Zn118  1  0.32601222  0.79480011  0.84712799  1
  Zn  Zn119  1  0.81463542  0.31487736  0.31395004  1
  Zn  Zn120  1  0.81171530  0.31519019  0.81512247  1
  Zn  Zn121  1  0.80704637  0.81161356  0.31223072  1
  Zn  Zn122  1  0.82202240  0.81681575  0.80804445  1
  Zn  Zn123  1  0.18504138  0.43647549  0.43922154  1
  Zn  Zn124  1  0.18814908  0.44401449  0.93697920  1
  Zn  Zn125  1  0.18466001  0.94352082  0.43947257  1
  Zn  Zn126  1  0.18698328  0.92905638  0.93645404  1
  Zn  Zn127  1  0.68872793  0.44070225  0.43495832  1
  Zn  Zn128  1  0.69080268  0.43554287  0.93566744  1
  Zn  Zn129  1  0.68628005  0.93629932  0.43590594  1
  Zn  Zn130  1  0.69165777  0.93796548  0.93897269  1
  Zn  Zn131  1  0.31168763  0.06132836  0.05660829  1
  Zn  Zn132  1  0.27643773  0.08147881  0.57901632  1
  Zn  Zn133  1  0.31328981  0.55744109  0.06258790  1
  Zn  Zn134  1  0.31442736  0.56155962  0.56173690  1
  Zn  Zn135  1  0.80891145  0.06514759  0.06208013  1
  Zn  Zn136  1  0.81237876  0.05543247  0.55222608  1
  Zn  Zn137  1  0.81179458  0.56061619  0.06509583  1
  Zn  Zn138  1  0.81368843  0.55811592  0.56269768  1
  Zn  Zn139  1  0.43384518  0.44094182  0.18811602  1
  Zn  Zn140  1  0.42576112  0.45294898  0.66086749  1
  Zn  Zn141  1  0.43098924  0.93778677  0.18868826  1
  Zn  Zn142  1  0.43349920  0.94116870  0.68611095  1
  Zn  Zn143  1  0.94034236  0.43241035  0.18905417  1
  Zn  Zn144  1  0.93756984  0.43867622  0.68635400  1
  Zn  Zn145  1  0.93813517  0.93887288  0.18604786  1
  Zn  Zn146  1  0.93945413  0.94124429  0.69281434  1
  Zn  Zn147  1  0.05924346  0.06467821  0.30230251  1
  Zn  Zn148  1  0.06643044  0.06300890  0.81130248  1
  Zn  Zn149  1  0.06671667  0.56192335  0.30923987  1
  Zn  Zn150  1  0.06321283  0.56415907  0.81772127  1
  Zn  Zn151  1  0.56004755  0.06339780  0.31318329  1
  Zn  Zn152  1  0.56420193  0.06622406  0.80834490  1
  Zn  Zn153  1  0.56071397  0.56592759  0.31011879  1
  Zn  Zn154  1  0.56207414  0.56201097  0.81062126  1
  Zn  Zn155  1  0.43312398  0.19004037  0.43948037  1
  Zn  Zn156  1  0.43595824  0.19100469  0.93772276  1
  Zn  Zn157  1  0.44211240  0.69108324  0.43728597  1
  Zn  Zn158  1  0.44358386  0.68611335  0.94103514  1
  Zn  Zn159  1  0.93879875  0.18755442  0.43388374  1
  Zn  Zn160  1  0.94315268  0.18402732  0.93782349  1
  Zn  Zn161  1  0.93847441  0.68724447  0.43447624  1
  Zn  Zn162  1  0.94467995  0.68703502  0.94285918  1
  Zn  Zn163  1  0.05848744  0.30965934  0.06989630  1
  Zn  Zn164  1  0.06197739  0.30757292  0.56648996  1
  Zn  Zn165  1  0.06214201  0.82126323  0.06032128  1
  Zn  Zn166  1  0.06212592  0.81294553  0.56192789  1
  Zn  Zn167  1  0.56224281  0.31251392  0.06380146  1
  Zn  Zn168  1  0.56155617  0.31445512  0.56043627  1
  Zn  Zn169  1  0.56656645  0.81253533  0.06008927  1
  Zn  Zn170  1  0.56038886  0.81159099  0.55887073  1
  O  O171  1  0.12719128  0.12265526  0.11012724  1
  O  O172  1  0.16258092  0.11528928  0.61460437  1
  O  O173  1  0.12502927  0.61214098  0.11940184  1
  O  O174  1  0.11930834  0.62384840  0.61759508  1
  O  O175  1  0.61582160  0.12072696  0.11701368  1
  O  O176  1  0.63495530  0.11995531  0.60901253  1
  O  O177  1  0.62360030  0.61332737  0.12169836  1
  O  O178  1  0.62063099  0.63731973  0.60824035  1
  O  O179  1  0.38420384  0.37254145  0.37201086  1
  O  O180  1  0.38130443  0.37849871  0.88285596  1
  O  O181  1  0.36323023  0.88645468  0.38869343  1
  O  O182  1  0.38757255  0.89261269  0.86311074  1
  O  O183  1  0.86931048  0.38682948  0.38500460  1
  O  O184  1  0.87930634  0.38366480  0.88405782  1
  O  O185  1  0.87844942  0.87902128  0.37832373  1
  O  O186  1  0.86772662  0.89269882  0.87924348  1
  O  O187  1  0.25451186  0.01250154  0.37019709  1
  O  O188  1  0.25918235  0.00260436  0.87621407  1
  O  O189  1  0.24855079  0.51233483  0.37966677  1
  O  O190  1  0.26396572  0.50309193  0.87104253  1
  O  O191  1  0.75283282  0.00598691  0.36763550  1
  O  O192  1  0.75144781  0.00810785  0.86731393  1
  O  O193  1  0.75760052  0.50289901  0.36144324  1
  O  O194  1  0.75929787  0.50507275  0.86940307  1
  O  O195  1  0.23706472  0.49943727  0.12867968  1
  O  O196  1  0.24043825  0.49298101  0.62841343  1
  O  O197  1  0.25906831  1.00183166  0.13946231  1
  O  O198  1  0.25745814  0.98024189  0.63140520  1
  O  O199  1  0.74304570  0.49266665  0.13430534  1
  O  O200  1  0.75105403  0.49123609  0.63477501  1
  O  O201  1  0.74236280  0.99841252  0.13241226  1
  O  O202  1  0.74306356  0.99058057  0.63037194  1
  O  O203  1  0.01127408  0.36108715  0.24138545  1
  O  O204  1  0.00941700  0.37280812  0.75488950  1
  O  O205  1  0.00672234  0.86849117  0.25400255  1
  O  O206  1  -0.01025925  0.87168497  0.76276288  1
  O  O207  1  0.50368529  0.36910011  0.25856938  1
  O  O208  1  0.50588703  0.36773924  0.75477139  1
  O  O209  1  0.51270663  0.87791102  0.24471770  1
  O  O210  1  0.50778234  0.87165238  0.75217018  1
  O  O211  1  0.50428922  0.13401679  0.23911433  1
  O  O212  1  0.50271512  0.14157024  0.74425891  1
  O  O213  1  0.50506880  0.62657606  0.23040685  1
  O  O214  1  0.49471993  0.63507399  0.74794482  1
  O  O215  1  1.00120061  0.13698228  0.23661359  1
  O  O216  1  0.99924542  0.13894142  0.75372590  1
  O  O217  1  0.99436813  0.63869777  0.25558762  1
  O  O218  1  0.99032644  0.61833835  0.74146071  1
  O  O219  1  0.38002901  0.26553733  0.00498919  1
  O  O220  1  0.36448307  0.25036317  0.51134625  1
  O  O221  1  0.36898178  0.76530630  -0.04625164  1
  O  O222  1  0.37075645  0.75863605  0.50437966  1
  O  O223  1  0.87496514  0.26322309  -0.00653018  1
  O  O224  1  0.86524886  0.26145128  0.48885555  1
  O  O225  1  0.86767530  0.74610251  0.00908622  1
  O  O226  1  0.87647335  0.76010338  0.50333392  1
  O  O227  1  0.13628619  0.24822590  0.50146503  1
  O  O228  1  0.12110945  0.25160839  0.99046472  1
  O  O229  1  0.13372169  0.74256266  0.49951955  1
  O  O230  1  0.12198015  0.73347036  1.00965924  1
  O  O231  1  0.62964945  0.24346737  0.49360679  1
  O  O232  1  0.62483899  0.24283167  0.99261652  1
  O  O233  1  0.62414164  0.74399830  0.48946484  1
  O  O234  1  0.64130488  0.74946230  0.99430297  1
  O  O235  1  0.49560455  0.24408613  0.13120802  1
  O  O236  1  0.48922421  0.25270899  0.62861045  1
  O  O237  1  0.50632632  0.73921920  0.12475315  1
  O  O238  1  0.49719678  0.74569768  0.63271600  1
  O  O239  1  1.00518759  0.23543011  0.13505609  1
  O  O240  1  1.00282163  0.24481569  0.64232121  1
  O  O241  1  0.98673405  0.75557835  0.13336185  1
  O  O242  1  0.98915782  0.73837204  0.61885616  1
  O  O243  1  -0.00525622  0.24243528  0.35263663  1
  O  O244  1  0.00751923  0.25729230  0.86956386  1
  O  O245  1  -0.00045738  0.76224412  0.36638851  1
  O  O246  1  0.01834030  0.74425709  0.87959067  1
  O  O247  1  0.50033707  0.25631167  0.36714978  1
  O  O248  1  0.50352304  0.25709776  0.86606374  1
  O  O249  1  0.51869796  0.74569527  0.37174246  1
  O  O250  1  0.51499044  0.75583864  0.86618662  1
  O  O251  1  0.25133617  0.13537961  0.48098554  1
  O  O252  1  0.23601364  0.11899181  0.99059879  1
  O  O253  1  0.24468322  0.63039971  0.49674087  1
  O  O254  1  0.23308222  0.61596597  1.00222430  1
  O  O255  1  0.74140121  0.12776283  0.48383295  1
  O  O256  1  0.73642536  0.12765499  0.99423081  1
  O  O257  1  0.73729045  0.61953358  0.49969809  1
  O  O258  1  0.75164474  0.63190223  0.99267074  1
  O  O259  1  0.26176578  0.37518709  -0.00326216  1
  O  O260  1  0.24563685  0.36826663  0.50874920  1
  O  O261  1  0.24850876  0.87899354  0.02089907  1
  O  O262  1  0.25422857  0.86783156  0.50742699  1
  O  O263  1  0.75929818  0.37439683  0.00751311  1
  O  O264  1  0.75602806  0.37582662  0.50571803  1
  O  O265  1  0.75379257  0.86632521  0.00861421  1
  O  O266  1  0.75676293  0.87947405  0.51005401  1
  O  O267  1  0.12300163  0.49071312  0.23890808  1
  O  O268  1  0.12518924  0.49291932  0.74628243  1
  O  O269  1  0.13596766  0.99007926  0.25568330  1
  O  O270  1  0.12757209  0.99212343  0.74764651  1
  O  O271  1  0.63304789  0.49752180  0.24231113  1
  O  O272  1  0.64055586  0.49194902  0.76083711  1
  O  O273  1  0.63174046  0.99457170  0.24819606  1
  O  O274  1  0.63142560  0.99405122  0.74248721  1
  O  O275  1  0.36525255  -0.00555099  0.26391703  1
  O  O276  1  0.37409031  0.00946327  0.75802894  1
  O  O277  1  0.36931461  0.51102276  0.24311631  1
  O  O278  1  0.37529756  0.50922431  0.75406403  1
  O  O279  1  0.85835716  -0.00821723  0.25712612  1
  O  O280  1  0.85929926  0.00075877  0.76092469  1
  O  O281  1  0.87146312  0.50573677  0.25331662  1
  O  O282  1  0.86693544  0.50787188  0.75490893  1
  O  O283  1  0.11729458  0.38091806  0.36420615  1
  O  O284  1  0.12156449  0.37125582  0.87075438  1
  O  O285  1  0.11753318  0.87368371  0.36749828  1
  O  O286  1  0.12666145  0.85641386  0.87084649  1
  O  O287  1  0.62497793  0.36897546  0.36653778  1
  O  O288  1  0.61934102  0.37259835  0.86759292  1
  O  O289  1  0.62738435  0.86403655  0.36953436  1
  O  O290  1  0.62318000  0.87166969  0.86863074  1
  O  O291  1  0.38754771  0.13388531  0.11122148  1
  O  O292  1  0.36867393  0.13709681  0.62894558  1
  O  O293  1  0.39067773  0.62426790  0.11599176  1
  O  O294  1  0.38597424  0.63476721  0.63407085  1
  O  O295  1  0.88261267  0.13126111  0.11632858  1
  O  O296  1  0.84570518  0.13012156  0.62597665  1
  O  O297  1  0.87231736  0.63110889  0.13801158  1
  O  O298  1  0.88073046  0.63039130  0.62887743  1
  O  O299  1  0.26504993  0.24324605  0.12875666  1
  O  O300  1  0.25279332  0.25794892  0.61778005  1
  O  O301  1  0.24984246  0.75680940  0.12913464  1
  O  O302  1  0.25803226  0.75600008  0.61513753  1
  O  O303  1  0.73992113  0.26573648  0.12408305  1
  O  O304  1  0.74114755  0.26994656  0.61362918  1
  O  O305  1  0.75798817  0.75189488  0.11928869  1
  O  O306  1  0.76422454  0.75721301  0.62547844  1
  O  O307  1  0.25394856  0.23790837  0.37876132  1
  O  O308  1  0.24058481  0.24212471  0.87344010  1
  O  O309  1  0.24930835  0.74207400  0.38844987  1
  O  O310  1  0.22876341  0.73970137  0.87002893  1
  O  O311  1  0.74285621  0.24327398  0.37536098  1
  O  O312  1  0.74383324  0.24322773  0.87624064  1
  O  O313  1  0.73195349  0.74613674  0.36833985  1
  O  O314  1  0.75164193  0.74747032  0.88095290  1
  O  O315  1  0.01175057  0.12846737  0.01220177  1
  O  O316  1  -0.00350222  0.12597440  0.50777835  1
  O  O317  1  0.01382403  0.61254786  -0.00021967  1
  O  O318  1  0.00839070  0.62488790  0.50558783  1
  O  O319  1  0.50859277  0.12139002  0.00349092  1
  O  O320  1  0.50721819  0.12108939  0.50289670  1
  O  O321  1  0.50959356  0.62690983  0.01211906  1
  O  O322  1  0.50934021  0.62291321  0.50821458  1
  O  O323  1  0.50600708  0.37403948  0.47893486  1
  O  O324  1  0.50092991  0.37223383  0.98524811  1
  O  O325  1  0.48878189  0.88523226  0.50436018  1
  O  O326  1  0.50108183  0.88178333  0.99341220  1
  O  O327  1  0.98843223  0.37496205  0.50738675  1
  O  O328  1  0.99363698  0.38158620  0.99793997  1
  O  O329  1  0.99261062  0.87557429  0.48955752  1
  O  O330  1  0.99399081  0.87404314  0.99246646  1
  O  O331  1  0.50016808  0.48668932  0.37086902  1
  O  O332  1  0.48931341  0.49103263  0.86784351  1
  O  O333  1  0.49158368  1.00576118  0.38641490  1
  O  O334  1  0.49701821  0.99939313  0.87915105  1
  O  O335  1  0.98764348  0.50624490  0.37400871  1
  O  O336  1  0.99644309  0.49324034  0.88522953  1
  O  O337  1  0.98970057  0.99056609  0.36748775  1
  O  O338  1  0.98059594  1.00978402  0.87143060  1
  O  O339  1  -0.00490674  0.02110061  0.13494570  1
  O  O340  1  -0.00698060  0.01370081  0.62592697  1
  O  O341  1  0.00837712  0.49621420  0.11734562  1
  O  O342  1  0.00451124  0.51270818  0.62214278  1
  O  O343  1  0.50150243  0.00782900  0.12066857  1
  O  O344  1  0.50583838  0.00469965  0.61488824  1
  O  O345  1  0.51499169  0.50470827  0.12600330  1
  O  O346  1  0.52192198  0.51952186  0.64982128  1
  O  O347  1  0.23188285  0.37513588  0.25511796  1
  O  O348  1  0.23587224  0.37432304  0.74582834  1
  O  O349  1  0.24338984  0.88043496  0.24324095  1
  O  O350  1  0.25572192  0.86652235  0.73628379  1
  O  O351  1  0.74472002  0.38259901  0.24371099  1
  O  O352  1  0.74512921  0.38119113  0.74318223  1
  O  O353  1  0.73856403  0.88261936  0.24520083  1
  O  O354  1  0.74713024  0.88130826  0.73820433  1
  O  O355  1  0.24485570  0.11985583  0.26112718  1
  O  O356  1  0.24782290  0.12284356  0.76934955  1
  O  O357  1  0.24559782  0.62466949  0.27128364  1
  O  O358  1  0.26618292  0.62479676  0.74758332  1
  O  O359  1  0.74037172  0.11811653  0.25984149  1
  O  O360  1  0.73565421  0.11442872  0.76301792  1
  O  O361  1  0.75783130  0.61695734  0.24964370  1
  O  O362  1  0.75716192  0.61740941  0.75279322  1
  O  O363  1  0.36880711  0.11604787  0.37639064  1
  O  O364  1  0.36723718  0.11783682  0.87941525  1
  O  O365  1  0.36283221  0.62164115  0.38764652  1
  O  O366  1  0.37801258  0.61488024  0.86892517  1
  O  O367  1  0.86422425  0.11103346  0.37684682  1
  O  O368  1  0.86049030  0.11890902  0.88276756  1
  O  O369  1  0.87176157  0.62082164  0.36417664  1
  O  O370  1  0.87377470  0.62226234  0.86754350  1
  O  O371  1  0.12481192  0.38580028  0.12764220  1
  O  O372  1  0.13051663  0.37852490  0.63352720  1
  O  O373  1  0.13608989  0.87097170  0.13659276  1
  O  O374  1  0.13791472  0.86985459  0.62825414  1
  O  O375  1  0.62831733  0.38607134  0.13025401  1
  O  O376  1  0.62822121  0.37667817  0.63523422  1
  O  O377  1  0.62995335  0.88233367  0.13166130  1
  O  O378  1  0.63287568  0.87814576  0.62539311  1
  O  O379  1  0.12083223  0.26174792  0.25050449  1
  O  O380  1  0.11570273  0.25809856  0.76112279  1
  O  O381  1  0.11640515  0.75590787  0.25242269  1
  O  O382  1  0.11971916  0.74557185  0.75412021  1
  O  O383  1  0.61216801  0.25654091  0.25368963  1
  O  O384  1  0.61630734  0.26327736  0.75650140  1
  O  O385  1  0.62156323  0.75863601  0.25646364  1
  O  O386  1  0.62499582  0.75698873  0.75218316  1
  O  O387  1  0.38606819  0.25592918  0.23830955  1
  O  O388  1  0.38237098  0.24883974  0.74417533  1
  O  O389  1  0.38166820  0.73823298  0.26191570  1
  O  O390  1  0.38395667  0.74376078  0.75100012  1
  O  O391  1  0.88460400  0.25978357  0.24392015  1
  O  O392  1  0.89191508  0.25860526  0.75721132  1
  O  O393  1  0.87906958  0.74368065  0.24487170  1
  O  O394  1  0.87055832  0.73656348  0.74054022  1
  O  O395  1  0.40022655  0.49288449  0.55194518  1
  O  O396  1  0.37548859  0.48597669  0.99171267  1
  O  O397  1  0.38116421  0.99523742  0.49442481  1
  O  O398  1  0.38424860  0.99497773  0.99151733  1
  O  O399  1  0.87728124  0.49408569  0.49003072  1
  O  O400  1  0.88379265  0.49664812  0.99797757  1
  O  O401  1  0.87536230  0.98548106  0.48635963  1
  O  O402  1  0.86438185  1.00047534  0.98582662  1
  O  O403  1  0.12203644  0.00716314  -0.00392710  1
  O  O404  1  0.11766012  0.00252038  0.50764445  1
  O  O405  1  0.11928669  0.50175075  0.01177674  1
  O  O406  1  0.12210252  0.50841344  0.50822178  1
  O  O407  1  0.61901433  0.00736756  0.00507556  1
  O  O408  1  0.61694332  0.00590020  0.50040260  1
  O  O409  1  0.63399918  0.49929596  0.01420710  1
  O  O410  1  0.61947308  0.51337104  0.49620962  1
  O  O411  1  0.38254727  0.36945861  0.10908806  1
  O  O412  1  0.35551361  0.36367279  0.63962840  1
  O  O413  1  0.36030980  0.87213245  0.12713976  1
  O  O414  1  0.36790825  0.86966416  0.61682611  1
  O  O415  1  0.86452897  0.38323405  0.11590813  1
  O  O416  1  0.86570276  0.38175086  0.61457225  1
  O  O417  1  0.86698197  0.86610125  0.12775463  1
  O  O418  1  0.87003973  0.86824611  0.61645639  1
  O  O419  1  0.13330239  0.12081005  0.37679133  1
  O  O420  1  0.12759424  0.13212207  0.88706964  1
  O  O421  1  0.13066485  0.62598018  0.38725847  1
  O  O422  1  0.12655969  0.63180948  0.88563374  1
  O  O423  1  0.62846037  0.13149090  0.38258404  1
  O  O424  1  0.63028171  0.13037356  0.88241366  1
  O  O425  1  0.62669152  0.63136123  0.38702082  1
  O  O426  1  0.63467559  0.63149552  0.87423845  1
