# generated using pymatgen
data_V85Zn86O256
_symmetry_space_group_name_H-M   'P 1'
_cell_length_a   17.00142593
_cell_length_b   16.98245187
_cell_length_c   16.98542722
_cell_angle_alpha   90.06975184
_cell_angle_beta   89.93872019
_cell_angle_gamma   90.00949413
_symmetry_Int_Tables_number   1
_chemical_formula_structural   V85Zn86O256
_chemical_formula_sum   'V85 Zn86 O256'
_cell_volume   4904.12621490
_cell_formula_units_Z   1
loop_
 _symmetry_equiv_pos_site_id
 _symmetry_equiv_pos_as_xyz
  1  'x, y, z'
loop_
 _atom_site_type_symbol
 _atom_site_label
 _atom_site_symmetry_multiplicity
 _atom_site_fract_x
 _atom_site_fract_y
 _atom_site_fract_z
 _atom_site_occupancy
  V  V0  1  0.37790711  0.50079889  0.87543995  1
  V  V1  1  0.24981943  0.37117487  0.61441531  1
  V  V2  1  -0.00080575  0.25091477  0.25767680  1
  V  V3  1  0.38287660  0.74780810  0.12623456  1
  V  V4  1  0.75379026  0.75563079  -0.00048941  1
  V  V5  1  0.12090380  0.62494984  -0.00163961  1
  V  V6  1  0.50302061  0.50163843  0.00797887  1
  V  V7  1  0.50349978  0.37628365  0.87539708  1
  V  V8  1  0.12196748  0.49963966  0.12633999  1
  V  V9  1  0.74366785  0.89200880  0.13490943  1
  V  V10  1  0.75143425  0.50007018  0.74986704  1
  V  V11  1  0.37288243  0.50462406  0.37443637  1
  V  V12  1  0.49769581  -0.00167515  0.50600768  1
  V  V13  1  0.24870016  0.51440352  0.25260009  1
  V  V14  1  0.87014641  0.75321757  0.12689218  1
  V  V15  1  0.86599760  0.00529050  0.37139272  1
  V  V16  1  0.12277379  0.00280234  0.62095696  1
  V  V17  1  0.50450486  0.25120201  0.24813337  1
  V  V18  1  0.06565447  0.20458851  0.81917700  1
  V  V19  1  -0.01131255  0.62362294  0.12720169  1
  V  V20  1  0.25115347  0.00238343  0.24404319  1
  V  V21  1  0.87401093  0.37471647  0.49654876  1
  V  V22  1  0.50132448  0.75482742  0.75404266  1
  V  V23  1  -0.00578525  0.13522966  0.12269927  1
  V  V24  1  0.63215717  0.63090013  0.49979426  1
  V  V25  1  0.24830214  0.74862870  -0.00299706  1
  V  V26  1  0.61690062  0.75843074  0.36305027  1
  V  V27  1  0.74642140  0.87890992  0.62788137  1
  V  V28  1  -0.00749135  0.74667210  0.25232533  1
  V  V29  1  -0.00012897  0.00959406  0.49961507  1
  V  V30  1  0.24693576  0.87534743  0.11706363  1
  V  V31  1  0.75192345  0.37205948  0.62301563  1
  V  V32  1  0.11525763  0.86360739  0.74927383  1
  V  V33  1  0.37700660  0.25122689  0.61489191  1
  V  V34  1  0.24104096  0.25195256  -0.00264527  1
  V  V35  1  0.25191632  0.49600881  0.75006285  1
  V  V36  1  0.73623122  0.37942654  0.13115370  1
  V  V37  1  0.34168967  0.04555248  0.41305613  1
  V  V38  1  0.11684814  0.12394423  0.00161435  1
  V  V39  1  0.75110763  0.24373018  0.49381143  1
  V  V40  1  0.88023640  0.75175231  0.62916071  1
  V  V41  1  0.37470619  0.12104085  0.24000044  1
  V  V42  1  -0.00435412  0.49542667  -0.00324257  1
  V  V43  1  0.11414051  0.37456517  0.75999329  1
  V  V44  1  0.62658924  0.12058846  0.50657660  1
  V  V45  1  0.87451543  0.36534146  0.00844686  1
  V  V46  1  0.77013178  0.00736362  0.75078041  1
  V  V47  1  0.24964469  0.86828272  0.62472315  1
  V  V48  1  0.12753923  0.62411660  0.49232897  1
  V  V49  1  0.76617588  0.12502569  0.87433294  1
  V  V50  1  0.51582950  0.12292860  0.11599191  1
  V  V51  1  0.37625308  0.62473940  0.75082869  1
  V  V52  1  0.87625694  0.51013903  0.36577129  1
  V  V53  1  0.51650138  -0.00140679  -0.00415569  1
  V  V54  1  0.50123923  0.49378086  0.49768320  1
  V  V55  1  -0.01130629  0.87324706  0.88510444  1
  V  V56  1  0.75159523  0.62589713  0.87522338  1
  V  V57  1  0.86607758  0.12922700  0.25005375  1
  V  V58  1  0.62827627  0.50112685  0.62494650  1
  V  V59  1  0.62146956  0.75681565  0.87464081  1
  V  V60  1  0.87457735  0.87602936  0.50080824  1
  V  V61  1  0.24669089  0.12995427  0.87405634  1
  V  V62  1  0.62620362  0.62360281  0.00511125  1
  V  V63  1  0.62468026  0.24855440  0.37354193  1
  V  V64  1  0.74681147  0.24768272  0.00366126  1
  V  V65  1  0.24808862  0.37922206  0.12515132  1
  V  V66  1  0.50065598  0.25137974  0.75009487  1
  V  V67  1  0.88691834  0.23920144  0.63450134  1
  V  V68  1  0.11155940  0.00183000  0.12136622  1
  V  V69  1  0.25112608  -0.00345758  0.75221203  1
  V  V70  1  0.12567431  0.49914336  0.62466803  1
  V  V71  1  0.62566058  0.24094812  0.87726778  1
  V  V72  1  0.62207217  0.88765948  0.75138676  1
  V  V73  1  0.88412570  0.62855494  0.75226342  1
  V  V74  1  0.37498146  0.12696579  0.75323191  1
  V  V75  1  0.37477865  -0.00544215  0.88012945  1
  V  V76  1  -0.00167824  0.87817072  0.37382012  1
  V  V77  1  0.37605834  0.74866300  0.62550046  1
  V  V78  1  0.37955867  0.86857981  0.48759195  1
  V  V79  1  0.37401252  0.25065932  0.12080564  1
  V  V80  1  0.25077521  0.74483818  0.48748116  1
  V  V81  1  0.50316358  0.62498216  0.62734553  1
  V  V82  1  -0.00075419  0.50075159  0.50306041  1
  V  V83  1  0.87458534  0.49073085  0.87553675  1
  V  V84  1  0.12136379  0.87693372  0.24818894  1
  Zn  Zn85  1  0.24753401  0.62424148  0.87357989  1
  Zn  Zn86  1  0.61580612  -0.11200043  0.24722931  1
  Zn  Zn87  1  0.69301252  0.07062789  0.31925198  1
  Zn  Zn88  1  0.87379236  0.89569206  0.00454287  1
  Zn  Zn89  1  0.37439016  0.37648639  -0.00238226  1
  Zn  Zn90  1  0.38467340  0.63341645  0.25936814  1
  Zn  Zn91  1  0.54739769  0.41017485  0.32510197  1
  Zn  Zn92  1  0.12422020  0.13135955  0.49775068  1
  Zn  Zn93  1  0.50641182  0.12190769  0.63023679  1
  Zn  Zn94  1  0.37749220  0.37180892  0.49104570  1
  Zn  Zn95  1  0.11850275  0.74621019  0.87066848  1
  Zn  Zn96  1  0.50784176  0.62616233  0.13324879  1
  Zn  Zn97  1  0.72601818  0.50374357  0.24174408  1
  Zn  Zn98  1  0.00536997  0.37355342  0.37769168  1
  Zn  Zn99  1  0.12730119  0.37335349  0.25645836  1
  Zn  Zn100  1  0.75931183  0.63390515  0.35874332  1
  Zn  Zn101  1  0.12578765  0.74656286  0.36947976  1
  Zn  Zn102  1  0.75121034  0.75270433  0.49759907  1
  Zn  Zn103  1  0.15764267  0.24985230  0.39591933  1
  Zn  Zn104  1  0.62879730  0.37470121  0.75116571  1
  Zn  Zn105  1  0.00450065  0.63231987  0.62925200  1
  Zn  Zn106  1  0.38314478  0.87282107  -0.00629067  1
  Zn  Zn107  1  0.20355828  0.20722570  0.22174195  1
  Zn  Zn108  1  0.18964326  0.18927253  0.67878426  1
  Zn  Zn109  1  0.18162763  0.68976266  0.18223536  1
  Zn  Zn110  1  0.18866190  0.68327681  0.68329966  1
  Zn  Zn111  1  0.68784594  0.19634277  0.18345780  1
  Zn  Zn112  1  0.69117876  0.18668852  0.68553495  1
  Zn  Zn113  1  0.68833705  0.69042353  0.19046740  1
  Zn  Zn114  1  0.69275307  0.69102510  0.68840650  1
  Zn  Zn115  1  0.32116265  0.32398539  0.30972489  1
  Zn  Zn116  1  0.31269970  0.31484370  0.81168956  1
  Zn  Zn117  1  0.31209254  0.81536262  0.30573373  1
  Zn  Zn118  1  0.30965153  0.81116921  0.81319862  1
  Zn  Zn119  1  0.81394030  0.31404997  0.31177866  1
  Zn  Zn120  1  0.81546775  0.30986491  0.81368044  1
  Zn  Zn121  1  0.80841569  0.81369852  0.31350195  1
  Zn  Zn122  1  0.81139567  0.81354708  0.81036497  1
  Zn  Zn123  1  0.18733386  0.43742436  0.43248833  1
  Zn  Zn124  1  0.18718243  0.43905167  0.93746339  1
  Zn  Zn125  1  0.18731266  0.93423128  0.43617667  1
  Zn  Zn126  1  0.18109922  0.93857103  0.93469045  1
  Zn  Zn127  1  0.68417060  0.44546769  0.42151943  1
  Zn  Zn128  1  0.68691649  0.43506688  0.93883821  1
  Zn  Zn129  1  0.68447183  0.93539883  0.44160495  1
  Zn  Zn130  1  0.69727996  0.93844193  0.93402652  1
  Zn  Zn131  1  0.30713095  0.06321373  0.05953369  1
  Zn  Zn132  1  0.31626032  0.05815141  0.58055910  1
  Zn  Zn133  1  0.31278415  0.56525262  0.06104182  1
  Zn  Zn134  1  0.31327851  0.56178855  0.56127306  1
  Zn  Zn135  1  0.80618468  0.06987856  0.06590290  1
  Zn  Zn136  1  0.81294902  0.06291001  0.56519220  1
  Zn  Zn137  1  0.80848282  0.56085137  0.06573830  1
  Zn  Zn138  1  0.81513943  0.56325450  0.56336754  1
  Zn  Zn139  1  0.43081823  0.44024309  0.18597722  1
  Zn  Zn140  1  0.43897085  0.43511837  0.68501330  1
  Zn  Zn141  1  0.43670152  0.93538818  0.17224148  1
  Zn  Zn142  1  0.43663274  0.93539491  0.68676410  1
  Zn  Zn143  1  0.93355170  0.43277237  0.18501535  1
  Zn  Zn144  1  0.93594559  0.43506696  0.68423550  1
  Zn  Zn145  1  0.93018763  0.94069878  0.18878817  1
  Zn  Zn146  1  0.94045021  0.93698941  0.68551429  1
  Zn  Zn147  1  0.06528512  0.07134772  0.31627691  1
  Zn  Zn148  1  0.06033177  0.04131028  0.80524202  1
  Zn  Zn149  1  0.05955973  0.56151734  0.31253431  1
  Zn  Zn150  1  0.06115882  0.55672048  0.81514444  1
  Zn  Zn151  1  0.51680889  -0.00227946  0.31069573  1
  Zn  Zn152  1  0.56151279  0.06510547  0.81754334  1
  Zn  Zn153  1  0.56685667  0.57620138  0.31430580  1
  Zn  Zn154  1  0.56562778  0.56529720  0.81526577  1
  Zn  Zn155  1  0.44540777  0.18612351  0.43407309  1
  Zn  Zn156  1  0.43516552  0.18563305  0.93874824  1
  Zn  Zn157  1  0.44266935  0.68261344  0.43785502  1
  Zn  Zn158  1  0.43849878  0.68681734  0.93868907  1
  Zn  Zn159  1  0.93543801  0.18713649  0.43755587  1
  Zn  Zn160  1  0.93830270  0.06307603  0.93434491  1
  Zn  Zn161  1  0.94017809  0.68914729  0.44247779  1
  Zn  Zn162  1  0.93732502  0.69073973  0.93584784  1
  Zn  Zn163  1  0.05984430  0.31147896  0.06382870  1
  Zn  Zn164  1  0.06532647  0.31018285  0.56017237  1
  Zn  Zn165  1  0.05947567  0.81067145  0.06113046  1
  Zn  Zn166  1  0.06203961  0.81273231  0.55914124  1
  Zn  Zn167  1  0.56315741  0.31305482  0.05998611  1
  Zn  Zn168  1  0.56697846  0.31125702  0.56321426  1
  Zn  Zn169  1  0.56665058  0.81840694  0.06066609  1
  Zn  Zn170  1  0.56238470  0.81523901  0.56498139  1
  O  O171  1  0.11342923  0.11777674  0.11658887  1
  O  O172  1  0.14037894  0.10625928  0.61691498  1
  O  O173  1  0.11215835  0.62076920  0.11358708  1
  O  O174  1  0.12284605  0.61623609  0.61717003  1
  O  O175  1  0.61338287  0.12984361  0.12241150  1
  O  O176  1  0.62407612  0.12769820  0.61276035  1
  O  O177  1  0.62412300  0.63742360  0.10782120  1
  O  O178  1  0.62419366  0.62141994  0.61953738  1
  O  O179  1  0.37873293  0.39183562  0.37633612  1
  O  O180  1  0.38345612  0.38366969  0.87639177  1
  O  O181  1  0.37286663  0.86391369  0.38850377  1
  O  O182  1  0.36842179  0.89005665  0.87407329  1
  O  O183  1  0.87732750  0.38374619  0.38644023  1
  O  O184  1  0.86686550  0.38707291  0.88578362  1
  O  O185  1  0.88090614  0.88342337  0.37819594  1
  O  O186  1  0.88651706  0.87085151  0.87675737  1
  O  O187  1  0.26546632  -0.00817394  0.36482160  1
  O  O188  1  0.25294069  0.00756372  0.86972409  1
  O  O189  1  0.25651607  0.49970967  0.36299597  1
  O  O190  1  0.25868838  0.50067212  0.86773913  1
  O  O191  1  0.76319825  0.00047422  0.38454885  1
  O  O192  1  0.74757314  0.01018883  0.85999795  1
  O  O193  1  0.77302558  0.50710026  0.38396347  1
  O  O194  1  0.75656296  0.50546305  0.87090899  1
  O  O195  1  0.24361103  0.49652011  0.12497261  1
  O  O196  1  0.24671907  0.49348129  0.63303178  1
  O  O197  1  0.23961353  0.99078296  0.12682395  1
  O  O198  1  0.24504057  0.98334559  0.63074521  1
  O  O199  1  0.74725289  0.48581579  0.12485823  1
  O  O200  1  0.74730360  0.49309169  0.62916214  1
  O  O201  1  0.74720351  0.99005033  0.12483780  1
  O  O202  1  0.75461277  0.99296608  0.64033919  1
  O  O203  1  -0.00554122  0.36114741  0.25018902  1
  O  O204  1  0.01587208  0.38405989  0.74836379  1
  O  O205  1  0.00037710  0.87087937  0.25834774  1
  O  O206  1  0.01233296  0.87822481  0.75648606  1
  O  O207  1  0.49478103  0.35841829  0.23929172  1
  O  O208  1  0.50257221  0.36843932  0.75769701  1
  O  O209  1  0.50072251  0.89915544  0.25285498  1
  O  O210  1  0.50950928  0.86616783  0.74314798  1
  O  O211  1  0.48917832  0.13255046  0.22822598  1
  O  O212  1  0.49388506  0.13383380  0.75082819  1
  O  O213  1  0.49733490  0.62272567  0.24425241  1
  O  O214  1  0.49685328  0.63267842  0.74603644  1
  O  O215  1  0.99327109  0.13510991  0.24301548  1
  O  O216  1  1.01729590  0.13695660  0.76264208  1
  O  O217  1  1.00488639  0.63477061  0.23891549  1
  O  O218  1  0.98787693  0.61782753  0.74946908  1
  O  O219  1  0.36344419  0.24992576  0.00808456  1
  O  O220  1  0.38580393  0.25193028  0.51126220  1
  O  O221  1  0.36497070  0.75290887  0.00302925  1
  O  O222  1  0.36938348  0.75001017  0.50594181  1
  O  O223  1  0.86427970  0.26702214  -0.00618989  1
  O  O224  1  0.86847479  0.25786616  0.50338711  1
  O  O225  1  0.86372556  0.75102921  0.00664746  1
  O  O226  1  0.87261271  0.75819616  0.50805846  1
  O  O227  1  0.13818615  0.24524162  0.50832232  1
  O  O228  1  0.13507024  0.24321977  1.00738310  1
  O  O229  1  0.13335214  0.74243282  0.49875364  1
  O  O230  1  0.12971477  0.74042730  0.99980558  1
  O  O231  1  0.63299435  0.24102387  0.50001346  1
  O  O232  1  0.63509399  0.25728932  0.98852334  1
  O  O233  1  0.62812882  0.73859402  0.50761509  1
  O  O234  1  0.63465938  0.74864094  0.99177096  1
  O  O235  1  0.49326482  0.24066036  0.12060258  1
  O  O236  1  0.49426706  0.25160432  0.63535106  1
  O  O237  1  0.48414292  0.75386580  0.11322536  1
  O  O238  1  0.49512672  0.74350723  0.63241882  1
  O  O239  1  0.99354168  0.23842949  0.12776962  1
  O  O240  1  0.98475154  0.25640078  0.62098391  1
  O  O241  1  0.98728421  0.74539637  0.12895822  1
  O  O242  1  0.98571600  0.75231145  0.62171387  1
  O  O243  1  -0.00359897  0.25137975  0.36202464  1
  O  O244  1  0.00487511  0.25534171  0.87226163  1
  O  O245  1  -0.00063873  0.75821940  0.36724710  1
  O  O246  1  0.00309423  0.76521688  0.87664265  1
  O  O247  1  0.50774265  0.24426759  0.35896811  1
  O  O248  1  0.50544012  0.25456029  0.87096025  1
  O  O249  1  0.51929994  0.74667902  0.38385393  1
  O  O250  1  0.51111662  0.74706627  0.86932971  1
  O  O251  1  0.28940216  0.10297326  0.47689376  1
  O  O252  1  0.23727036  0.13292409  0.99446793  1
  O  O253  1  0.24111796  0.63476072  0.50733635  1
  O  O254  1  0.23844146  0.63160461  0.99898064  1
  O  O255  1  0.74357294  0.13343778  0.50567680  1
  O  O256  1  0.75210328  0.14089006  0.99177669  1
  O  O257  1  0.73775429  0.62666907  0.50535267  1
  O  O258  1  0.74476065  0.63269004  0.99493097  1
  O  O259  1  0.24876777  0.36943539  0.00762505  1
  O  O260  1  0.25518989  0.38384550  0.51233108  1
  O  O261  1  0.24331815  0.86781184  0.00667257  1
  O  O262  1  0.25507883  0.86471461  0.50706065  1
  O  O263  1  0.75671624  0.37187488  0.00692004  1
  O  O264  1  0.75736226  0.37073673  0.50595812  1
  O  O265  1  0.75239496  0.86873754  0.00850512  1
  O  O266  1  0.75647436  0.87742067  0.51295940  1
  O  O267  1  0.12981199  0.49902914  0.24379662  1
  O  O268  1  0.13291465  0.49303915  0.74640506  1
  O  O269  1  0.13106361  0.99615207  0.24255314  1
  O  O270  1  0.13324273  0.98503165  0.73902331  1
  O  O271  1  0.63332928  0.48436967  0.30725285  1
  O  O272  1  0.63361755  0.50098305  0.74378409  1
  O  O273  1  0.62086761  1.00233903  0.27310209  1
  O  O274  1  0.62191200  0.98878033  0.75540650  1
  O  O275  1  0.36586706  0.00994381  0.23544223  1
  O  O276  1  0.36943941  0.00491717  0.75578671  1
  O  O277  1  0.36583684  0.50599808  0.25581468  1
  O  O278  1  0.36957285  0.50346335  0.75433933  1
  O  O279  1  0.87818076  0.01486320  0.26028417  1
  O  O280  1  0.86843903  0.00038614  0.75024988  1
  O  O281  1  0.88202628  0.49679777  0.26655469  1
  O  O282  1  0.87114132  0.50351616  0.75795624  1
  O  O283  1  0.12210451  0.36736509  0.37306477  1
  O  O284  1  0.12962559  0.37888319  0.85875055  1
  O  O285  1  0.11546760  0.87352420  0.36683946  1
  O  O286  1  0.11883040  0.87217904  0.86224585  1
  O  O287  1  0.62035135  0.35257006  0.39485227  1
  O  O288  1  0.61880164  0.36608807  0.87110465  1
  O  O289  1  0.62792104  0.85993397  0.37907677  1
  O  O290  1  0.63356428  0.86368111  0.86639446  1
  O  O291  1  0.37329042  0.13420928  0.12609972  1
  O  O292  1  0.37644835  0.13622917  0.63671183  1
  O  O293  1  0.37610879  0.64186563  0.11931379  1
  O  O294  1  0.38135461  0.62961086  0.63204998  1
  O  O295  1  0.88173613  0.11932885  0.14122627  1
  O  O296  1  0.87404809  0.14000030  0.62238927  1
  O  O297  1  0.88358256  0.63305216  0.11899014  1
  O  O298  1  0.87648676  0.63326494  0.63458389  1
  O  O299  1  0.25613963  0.26029796  0.12218115  1
  O  O300  1  0.26499556  0.26118655  0.63276376  1
  O  O301  1  0.25193350  0.75621465  0.11301872  1
  O  O302  1  0.25416289  0.75667611  0.61849475  1
  O  O303  1  0.74703106  0.26286373  0.11272910  1
  O  O304  1  0.75539746  0.25850760  0.61544141  1
  O  O305  1  0.76042373  0.75401037  0.11908049  1
  O  O306  1  0.76248065  0.76096725  0.62621901  1
  O  O307  1  0.24130239  0.25110554  0.32152174  1
  O  O308  1  0.25577362  0.24496459  0.88638184  1
  O  O309  1  0.24689951  0.75446977  0.38453478  1
  O  O310  1  0.24572652  0.74710267  0.88636376  1
  O  O311  1  0.74706751  0.25633770  0.38820475  1
  O  O312  1  0.74353148  0.24510431  0.87884574  1
  O  O313  1  0.74137635  0.74855253  0.37937428  1
  O  O314  1  0.74626825  0.74690997  0.88286785  1
  O  O315  1  0.00942437  0.12640066  0.00573544  1
  O  O316  1  -0.00158573  0.11172260  0.49925521  1
  O  O317  1  0.00298659  0.61854078  0.00565547  1
  O  O318  1  0.00851485  0.61833752  0.50586936  1
  O  O319  1  0.49789185  0.11881326  0.00893631  1
  O  O320  1  0.50808273  0.11988691  0.50623705  1
  O  O321  1  0.50934926  0.61793370  -0.00015721  1
  O  O322  1  0.51243952  0.61659998  0.50882513  1
  O  O323  1  0.50019183  0.39137763  0.51272055  1
  O  O324  1  0.49929124  0.38358110  0.99151210  1
  O  O325  1  0.48996093  0.88278188  0.50699407  1
  O  O326  1  0.49970322  0.89409256  1.00379335  1
  O  O327  1  0.99215054  0.38379896  0.50039338  1
  O  O328  1  0.98546610  0.38222178  1.00801036  1
  O  O329  1  0.99509978  0.87987977  0.48793514  1
  O  O330  1  0.99478870  0.87286350  0.98972085  1
  O  O331  1  0.49326524  0.49994523  0.38518569  1
  O  O332  1  0.49568986  0.49556326  0.87927339  1
  O  O333  1  0.45499925  1.01778762  0.40074716  1
  O  O334  1  0.48922545  1.00984390  0.88948962  1
  O  O335  1  0.99244311  0.49886987  0.38659897  1
  O  O336  1  0.99017196  0.50231102  0.88921964  1
  O  O337  1  0.99316027  0.99324706  0.38029917  1
  O  O338  1  1.00223421  0.98263069  0.87851285  1
  O  O339  1  0.00865433  0.00690009  0.13228896  1
  O  O340  1  0.01218383  -0.00907574  0.61385512  1
  O  O341  1  -0.00108516  0.50731407  0.11746386  1
  O  O342  1  0.00562073  0.50073661  0.61475363  1
  O  O343  1  0.49658542  0.01540436  0.10736546  1
  O  O344  1  0.48952052  0.00462004  0.61164111  1
  O  O345  1  0.49464990  0.50124439  0.11039777  1
  O  O346  1  0.50896650  0.50708161  0.62308058  1
  O  O347  1  0.25059902  0.39209783  0.23291848  1
  O  O348  1  0.24658578  0.38524115  0.74371607  1
  O  O349  1  0.24437394  0.88284538  0.23694883  1
  O  O350  1  0.24197980  0.87575672  0.74231692  1
  O  O351  1  0.75601713  0.37632369  0.23368616  1
  O  O352  1  0.75104361  0.38222577  0.74112035  1
  O  O353  1  0.75017883  0.87670913  0.23663949  1
  O  O354  1  0.74571777  0.88869564  0.74766018  1
  O  O355  1  0.25651435  0.10727788  0.23511747  1
  O  O356  1  0.25351291  0.11980192  0.75526834  1
  O  O357  1  0.24914362  0.61635633  0.23944323  1
  O  O358  1  0.25452911  0.61227462  0.75021510  1
  O  O359  1  0.76173274  0.13388210  0.24855697  1
  O  O360  1  0.74760248  0.11227940  0.75399309  1
  O  O361  1  0.74471468  0.61523585  0.24776672  1
  O  O362  1  0.75991009  0.61861146  0.75563619  1
  O  O363  1  0.37281764  0.13059305  0.35239687  1
  O  O364  1  0.36699316  0.11701251  0.87091065  1
  O  O365  1  0.37678523  0.61273665  0.37627429  1
  O  O366  1  0.37362157  0.61776245  0.86775377  1
  O  O367  1  0.87944992  0.11809024  0.36260497  1
  O  O368  1  0.86486395  0.13030735  0.87175640  1
  O  O369  1  0.87932827  0.61426234  0.37970760  1
  O  O370  1  0.87034555  0.61740336  0.87016807  1
  O  O371  1  0.13105489  0.38373825  0.12478488  1
  O  O372  1  0.13451123  0.38110949  0.63405601  1
  O  O373  1  0.12681014  0.88130218  0.12756995  1
  O  O374  1  0.13042167  0.87647637  0.63179850  1
  O  O375  1  0.63694238  0.37451109  0.12309918  1
  O  O376  1  0.63843151  0.38109810  0.62581954  1
  O  O377  1  0.64087248  0.87157439  0.12780210  1
  O  O378  1  0.63943288  0.86852767  0.63622561  1
  O  O379  1  0.10093146  0.25564066  0.23414500  1
  O  O380  1  0.12699012  0.26190580  0.74901274  1
  O  O381  1  0.11198895  0.75786891  0.24736038  1
  O  O382  1  0.13085814  0.76049066  0.74844761  1
  O  O383  1  0.61720067  0.24480701  0.25950583  1
  O  O384  1  0.61419036  0.25135720  0.75347455  1
  O  O385  1  0.62377528  0.75786999  0.26022193  1
  O  O386  1  0.62211696  0.75684066  0.75764966  1
  O  O387  1  0.38263198  0.24497060  0.23288568  1
  O  O388  1  0.38700295  0.24845628  0.74734331  1
  O  O389  1  0.36590315  0.74912693  0.23021167  1
  O  O390  1  0.38009412  0.74478167  0.74716837  1
  O  O391  1  0.88348180  0.23847749  0.25346586  1
  O  O392  1  0.87202911  0.25725921  0.73276345  1
  O  O393  1  0.88518724  0.75526623  0.24297258  1
  O  O394  1  0.87047645  0.73948079  0.74405635  1
  O  O395  1  0.38469418  0.50129887  0.49451403  1
  O  O396  1  0.38307653  0.50215529  0.99076476  1
  O  O397  1  0.37087046  0.98326500  0.50554295  1
  O  O398  1  0.37401349  0.99817521  0.99134374  1
  O  O399  1  0.88445734  0.49437058  0.49877950  1
  O  O400  1  0.87879440  0.49407642  0.99417798  1
  O  O401  1  0.88277147  0.99474967  0.49590320  1
  O  O402  1  0.86788326  1.00684283  0.99839987  1
  O  O403  1  0.12981643  0.01116832  0.00964217  1
  O  O404  1  0.11804196  -0.00374441  0.50525218  1
  O  O405  1  0.11454089  0.50467365  0.00383128  1
  O  O406  1  0.11960015  0.50559977  0.50358076  1
  O  O407  1  0.61444049  0.00056065  -0.01159119  1
  O  O408  1  0.60873278  0.00718076  0.49058854  1
  O  O409  1  0.61603055  0.51231182  -0.01014987  1
  O  O410  1  0.62092417  0.51173955  0.50301095  1
  O  O411  1  0.36629917  0.36927123  0.11796251  1
  O  O412  1  0.36823102  0.36731140  0.62360049  1
  O  O413  1  0.36245947  0.86499166  0.11558273  1
  O  O414  1  0.36536020  0.86524931  0.62105657  1
  O  O415  1  0.86425638  0.37815935  0.11109914  1
  O  O416  1  0.86576099  0.37342415  0.61432121  1
  O  O417  1  0.86553392  0.86946787  0.12347584  1
  O  O418  1  0.86790177  0.86994679  0.62352314  1
  O  O419  1  0.12563168  0.13352390  0.38412969  1
  O  O420  1  0.12512250  0.13121042  0.87981996  1
  O  O421  1  0.11954795  0.62698201  0.38830982  1
  O  O422  1  0.12381405  0.62452869  0.88585369  1
  O  O423  1  0.63274979  0.14025705  0.39199649  1
  O  O424  1  0.63296302  0.13867739  0.86967420  1
  O  O425  1  0.63106630  0.63994609  0.39045606  1
  O  O426  1  0.63315023  0.63721910  0.88148274  1
