# generated using pymatgen
data_V85Zn86O256
_symmetry_space_group_name_H-M   'P 1'
_cell_length_a   16.92440015
_cell_length_b   16.92919059
_cell_length_c   16.93176221
_cell_angle_alpha   90.08487911
_cell_angle_beta   90.06601601
_cell_angle_gamma   89.97628261
_symmetry_Int_Tables_number   1
_chemical_formula_structural   V85Zn86O256
_chemical_formula_sum   'V85 Zn86 O256'
_cell_volume   4851.21852842
_cell_formula_units_Z   1
loop_
 _symmetry_equiv_pos_site_id
 _symmetry_equiv_pos_as_xyz
  1  'x, y, z'
loop_
 _atom_site_type_symbol
 _atom_site_label
 _atom_site_symmetry_multiplicity
 _atom_site_fract_x
 _atom_site_fract_y
 _atom_site_fract_z
 _atom_site_occupancy
  V  V0  1  0.12317821  0.87753037  0.75281860  1
  V  V1  1  0.74938626  0.51165461  0.74446417  1
  V  V2  1  0.87149634  0.24940394  0.11557025  1
  V  V3  1  0.63349369  0.12005612  -0.00666323  1
  V  V4  1  0.62239515  0.24740084  0.36673185  1
  V  V5  1  0.62132108  -0.00275182  0.62151719  1
  V  V6  1  0.24758890  0.12196803  0.36476751  1
  V  V7  1  0.62492891  0.62283328  0.50164458  1
  V  V8  1  0.24476340  0.49031104  0.24659803  1
  V  V9  1  -0.01288713  0.63037326  0.62700151  1
  V  V10  1  0.88261429  -0.00625412  0.37636488  1
  V  V11  1  0.62662279  0.74268999  0.87419618  1
  V  V12  1  0.37821266  0.87925789  0.49764620  1
  V  V13  1  0.74894551  0.25819415  0.50481918  1
  V  V14  1  0.75705843  0.86781368  0.12272146  1
  V  V15  1  0.11385144  0.50203118  0.62168430  1
  V  V16  1  0.75214832  0.12411502  0.37759646  1
  V  V17  1  0.62505738  0.74886042  0.37644546  1
  V  V18  1  0.49824767  0.36178342  0.86982385  1
  V  V19  1  0.87735000  -0.00076372  0.87713592  1
  V  V20  1  -0.00536517  0.75729560  0.25162072  1
  V  V21  1  0.11730488  0.75759376  0.37758303  1
  V  V22  1  0.37565210  0.62547093  0.74810944  1
  V  V23  1  0.64448270  0.24830379  0.88070130  1
  V  V24  1  0.75615502  0.74197141  -0.00342042  1
  V  V25  1  0.49803502  0.12848443  0.63079265  1
  V  V26  1  0.37452615  0.37303636  0.50079770  1
  V  V27  1  0.37243390  0.50432593  0.37518126  1
  V  V28  1  0.62087282  0.62593911  0.00676410  1
  V  V29  1  0.61974213  -0.00068702  0.11897749  1
  V  V30  1  -0.00388899  0.12360506  0.62417728  1
  V  V31  1  0.87407383  0.62692893  0.24695451  1
  V  V32  1  -0.00266142  0.63046336  0.12475218  1
  V  V33  1  0.12333256  0.12654513  0.00440032  1
  V  V34  1  0.26117057  0.74725590  0.01599852  1
  V  V35  1  0.49694421  0.36857687  0.36526487  1
  V  V36  1  0.36881797  0.37097514  0.00454182  1
  V  V37  1  0.12572452  0.12426097  0.49819643  1
  V  V38  1  0.86905744  0.12517505  0.75330346  1
  V  V39  1  0.11895070  0.62394551  0.50021635  1
  V  V40  1  0.88207050  0.86982014  -0.00068948  1
  V  V41  1  0.63017841  0.36691717  0.74326285  1
  V  V42  1  0.75377744  0.74886443  0.50966193  1
  V  V43  1  0.49986182  0.74326073  0.24006030  1
  V  V44  1  -0.00470705  0.49823973  -0.00285238  1
  V  V45  1  0.88816208  0.49064137  0.37422911  1
  V  V46  1  0.74594675  0.37249387  0.11481152  1
  V  V47  1  0.24906024  0.75141032  0.49441246  1
  V  V48  1  0.37509898  0.74980261  0.62371002  1
  V  V49  1  0.74820548  0.00116259  0.75574167  1
  V  V50  1  0.11980791  0.26343903  0.37258884  1
  V  V51  1  0.50079533  0.49884170  0.50111046  1
  V  V52  1  -0.00112619  0.26652311  0.25237837  1
  V  V53  1  0.12128716  0.37684330  0.74883568  1
  V  V54  1  0.37684151  0.50002839  0.87245673  1
  V  V55  1  0.37092365  0.00071174  0.37129861  1
  V  V56  1  0.12326088  0.25220792  0.87593720  1
  V  V57  1  0.24825720  0.37456312  0.62440225  1
  V  V58  1  0.87788215  0.12724053  0.25009329  1
  V  V59  1  0.12629125  0.00176945  0.62622804  1
  V  V60  1  0.62970937  0.87097992  0.24995318  1
  V  V61  1  0.88596537  0.37659947  0.50341486  1
  V  V62  1  0.49832619  0.50329521  0.00253287  1
  V  V63  1  0.12598382  0.76264901  0.87821564  1
  V  V64  1  0.62063667  0.87388910  0.75203406  1
  V  V65  1  0.74581624  0.49479737  0.24993032  1
  V  V66  1  0.75126839  0.62164345  0.37578327  1
  V  V67  1  0.25236368  0.12696051  0.87653405  1
  V  V68  1  0.13074644  0.87729211  0.25063174  1
  V  V69  1  0.86544960  0.51215753  0.87180224  1
  V  V70  1  0.88235093  0.86927884  0.50477121  1
  V  V71  1  0.12456918  0.48870657  0.12762279  1
  V  V72  1  0.75456552  -0.00341106  0.24741038  1
  V  V73  1  0.24760956  0.50203298  0.74853187  1
  V  V74  1  0.50358957  0.88142954  0.37810530  1
  V  V75  1  -0.01031157  0.75110735  0.75229543  1
  V  V76  1  0.37663930  0.62505715  0.23384666  1
  V  V77  1  0.00555082  -0.00547775  -0.00255731  1
  V  V78  1  -0.00208087  0.24945048  0.74915917  1
  V  V79  1  0.13561997  -0.00269990  0.13100960  1
  V  V80  1  0.49356978  0.87797434  0.88976200  1
  V  V81  1  0.26042334  0.00339085  0.74977771  1
  V  V82  1  0.24851323  0.62870058  0.87367691  1
  V  V83  1  0.12318462  0.62542368  0.00025515  1
  V  V84  1  0.62005104  0.12045352  0.49878595  1
  Zn  Zn85  1  0.24222332  0.26097047  0.01403301  1
  Zn  Zn86  1  -0.00494429  0.37848473  0.87148593  1
  Zn  Zn87  1  0.50023482  0.62257264  0.62673263  1
  Zn  Zn88  1  0.86758917  0.37063747  -0.00839405  1
  Zn  Zn89  1  0.24727072  0.62660652  0.37218851  1
  Zn  Zn90  1  0.62912247  0.49155232  0.62200723  1
  Zn  Zn91  1  0.00326859  -0.00590538  0.49675403  1
  Zn  Zn92  1  0.39129134  0.13113035  0.25042719  1
  Zn  Zn93  1  0.86794193  0.25498392  0.62790799  1
  Zn  Zn94  1  0.61863484  0.36737148  0.24165806  1
  Zn  Zn95  1  0.50282918  0.13988620  0.12407958  1
  Zn  Zn96  1  0.37322732  0.25285892  0.14526261  1
  Zn  Zn97  1  0.62040197  0.50080264  0.12674998  1
  Zn  Zn98  1  0.00134268  0.12525797  0.12754254  1
  Zn  Zn99  1  0.31620209  0.90376333  0.08034798  1
  Zn  Zn100  1  0.38687288  0.00328775  0.90510345  1
  Zn  Zn101  1  0.38063968  0.25338200  0.63181228  1
  Zn  Zn102  1  0.24932993  0.24933256  0.49948264  1
  Zn  Zn103  1  0.38584699  0.13504852  0.76549839  1
  Zn  Zn104  1  0.49766715  0.74957692  0.75131354  1
  Zn  Zn105  1  0.75348606  0.87172265  0.62905573  1
  Zn  Zn106  1  0.25119633  0.87693217  0.62512713  1
  Zn  Zn107  1  0.19007713  0.19558508  0.18842788  1
  Zn  Zn108  1  0.19027766  0.18873662  0.68882114  1
  Zn  Zn109  1  0.18354945  0.68070700  0.19248399  1
  Zn  Zn110  1  0.18565256  0.69057716  0.68559274  1
  Zn  Zn111  1  0.68962646  0.18393048  0.18349293  1
  Zn  Zn112  1  0.68577813  0.18736065  0.68741965  1
  Zn  Zn113  1  0.69020013  0.68736569  0.18480603  1
  Zn  Zn114  1  0.68524836  0.68561896  0.68634139  1
  Zn  Zn115  1  0.30675009  0.30913821  0.31404392  1
  Zn  Zn116  1  0.31198277  0.31097956  0.81180028  1
  Zn  Zn117  1  0.33529777  0.83442823  0.26626173  1
  Zn  Zn118  1  0.31132239  0.81431206  0.81465188  1
  Zn  Zn119  1  0.80951317  0.31236370  0.31163198  1
  Zn  Zn120  1  0.81317228  0.32037821  0.80964058  1
  Zn  Zn121  1  0.81405124  0.81002500  0.31912593  1
  Zn  Zn122  1  0.80963979  0.81716892  0.81795895  1
  Zn  Zn123  1  0.18652254  0.44161976  0.43854660  1
  Zn  Zn124  1  0.18474486  0.44107773  0.93535096  1
  Zn  Zn125  1  0.18791621  0.93536717  0.43504326  1
  Zn  Zn126  1  0.21073613  0.94514349  0.94856665  1
  Zn  Zn127  1  0.68779640  0.43346921  0.43326257  1
  Zn  Zn128  1  0.68478684  0.43938095  0.93268574  1
  Zn  Zn129  1  0.69444797  0.93647136  0.43855388  1
  Zn  Zn130  1  0.68980420  0.93347611  0.93596310  1
  Zn  Zn131  1  0.31001966  0.07621943  0.06737552  1
  Zn  Zn132  1  0.31263179  0.06111364  0.55812536  1
  Zn  Zn133  1  0.30869181  0.55854296  0.06078320  1
  Zn  Zn134  1  0.30773385  0.56291884  0.56166836  1
  Zn  Zn135  1  0.80894300  0.06265459  0.06030099  1
  Zn  Zn136  1  0.80890815  0.05949463  0.56379938  1
  Zn  Zn137  1  0.81051299  0.56142081  0.06310763  1
  Zn  Zn138  1  0.81186985  0.55462733  0.56113564  1
  Zn  Zn139  1  0.43535795  0.43914963  0.18414258  1
  Zn  Zn140  1  0.44096874  0.43529088  0.68878400  1
  Zn  Zn141  1  0.44830811  0.94829254  0.19600779  1
  Zn  Zn142  1  0.44066626  0.93928033  0.68606894  1
  Zn  Zn143  1  0.93231100  0.43935630  0.18202095  1
  Zn  Zn144  1  0.93258907  0.44010153  0.68725913  1
  Zn  Zn145  1  0.94160032  0.93875823  0.18163678  1
  Zn  Zn146  1  0.93917747  0.93527976  0.68711613  1
  Zn  Zn147  1  0.06100424  0.06510908  0.31197669  1
  Zn  Zn148  1  0.06216890  0.06187863  0.81449098  1
  Zn  Zn149  1  0.06341140  0.56591396  0.31164052  1
  Zn  Zn150  1  0.05877952  0.56823997  0.81223662  1
  Zn  Zn151  1  0.56507276  0.05854476  0.31081095  1
  Zn  Zn152  1  0.56289619  0.06184239  0.81723455  1
  Zn  Zn153  1  0.56065020  0.56022157  0.31333983  1
  Zn  Zn154  1  0.56316400  0.55968808  0.81346020  1
  Zn  Zn155  1  0.43738343  0.18689851  0.43875344  1
  Zn  Zn156  1  0.44395074  0.18757016  0.95027690  1
  Zn  Zn157  1  0.43901840  0.69048988  0.43319872  1
  Zn  Zn158  1  0.43882275  0.69000170  0.93731636  1
  Zn  Zn159  1  0.93874488  0.18938352  0.43775811  1
  Zn  Zn160  1  0.93825409  0.18342394  0.93498692  1
  Zn  Zn161  1  0.93711236  0.68462342  0.43636713  1
  Zn  Zn162  1  0.94031559  0.68812644  0.93182409  1
  Zn  Zn163  1  0.05483042  0.31244079  0.06380091  1
  Zn  Zn164  1  0.06020726  0.30948461  0.56127776  1
  Zn  Zn165  1  0.06642399  0.81252225  0.06554177  1
  Zn  Zn166  1  0.06193969  0.81215640  0.56900184  1
  Zn  Zn167  1  0.55907478  0.31187029  0.05735557  1
  Zn  Zn168  1  0.56278734  0.30827963  0.55802902  1
  Zn  Zn169  1  0.56550018  0.81289702  0.06290085  1
  Zn  Zn170  1  0.56145043  0.81096411  0.56376127  1
  O  O171  1  0.12358867  0.11962414  0.11922654  1
  O  O172  1  0.11802053  0.12236479  0.61949359  1
  O  O173  1  0.11427917  0.61670356  0.11987823  1
  O  O174  1  0.11843761  0.61945909  0.61965697  1
  O  O175  1  0.63025759  0.11436947  0.11480349  1
  O  O176  1  0.61778894  0.11820177  0.61993077  1
  O  O177  1  0.62933649  0.62215426  0.11102130  1
  O  O178  1  0.62150873  0.62103878  0.61199369  1
  O  O179  1  0.37828251  0.38463109  0.38314325  1
  O  O180  1  0.38162411  0.38298586  0.87500957  1
  O  O181  1  0.38312485  0.88038316  0.37599976  1
  O  O182  1  0.39061808  0.87654904  0.87089758  1
  O  O183  1  0.87250373  0.38538728  0.37933521  1
  O  O184  1  0.87743050  0.38754836  0.87619623  1
  O  O185  1  0.86993881  0.88286950  0.38918788  1
  O  O186  1  0.87293119  0.88892399  0.88627722  1
  O  O187  1  0.25858511  0.00883631  0.38260976  1
  O  O188  1  0.24299911  0.01661409  0.86392384  1
  O  O189  1  0.25506356  0.50409540  0.36657154  1
  O  O190  1  0.25395565  0.50883073  0.86707296  1
  O  O191  1  0.76049414  0.00430965  0.36744385  1
  O  O192  1  0.75749221  -0.00355315  0.86302445  1
  O  O193  1  0.75543345  0.50313077  0.36560726  1
  O  O194  1  0.75890379  0.49959324  0.86651556  1
  O  O195  1  0.23953201  0.50421555  0.13628790  1
  O  O196  1  0.23954959  0.49183383  0.62863882  1
  O  O197  1  0.23663444  0.99944039  0.12908945  1
  O  O198  1  0.24410792  1.00185171  0.63292380  1
  O  O199  1  0.74951723  0.49185692  0.13462155  1
  O  O200  1  0.74768912  0.49984229  0.63895983  1
  O  O201  1  0.74846497  0.98707326  0.12953505  1
  O  O202  1  0.73952515  0.99843165  0.63751647  1
  O  O203  1  -0.00802872  0.36590182  0.24787267  1
  O  O204  1  0.00429781  0.36836809  0.74730050  1
  O  O205  1  0.00027493  0.86025645  0.24470951  1
  O  O206  1  0.01410168  0.86738472  0.74696291  1
  O  O207  1  0.49951864  0.38421094  0.26253562  1
  O  O208  1  0.51625741  0.38373383  0.75980263  1
  O  O209  1  0.51279842  0.86679785  0.26090844  1
  O  O210  1  0.51125205  0.87398360  0.75319222  1
  O  O211  1  0.50575476  0.11271459  0.23704280  1
  O  O212  1  0.50052057  0.11792980  0.73555210  1
  O  O213  1  0.48731106  0.62732660  0.25456317  1
  O  O214  1  0.49016994  0.62566496  0.74819936  1
  O  O215  1  0.98691836  0.13159795  0.25003165  1
  O  O216  1  0.98978884  0.12750922  0.74422098  1
  O  O217  1  0.99284037  0.63143565  0.24281641  1
  O  O218  1  1.00238069  0.64159033  0.74284846  1
  O  O219  1  0.36940958  0.26757269  -0.01103220  1
  O  O220  1  0.37277295  0.26294753  0.50492996  1
  O  O221  1  0.36066748  0.74348655  0.00187080  1
  O  O222  1  0.36760760  0.75522675  0.50295832  1
  O  O223  1  0.88284877  0.24916459  0.01175339  1
  O  O224  1  0.86834047  0.26154814  0.49788318  1
  O  O225  1  0.86986691  0.75799596  -0.00962103  1
  O  O226  1  0.86871093  0.76074250  0.49366512  1
  O  O227  1  0.12199340  0.24178193  0.48946721  1
  O  O228  1  0.12102633  0.24574486  0.99347245  1
  O  O229  1  0.12936191  0.74814280  0.49686297  1
  O  O230  1  0.12583596  0.74235682  0.99286525  1
  O  O231  1  0.63276709  0.24310438  0.49009237  1
  O  O232  1  0.62802968  0.24603914  0.98492600  1
  O  O233  1  0.63180076  0.74165033  0.49681698  1
  O  O234  1  0.63214138  0.74402028  0.99379313  1
  O  O235  1  0.48674101  0.25549901  0.11739696  1
  O  O236  1  0.50255536  0.23266378  0.62176369  1
  O  O237  1  0.51040143  0.75078130  0.14115847  1
  O  O238  1  0.48629507  0.74604436  0.62539218  1
  O  O239  1  0.99075730  0.24729996  0.13497161  1
  O  O240  1  0.99697234  0.23786793  0.63033055  1
  O  O241  1  1.00343521  0.73658227  0.13168070  1
  O  O242  1  1.00394147  0.74423540  0.64137608  1
  O  O243  1  0.01128379  0.24654158  0.36832669  1
  O  O244  1  0.00884785  0.25083263  0.86869309  1
  O  O245  1  0.00597264  0.74314053  0.36436946  1
  O  O246  1  0.01250437  0.74656215  0.86231317  1
  O  O247  1  0.50907477  0.25843308  0.38340046  1
  O  O248  1  0.50406837  0.26022533  0.87598993  1
  O  O249  1  0.50841239  0.75668686  0.36794843  1
  O  O250  1  0.50704603  0.76089395  0.87224222  1
  O  O251  1  0.23670763  0.12784216  0.49891507  1
  O  O252  1  0.23566004  0.13295114  0.99205937  1
  O  O253  1  0.23689030  0.63260620  0.50014122  1
  O  O254  1  0.24326349  0.63064245  0.99376970  1
  O  O255  1  0.74297565  0.13028658  0.49465788  1
  O  O256  1  0.73577424  0.12890316  1.00242782  1
  O  O257  1  0.74474145  0.62788907  0.49679132  1
  O  O258  1  0.74559303  0.63698929  1.00331410  1
  O  O259  1  0.26438562  0.37900897  -0.01079276  1
  O  O260  1  0.25777513  0.37731892  0.50687638  1
  O  O261  1  0.24032924  0.85089940  0.00808202  1
  O  O262  1  0.25775014  0.86678205  0.50161522  1
  O  O263  1  0.74925017  0.38206860  0.01096238  1
  O  O264  1  0.75848712  0.36489716  0.49280393  1
  O  O265  1  0.75830237  0.86543657  0.00536331  1
  O  O266  1  0.75871266  0.86419833  0.50340432  1
  O  O267  1  0.13604730  0.50780245  0.24345420  1
  O  O268  1  0.12803687  0.49732475  0.74328788  1
  O  O269  1  0.11068413  0.98976269  0.24207804  1
  O  O270  1  0.13001592  0.99485959  0.74590456  1
  O  O271  1  0.63393718  0.49902735  0.24876075  1
  O  O272  1  0.63523719  0.49147799  0.75035196  1
  O  O273  1  0.63699750  0.98915181  0.24216200  1
  O  O274  1  0.63155423  0.99409669  0.74717221  1
  O  O275  1  0.37851190  0.00737180  0.26858730  1
  O  O276  1  0.36440274  0.00359185  0.74860319  1
  O  O277  1  0.36849765  0.50791282  0.25530018  1
  O  O278  1  0.36857488  0.50541947  0.75219866  1
  O  O279  1  0.87402561  0.00459580  0.25520982  1
  O  O280  1  0.87026519  0.00295979  0.75630668  1
  O  O281  1  0.86782547  0.50400671  0.25909370  1
  O  O282  1  0.86006881  0.49596843  0.75867474  1
  O  O283  1  0.12602734  0.36187044  0.38104499  1
  O  O284  1  0.12047756  0.36869735  0.86877765  1
  O  O285  1  0.11834366  0.86412431  0.37401894  1
  O  O286  1  0.13423730  0.86696004  0.87153564  1
  O  O287  1  0.61485485  0.36459090  0.37212399  1
  O  O288  1  0.62034434  0.36347838  0.86927706  1
  O  O289  1  0.62261482  0.87007286  0.37264290  1
  O  O290  1  0.61656037  0.86734284  0.86966152  1
  O  O291  1  0.38245077  0.12852907  0.12899377  1
  O  O292  1  0.39323479  0.12131707  0.61619463  1
  O  O293  1  0.37596936  0.61878109  0.13574080  1
  O  O294  1  0.37401055  0.63177131  0.62901392  1
  O  O295  1  0.87371544  0.13140763  0.13309196  1
  O  O296  1  0.88185380  0.12429423  0.63139078  1
  O  O297  1  0.88129659  0.61748397  0.13821581  1
  O  O298  1  0.88829638  0.61945079  0.61645069  1
  O  O299  1  0.25791257  0.25394101  0.12519196  1
  O  O300  1  0.24480783  0.26557730  0.62105588  1
  O  O301  1  0.24640431  0.73678099  0.11484277  1
  O  O302  1  0.25911406  0.75145553  0.61446598  1
  O  O303  1  0.76012454  0.26022438  0.13229978  1
  O  O304  1  0.75030049  0.24337657  0.60954757  1
  O  O305  1  0.74914312  0.76046307  0.11577901  1
  O  O306  1  0.74775424  0.74909316  0.61341537  1
  O  O307  1  0.23413768  0.24279687  0.37957247  1
  O  O308  1  0.23617577  0.24279058  0.87523057  1
  O  O309  1  0.23947164  0.74703741  0.38864173  1
  O  O310  1  0.24364552  0.74452089  0.88148607  1
  O  O311  1  0.74359572  0.24322748  0.38249003  1
  O  O312  1  0.74276827  0.25341446  0.87503699  1
  O  O313  1  0.74450815  0.74065462  0.38577779  1
  O  O314  1  0.73927282  0.75640536  0.88473532  1
  O  O315  1  0.01189160  0.11839600  0.00018647  1
  O  O316  1  0.00823622  0.12295887  0.50748118  1
  O  O317  1  0.00096604  0.61728457  0.00608987  1
  O  O318  1  0.01166201  0.63510331  0.51010915  1
  O  O319  1  0.52338818  0.12737731  0.00422103  1
  O  O320  1  0.51507508  0.12596090  0.50675273  1
  O  O321  1  0.50874678  0.61787296  -0.00593988  1
  O  O322  1  0.50757740  0.61650875  0.49766966  1
  O  O323  1  0.49318217  0.38058777  0.49357006  1
  O  O324  1  0.48926197  0.38354228  0.98688835  1
  O  O325  1  0.49031549  0.86405867  0.48996742  1
  O  O326  1  0.49998501  0.87074713  0.98882961  1
  O  O327  1  0.98514429  0.37083144  0.49774147  1
  O  O328  1  0.99544867  0.39015036  0.99871689  1
  O  O329  1  0.98680657  0.87386033  0.50458118  1
  O  O330  1  0.99346916  0.88055552  1.00372073  1
  O  O331  1  0.49276966  0.49218372  0.38466217  1
  O  O332  1  0.49416038  0.49327240  0.88211602  1
  O  O333  1  0.49790596  0.98636223  0.37739319  1
  O  O334  1  0.49949926  0.98531739  0.87611950  1
  O  O335  1  0.98646023  0.50251518  0.36993144  1
  O  O336  1  0.99054429  0.50210633  0.88055062  1
  O  O337  1  0.98614282  1.00406817  0.37778464  1
  O  O338  1  0.99509635  1.00192760  0.88826152  1
  O  O339  1  0.00565109  0.00484379  0.11114898  1
  O  O340  1  0.00595061  0.01078497  0.62482163  1
  O  O341  1  0.00216009  0.50921827  0.11804441  1
  O  O342  1  0.00923835  0.50989193  0.63325870  1
  O  O343  1  0.51913542  -0.00857545  0.11875914  1
  O  O344  1  0.51422747  0.00739837  0.62540393  1
  O  O345  1  0.50165444  0.49529215  0.10762751  1
  O  O346  1  0.50149643  0.49976154  0.61104929  1
  O  O347  1  0.25234657  0.39212290  0.25548824  1
  O  O348  1  0.24123185  0.38190196  0.74271359  1
  O  O349  1  0.22942342  0.87340109  0.26261315  1
  O  O350  1  0.24168720  0.88468699  0.74973180  1
  O  O351  1  0.74698186  0.38306812  0.24237979  1
  O  O352  1  0.73443577  0.38360041  0.75195104  1
  O  O353  1  0.74997990  0.87357015  0.24258240  1
  O  O354  1  0.73857941  0.88098033  0.74904645  1
  O  O355  1  0.24650276  0.12441287  0.26434582  1
  O  O356  1  0.25091819  0.11945907  0.75846586  1
  O  O357  1  0.26316238  0.61889847  0.25325649  1
  O  O358  1  0.25537700  0.62197488  0.75249501  1
  O  O359  1  0.76152258  0.11909410  0.25531299  1
  O  O360  1  0.76158939  0.11783772  0.74484753  1
  O  O361  1  0.75719287  0.61766566  0.25315821  1
  O  O362  1  0.74293625  0.61092343  0.75100841  1
  O  O363  1  0.36391726  0.11648645  0.38635515  1
  O  O364  1  0.36801681  0.12086131  0.88323428  1
  O  O365  1  0.37377813  0.61117059  0.37737270  1
  O  O366  1  0.36915969  0.62092088  0.86741572  1
  O  O367  1  0.87048010  0.11905960  0.37019745  1
  O  O368  1  0.87867155  0.11203932  0.86636580  1
  O  O369  1  0.87014171  0.61213716  0.36941020  1
  O  O370  1  0.87689534  0.61114722  0.87303507  1
  O  O371  1  0.11814421  0.38949719  0.12106913  1
  O  O372  1  0.12755376  0.38328312  0.62592743  1
  O  O373  1  0.11985835  0.88402202  0.13715608  1
  O  O374  1  0.12885531  0.88289962  0.63406775  1
  O  O375  1  0.63116474  0.37726797  0.12470145  1
  O  O376  1  0.61834724  0.37130280  0.63931237  1
  O  O377  1  0.63734567  0.87922921  0.12781057  1
  O  O378  1  0.62565144  0.88036171  0.63229185  1
  O  O379  1  0.11416470  0.24614285  0.26417679  1
  O  O380  1  0.11902368  0.25553879  0.75643911  1
  O  O381  1  0.11592960  0.75322001  0.25864870  1
  O  O382  1  0.12416747  0.76056465  0.75736802  1
  O  O383  1  0.63225899  0.24749849  0.26330419  1
  O  O384  1  0.63072978  0.25967206  0.76014025  1
  O  O385  1  0.62314516  0.75077153  0.25747636  1
  O  O386  1  0.62391863  0.75636761  0.75630083  1
  O  O387  1  0.37734334  0.24427364  0.26269119  1
  O  O388  1  0.36917031  0.24486013  0.74354577  1
  O  O389  1  0.38504337  0.73029895  0.25980488  1
  O  O390  1  0.37240209  0.74518755  0.74012777  1
  O  O391  1  0.87993653  0.24346272  0.24607837  1
  O  O392  1  0.87761754  0.24246090  0.74891567  1
  O  O393  1  0.88009111  0.73711287  0.25794713  1
  O  O394  1  0.89100027  0.76272106  0.75786701  1
  O  O395  1  0.37897133  0.49306631  0.49464738  1
  O  O396  1  0.37897111  0.49569519  0.99102987  1
  O  O397  1  0.37310497  0.98433395  0.49376073  1
  O  O398  1  0.32650651  0.98457687  0.99907080  1
  O  O399  1  0.87026042  0.48683821  0.48618316  1
  O  O400  1  0.87816315  0.50171290  0.98824366  1
  O  O401  1  0.87408336  0.98918128  0.49336005  1
  O  O402  1  0.88295489  0.99638071  0.99418675  1
  O  O403  1  0.12262560  0.00611351  0.00668289  1
  O  O404  1  0.12293038  0.00567076  0.50664391  1
  O  O405  1  0.11584468  0.50648942  0.00420186  1
  O  O406  1  0.12641644  0.51079237  0.50887200  1
  O  O407  1  0.63560321  0.00859848  0.00422991  1
  O  O408  1  0.63571554  0.00780374  0.50959828  1
  O  O409  1  0.61699538  0.50975566  -0.00449196  1
  O  O410  1  0.61854248  0.50348672  0.49900009  1
  O  O411  1  0.37366523  0.38202880  0.10597489  1
  O  O412  1  0.36644284  0.37785877  0.61839342  1
  O  O413  1  0.37596311  0.86857546  0.16377645  1
  O  O414  1  0.37543131  0.86854115  0.61611199  1
  O  O415  1  0.86612991  0.36703906  0.11960373  1
  O  O416  1  0.87621766  0.37554122  0.60868779  1
  O  O417  1  0.86946655  0.87871874  0.11102185  1
  O  O418  1  0.87131757  0.88091303  0.60992374  1
  O  O419  1  0.12950586  0.12642324  0.38336402  1
  O  O420  1  0.12876985  0.13343133  0.88131707  1
  O  O421  1  0.12425218  0.63543045  0.38361933  1
  O  O422  1  0.13107240  0.63307360  0.87994166  1
  O  O423  1  0.63059043  0.12691145  0.38211289  1
  O  O424  1  0.62535389  0.13775241  0.87929575  1
  O  O425  1  0.63019997  0.62621303  0.38523030  1
  O  O426  1  0.61997583  0.63820299  0.88155992  1
