# generated using pymatgen
data_V85Zn86O256
_symmetry_space_group_name_H-M   'P 1'
_cell_length_a   17.01289869
_cell_length_b   16.98904506
_cell_length_c   16.98972708
_cell_angle_alpha   90.03059080
_cell_angle_beta   90.04216813
_cell_angle_gamma   89.91416111
_symmetry_Int_Tables_number   1
_chemical_formula_structural   V85Zn86O256
_chemical_formula_sum   'V85 Zn86 O256'
_cell_volume   4910.58258897
_cell_formula_units_Z   1
loop_
 _symmetry_equiv_pos_site_id
 _symmetry_equiv_pos_as_xyz
  1  'x, y, z'
loop_
 _atom_site_type_symbol
 _atom_site_label
 _atom_site_symmetry_multiplicity
 _atom_site_fract_x
 _atom_site_fract_y
 _atom_site_fract_z
 _atom_site_occupancy
  V  V0  1  0.24926026  -0.00121134  0.24970931  1
  V  V1  1  0.00320262  0.12459251  0.62276823  1
  V  V2  1  0.51315859  0.01047536  0.50943384  1
  V  V3  1  0.12252334  0.75183506  0.87513550  1
  V  V4  1  0.87021406  0.50867664  0.37361152  1
  V  V5  1  0.37503293  0.12525027  0.25053554  1
  V  V6  1  0.00331114  0.38024892  0.88762598  1
  V  V7  1  0.49512230  0.12256330  0.12552755  1
  V  V8  1  -0.00049501  0.37685006  0.37037825  1
  V  V9  1  0.00297852  -0.00101527  0.50209164  1
  V  V10  1  0.61939304  0.75810026  0.87337572  1
  V  V11  1  0.12685322  0.87877692  0.74643398  1
  V  V12  1  0.63561372  0.49054954  0.62498667  1
  V  V13  1  -0.00281593  0.87979289  0.87401914  1
  V  V14  1  0.51042098  0.37761950  0.37345030  1
  V  V15  1  0.50233076  0.62477807  0.13261922  1
  V  V16  1  0.37535107  0.87360317  0.50047609  1
  V  V17  1  0.74645854  0.75051518  -0.00201905  1
  V  V18  1  0.62809357  0.48323958  0.12344309  1
  V  V19  1  0.24899752  0.87326348  0.12499785  1
  V  V20  1  0.87472306  0.75329800  0.62610231  1
  V  V21  1  0.24943000  0.74979285  0.50105551  1
  V  V22  1  0.12647977  0.49402956  0.62275584  1
  V  V23  1  0.37827509  0.87486997  -0.00395129  1
  V  V24  1  0.69619854  0.00763486  0.74913415  1
  V  V25  1  0.63024237  0.62710387  0.49704075  1
  V  V26  1  0.74269054  0.49296128  0.25383626  1
  V  V27  1  0.87497161  0.74837399  0.12498290  1
  V  V28  1  0.50539976  0.62300671  0.63313389  1
  V  V29  1  0.50276016  0.50185399  0.49924697  1
  V  V30  1  0.12453584  0.62502552  0.50044684  1
  V  V31  1  0.63004941  0.74777241  0.37063765  1
  V  V32  1  0.49626338  0.50040740  -0.00720097  1
  V  V33  1  -0.00066620  0.50031927  0.49859528  1
  V  V34  1  0.87374585  0.62565631  0.74913584  1
  V  V35  1  0.37501981  0.74697787  0.13071603  1
  V  V36  1  0.74767901  0.87501865  0.12231573  1
  V  V37  1  0.00468956  0.24001652  0.23961619  1
  V  V38  1  0.12143380  0.86754027  0.24842347  1
  V  V39  1  0.13998893  0.38513941  0.24717070  1
  V  V40  1  0.01131976  0.25330505  0.75040750  1
  V  V41  1  0.25412465  0.62328341  0.37478579  1
  V  V42  1  0.75155556  0.75015314  0.49618587  1
  V  V43  1  0.12143000  0.00135672  0.12581304  1
  V  V44  1  0.24779452  0.88262526  0.62608794  1
  V  V45  1  0.38327646  0.36597400  0.51035465  1
  V  V46  1  0.12696786  0.25181869  0.37406503  1
  V  V47  1  0.13403627  0.25285098  0.87567294  1
  V  V48  1  0.75380329  -0.00134178  0.24798235  1
  V  V49  1  0.87045959  0.36926035  0.50328820  1
  V  V50  1  0.37038389  0.26256137  0.13048459  1
  V  V51  1  0.62979745  0.13948399  -0.01242294  1
  V  V52  1  0.88733127  0.11647484  0.76118549  1
  V  V53  1  0.36573548  -0.00044600  0.86323460  1
  V  V54  1  0.74759030  0.62327580  0.87309452  1
  V  V55  1  0.50297855  0.87376327  0.37540666  1
  V  V56  1  0.25150145  0.62603133  0.87130742  1
  V  V57  1  0.50227778  0.76313787  0.75355604  1
  V  V58  1  0.24825971  0.25478484  0.00810008  1
  V  V59  1  0.24963199  0.25523443  0.50691468  1
  V  V60  1  0.36918957  0.38000200  -0.00819260  1
  V  V61  1  0.12213640  0.12900600  0.00973266  1
  V  V62  1  0.37826800  -0.00080889  0.37277023  1
  V  V63  1  -0.00429483  0.00614364  0.00463736  1
  V  V64  1  0.87450024  0.87820894  0.50000060  1
  V  V65  1  0.12638279  0.12079178  0.49738435  1
  V  V66  1  0.73942346  0.88160097  0.63380864  1
  V  V67  1  0.75716543  0.48986699  0.74416280  1
  V  V68  1  0.24702122  0.50435288  0.74803285  1
  V  V69  1  0.86414800  0.36019976  0.01049350  1
  V  V70  1  0.11537113  0.61583886  -0.00315069  1
  V  V71  1  0.37844041  0.61865093  0.75295523  1
  V  V72  1  0.87237460  0.87748425  -0.00206628  1
  V  V73  1  0.50599378  0.25352181  0.25399242  1
  V  V74  1  0.74567369  0.12781108  0.38689678  1
  V  V75  1  -0.00518869  0.61191580  0.12183798  1
  V  V76  1  0.37571597  0.74914869  0.62551781  1
  V  V77  1  0.87632499  0.50034795  0.88683577  1
  V  V78  1  0.83145976  0.17815192  0.19929473  1
  V  V79  1  0.49662962  -0.00275985  -0.01033533  1
  V  V80  1  0.87537913  0.00481365  0.37356170  1
  V  V81  1  0.62398861  0.62228556  -0.00064889  1
  V  V82  1  0.37551847  0.50188810  0.37189771  1
  V  V83  1  0.62186215  -0.00038208  0.12164526  1
  V  V84  1  0.24976325  0.75104115  -0.00191599  1
  Zn  Zn85  1  0.49386858  0.74538605  0.25510996  1
  Zn  Zn86  1  -0.00110878  0.87294652  0.37250562  1
  Zn  Zn87  1  0.74265928  0.24818019  0.51542325  1
  Zn  Zn88  1  -0.00462874  0.74775104  0.25113834  1
  Zn  Zn89  1  0.12214967  0.38278373  0.75227923  1
  Zn  Zn90  1  0.13739713  0.50067411  0.12735994  1
  Zn  Zn91  1  0.25206031  0.12634469  0.37349599  1
  Zn  Zn92  1  0.65925374  0.33024824  0.77622567  1
  Zn  Zn93  1  -0.00076639  0.62703534  0.62496499  1
  Zn  Zn94  1  0.24418370  0.11514306  0.86916370  1
  Zn  Zn95  1  -0.00211271  0.75125280  0.74960574  1
  Zn  Zn96  1  0.62326884  0.87205817  0.24708666  1
  Zn  Zn97  1  0.51431471  0.34525516  0.87308923  1
  Zn  Zn98  1  0.12132021  0.74922279  0.37427512  1
  Zn  Zn99  1  0.87036117  0.62540001  0.25180508  1
  Zn  Zn100  1  0.85474775  0.00361675  0.87226284  1
  Zn  Zn101  1  0.61980497  0.24525903  0.39061495  1
  Zn  Zn102  1  0.87898285  0.25457728  0.63224258  1
  Zn  Zn103  1  0.17511713  0.04921208  0.68083528  1
  Zn  Zn104  1  0.43851683  0.21209423  0.66690139  1
  Zn  Zn105  1  0.32223266  0.57447561  0.21300983  1
  Zn  Zn106  1  0.28623352  0.34599417  0.66363607  1
  Zn  Zn107  1  0.18745985  0.18832859  0.18976933  1
  Zn  Zn108  1  0.28495399  0.17498396  0.69378462  1
  Zn  Zn109  1  0.18726017  0.67640909  0.17960783  1
  Zn  Zn110  1  0.18454229  0.69053340  0.68549097  1
  Zn  Zn111  1  0.67050478  0.18573420  0.18807363  1
  Zn  Zn112  1  0.70846352  0.18793280  0.70076233  1
  Zn  Zn113  1  0.69192598  0.67980503  0.18861311  1
  Zn  Zn114  1  0.68704304  0.69066179  0.68767871  1
  Zn  Zn115  1  0.31777337  0.31534571  0.32135568  1
  Zn  Zn116  1  0.36085179  0.28327446  0.83153266  1
  Zn  Zn117  1  0.30960842  0.81099169  0.31328704  1
  Zn  Zn118  1  0.31598644  0.81473992  0.80877662  1
  Zn  Zn119  1  0.81138959  0.31785953  0.31683663  1
  Zn  Zn120  1  0.82800618  0.30669503  0.81709422  1
  Zn  Zn121  1  0.81229657  0.81602234  0.31095981  1
  Zn  Zn122  1  0.81054694  0.81306841  0.81362565  1
  Zn  Zn123  1  0.19196021  0.43745634  0.43639066  1
  Zn  Zn124  1  0.19493678  0.43751632  0.93608273  1
  Zn  Zn125  1  0.18786650  0.93541027  0.43291958  1
  Zn  Zn126  1  0.18435705  0.93645672  0.94061897  1
  Zn  Zn127  1  0.69000580  0.43638379  0.43802632  1
  Zn  Zn128  1  0.69257459  0.31482837  0.93597078  1
  Zn  Zn129  1  0.68805209  0.93606485  0.43864237  1
  Zn  Zn130  1  0.68212468  0.94487585  0.93099845  1
  Zn  Zn131  1  0.30870930  0.06436872  0.06113615  1
  Zn  Zn132  1  0.31353569  0.06077379  0.54890957  1
  Zn  Zn133  1  0.30896330  0.56509471  0.05092600  1
  Zn  Zn134  1  0.31721821  0.55624055  0.56441847  1
  Zn  Zn135  1  0.80795730  0.06562527  0.05650449  1
  Zn  Zn136  1  0.81231468  0.06179649  0.57324238  1
  Zn  Zn137  1  0.80582350  0.55812640  0.06501997  1
  Zn  Zn138  1  0.81500725  0.56566101  0.55927015  1
  Zn  Zn139  1  0.44487072  0.43649119  0.18704204  1
  Zn  Zn140  1  0.46253258  0.39733691  0.67107645  1
  Zn  Zn141  1  0.43830224  0.93243802  0.18683426  1
  Zn  Zn142  1  0.43691007  1.04294949  0.68618078  1
  Zn  Zn143  1  0.93729753  0.43563675  0.18999921  1
  Zn  Zn144  1  0.94291885  0.43937484  0.68733116  1
  Zn  Zn145  1  0.93594064  0.93741553  0.18556740  1
  Zn  Zn146  1  0.94242264  0.93639021  0.68379540  1
  Zn  Zn147  1  0.06362706  0.05984192  0.31454208  1
  Zn  Zn148  1  0.06504638  0.06560745  0.81991670  1
  Zn  Zn149  1  0.05926618  0.56601906  0.31145010  1
  Zn  Zn150  1  0.05721463  0.56458453  0.81160469  1
  Zn  Zn151  1  0.56479892  0.06040732  0.31257397  1
  Zn  Zn152  1  0.56282197  0.16938575  0.79192574  1
  Zn  Zn153  1  0.56735884  0.56266248  0.31114798  1
  Zn  Zn154  1  0.56854458  0.48148011  0.81381706  1
  Zn  Zn155  1  0.43998287  0.18669829  0.44181975  1
  Zn  Zn156  1  0.43125204  0.17525604  0.94311409  1
  Zn  Zn157  1  0.43945364  0.68530302  0.43796903  1
  Zn  Zn158  1  0.43903847  0.68470033  0.93721399  1
  Zn  Zn159  1  0.93811597  0.18690582  0.43029492  1
  Zn  Zn160  1  0.94465885  0.19172148  0.94047825  1
  Zn  Zn161  1  0.93960719  0.68948208  0.43661979  1
  Zn  Zn162  1  0.93590113  0.68917697  0.93788917  1
  Zn  Zn163  1  0.06366421  0.32059287  0.06745528  1
  Zn  Zn164  1  0.06232774  0.31246095  0.56007661  1
  Zn  Zn165  1  0.05893455  0.81121884  0.06127938  1
  Zn  Zn166  1  0.06167183  0.81330340  0.56107251  1
  Zn  Zn167  1  0.54968727  0.31225654  0.06072979  1
  Zn  Zn168  1  0.58544916  0.28018242  0.59878092  1
  Zn  Zn169  1  0.55997336  0.81100654  0.06131237  1
  Zn  Zn170  1  0.55983780  0.81402888  0.56222156  1
  O  O171  1  0.12860238  0.11924644  0.11692797  1
  O  O172  1  0.11545368  0.11855510  0.60641204  1
  O  O173  1  0.10588143  0.63551807  0.11032712  1
  O  O174  1  0.12148085  0.62284643  0.61231033  1
  O  O175  1  0.61086507  0.11896374  0.11755650  1
  O  O176  1  0.64543648  0.09457029  0.73026453  1
  O  O177  1  0.61872450  0.62415847  0.11559550  1
  O  O178  1  0.61992443  0.62601046  0.61355528  1
  O  O179  1  0.38560641  0.38350900  0.38792230  1
  O  O180  1  0.35773053  0.38053126  0.89247648  1
  O  O181  1  0.38239899  0.87916516  0.37787238  1
  O  O182  1  0.36811623  0.87933604  0.89039528  1
  O  O183  1  0.88369982  0.38394884  0.38272359  1
  O  O184  1  0.88505865  0.38240198  0.88505598  1
  O  O185  1  0.87284521  0.88811694  0.38153340  1
  O  O186  1  0.88143515  0.88028598  0.87848644  1
  O  O187  1  0.26102723  -0.00073989  0.36725789  1
  O  O188  1  0.26137370  -0.00546507  0.88265280  1
  O  O189  1  0.26248967  0.51072496  0.38192175  1
  O  O190  1  0.23961337  0.51922905  0.86535095  1
  O  O191  1  0.75338227  0.00724471  0.36674804  1
  O  O192  1  0.74068861  -0.00123608  0.84990263  1
  O  O193  1  0.75511765  0.49777817  0.36457372  1
  O  O194  1  0.76398403  0.51101133  0.85780642  1
  O  O195  1  0.23941877  0.55211091  0.13835347  1
  O  O196  1  0.23656894  0.51431748  0.63356265  1
  O  O197  1  0.24301601  0.99386661  0.13083004  1
  O  O198  1  0.24439878  0.98560916  0.61237245  1
  O  O199  1  0.73282489  0.49727547  0.12966262  1
  O  O200  1  0.74255232  0.50874526  0.62758327  1
  O  O201  1  0.74193918  0.99679635  0.12971693  1
  O  O202  1  0.74590042  0.99132636  0.64111358  1
  O  O203  1  0.00572823  0.36828047  0.26067867  1
  O  O204  1  0.00182567  0.36871239  0.75926631  1
  O  O205  1  0.00810351  0.87238817  0.24860674  1
  O  O206  1  0.00597505  0.87031267  0.75800324  1
  O  O207  1  0.49326538  0.36445508  0.26099125  1
  O  O208  1  0.49567146  0.40353711  0.77339406  1
  O  O209  1  0.50337010  0.87081730  0.26197295  1
  O  O210  1  0.49036990  0.85646413  0.74890526  1
  O  O211  1  0.49435965  0.12919167  0.24456940  1
  O  O212  1  0.47525690  0.13377410  0.73620390  1
  O  O213  1  0.50583016  0.62736777  0.23813922  1
  O  O214  1  0.49303424  0.62503922  0.73751588  1
  O  O215  1  1.01078157  0.14094543  0.25226188  1
  O  O216  1  1.00941671  0.13200428  0.74029090  1
  O  O217  1  0.99419626  0.62882770  0.23811623  1
  O  O218  1  0.98618222  0.63130390  0.74823077  1
  O  O219  1  0.36581104  0.25647113  0.01085321  1
  O  O220  1  0.36342675  0.25802461  0.49091210  1
  O  O221  1  0.37176788  0.75573183  0.00812744  1
  O  O222  1  0.36892104  0.75319481  0.50438056  1
  O  O223  1  0.87715577  0.26027198  -0.00204138  1
  O  O224  1  0.88036730  0.26468028  0.49430086  1
  O  O225  1  0.86518061  0.75670796  0.00395637  1
  O  O226  1  0.86766347  0.75555085  0.50489551  1
  O  O227  1  0.12849007  0.24509862  0.49024530  1
  O  O228  1  0.12955491  0.24710390  1.00112274  1
  O  O229  1  0.13226340  0.74226707  0.49942890  1
  O  O230  1  0.12794802  0.74685652  0.98850279  1
  O  O231  1  0.63110234  0.25013543  0.50244025  1
  O  O232  1  0.62192474  0.24486855  1.00304362  1
  O  O233  1  0.63144028  0.74561671  0.49138785  1
  O  O234  1  0.62833373  0.74113122  0.99840610  1
  O  O235  1  0.49095068  0.24213969  0.13447167  1
  O  O236  1  0.47291843  0.29966549  0.60650453  1
  O  O237  1  0.49188415  0.74315566  0.12820347  1
  O  O238  1  0.49812390  0.74293100  0.63362031  1
  O  O239  1  1.00527317  0.25420263  0.14153831  1
  O  O240  1  1.00342336  0.24281971  0.63272150  1
  O  O241  1  0.98305278  0.74681952  0.12178310  1
  O  O242  1  0.98521438  0.75084721  0.62342494  1
  O  O243  1  0.01138786  0.25728583  0.36905587  1
  O  O244  1  0.01481967  0.25964910  0.87197564  1
  O  O245  1  0.00288363  0.75414026  0.36972652  1
  O  O246  1  0.00520179  0.76346164  0.87695955  1
  O  O247  1  0.49814995  0.25915133  0.37080741  1
  O  O248  1  0.46803505  0.24432510  0.86387372  1
  O  O249  1  0.50864546  0.75558361  0.37468657  1
  O  O250  1  0.50532871  0.74208243  0.86171910  1
  O  O251  1  0.24033500  0.13256312  0.49263586  1
  O  O252  1  0.24086641  0.13773887  1.00113248  1
  O  O253  1  0.24470441  0.63122411  0.49506032  1
  O  O254  1  0.24153612  0.63524082  0.98636711  1
  O  O255  1  0.75717323  0.12055215  0.48825890  1
  O  O256  1  0.72799362  0.12112288  0.99888863  1
  O  O257  1  0.74366303  0.64084108  0.50452393  1
  O  O258  1  0.74138673  0.62917346  0.99643446  1
  O  O259  1  0.25159467  0.36439467  0.00676100  1
  O  O260  1  0.26215481  0.36556466  0.49267990  1
  O  O261  1  0.25423174  0.86826025  0.00773688  1
  O  O262  1  0.25188081  0.86631806  0.50333234  1
  O  O263  1  0.76491021  0.37236307  0.00250303  1
  O  O264  1  0.76842927  0.37326143  0.49400516  1
  O  O265  1  0.75396580  0.87381449  0.00315032  1
  O  O266  1  0.75636761  0.87006522  0.50895560  1
  O  O267  1  0.12399193  0.48731658  0.25546810  1
  O  O268  1  0.12775458  0.50861251  0.73857726  1
  O  O269  1  0.12768714  0.98999579  0.24480763  1
  O  O270  1  0.11453280  0.98230412  0.75319598  1
  O  O271  1  0.63317937  0.50063040  0.23902867  1
  O  O272  1  0.64235952  0.51157595  0.73272444  1
  O  O273  1  0.63376687  1.00127236  0.23693498  1
  O  O274  1  0.62062584  0.95116061  0.75821361  1
  O  O275  1  0.37253363  0.00162967  0.25744817  1
  O  O276  1  0.37229447  -0.01418943  0.76597036  1
  O  O277  1  0.38192035  0.49536300  0.26485108  1
  O  O278  1  0.36079757  0.51849726  0.74473138  1
  O  O279  1  0.86174074  -0.00708366  0.25639658  1
  O  O280  1  0.90247308  0.01229702  0.75851523  1
  O  O281  1  0.86901117  0.50019599  0.25915305  1
  O  O282  1  0.87248767  0.50964878  0.74921614  1
  O  O283  1  0.11939469  0.37045827  0.36871136  1
  O  O284  1  0.12048787  0.37083540  0.87747671  1
  O  O285  1  0.12346356  0.87142964  0.36211011  1
  O  O286  1  0.11886119  0.86791859  0.87087762  1
  O  O287  1  0.61289214  0.37497373  0.37891511  1
  O  O288  1  0.62149899  0.38629758  0.87033632  1
  O  O289  1  0.61846839  0.86596587  0.37367600  1
  O  O290  1  0.62248181  0.85553547  0.89195950  1
  O  O291  1  0.38288813  0.13046812  0.12953443  1
  O  O292  1  0.36252481  0.11890758  0.62883160  1
  O  O293  1  0.38390568  0.63189779  0.12578173  1
  O  O294  1  0.38522889  0.63015028  0.62862477  1
  O  O295  1  0.87635556  0.11861477  0.13348016  1
  O  O296  1  0.89528443  0.12076949  0.63199410  1
  O  O297  1  0.87978486  0.63151461  0.11984840  1
  O  O298  1  0.87551559  0.63561976  0.63091478  1
  O  O299  1  0.26038436  0.24557761  0.12167951  1
  O  O300  1  0.23628508  0.25434032  0.60812328  1
  O  O301  1  0.25703505  0.75118945  0.11716245  1
  O  O302  1  0.25369921  0.75232320  0.61387182  1
  O  O303  1  0.76648408  0.23448733  0.14948962  1
  O  O304  1  0.76945942  0.23923150  0.62403244  1
  O  O305  1  0.75718630  0.75344191  0.11840542  1
  O  O306  1  0.75968155  0.75804088  0.61867597  1
  O  O307  1  0.23741286  0.24943343  0.37786464  1
  O  O308  1  0.24154495  0.24919096  0.88648481  1
  O  O309  1  0.24927390  0.74625979  0.38928273  1
  O  O310  1  0.24080460  0.74562758  0.87657865  1
  O  O311  1  0.75301012  0.23368021  0.37443704  1
  O  O312  1  0.73115211  0.26151264  0.84266377  1
  O  O313  1  0.74313359  0.75826292  0.38538738  1
  O  O314  1  0.74261783  0.74393149  0.87918074  1
  O  O315  1  0.00832362  0.11647967  0.00102636  1
  O  O316  1  0.00509702  0.12047072  0.50243967  1
  O  O317  1  0.00557294  0.62671048  0.00434193  1
  O  O318  1  0.00894917  0.61859109  0.49950679  1
  O  O319  1  0.50318421  0.11643810  0.01117448  1
  O  O320  1  0.49765411  0.11042266  0.50107716  1
  O  O321  1  0.50502154  0.62315529  0.01348823  1
  O  O322  1  0.50768046  0.61820991  0.50851551  1
  O  O323  1  0.49544276  0.39385343  0.48984474  1
  O  O324  1  0.48805206  0.38294108  0.99163628  1
  O  O325  1  0.49488333  0.87615756  0.48784649  1
  O  O326  1  0.48842171  0.88424609  1.00927383  1
  O  O327  1  0.99773952  0.38055368  0.48641406  1
  O  O328  1  0.99823979  0.37474361  0.99000315  1
  O  O329  1  0.99447440  0.88337278  0.49703485  1
  O  O330  1  0.99133191  0.88084075  0.99363098  1
  O  O331  1  0.49865103  0.49793357  0.37994911  1
  O  O332  1  0.50102354  0.52444913  0.89647386  1
  O  O333  1  0.49539343  0.99186922  0.37811809  1
  O  O334  1  0.48040125  0.99817128  0.89060719  1
  O  O335  1  0.99254241  0.49389038  0.37801215  1
  O  O336  1  0.98918077  0.49137395  0.86822605  1
  O  O337  1  0.99044993  0.99899591  0.38153964  1
  O  O338  1  1.00800285  0.98744677  0.88928790  1
  O  O339  1  0.00469035  -0.00744005  0.11137329  1
  O  O340  1  0.00165548  0.00462057  0.60879956  1
  O  O341  1  0.00606286  0.51103509  0.12939001  1
  O  O342  1  0.00832878  0.50591216  0.61659143  1
  O  O343  1  0.50492700  0.00572471  0.12304505  1
  O  O344  1  0.49475473  -0.01288455  0.60557061  1
  O  O345  1  0.50998720  0.50714371  0.12286644  1
  O  O346  1  0.51689366  0.50631855  0.61601741  1
  O  O347  1  0.23765884  0.37326822  0.25826798  1
  O  O348  1  0.24050115  0.40028262  0.75365695  1
  O  O349  1  0.24255230  0.87946346  0.24413140  1
  O  O350  1  0.24076260  0.86719898  0.73764436  1
  O  O351  1  0.75751900  0.39214148  0.24885312  1
  O  O352  1  0.76385628  0.38905117  0.74414474  1
  O  O353  1  0.74423674  0.88283386  0.24147626  1
  O  O354  1  0.75651635  0.87237158  0.73376375  1
  O  O355  1  0.25631136  0.11694609  0.25229472  1
  O  O356  1  0.21828114  0.11731539  0.75772152  1
  O  O357  1  0.24720152  0.64098976  0.27235136  1
  O  O358  1  0.25434196  0.62712730  0.75472215  1
  O  O359  1  0.75814948  0.11948455  0.25480901  1
  O  O360  1  0.78892120  0.11641389  0.74817305  1
  O  O361  1  0.75635697  0.60301421  0.24175718  1
  O  O362  1  0.76181090  0.62547485  0.75174782  1
  O  O363  1  0.37589308  0.11512752  0.36837043  1
  O  O364  1  0.36265278  0.10348239  0.88215953  1
  O  O365  1  0.36813868  0.61697233  0.37905811  1
  O  O366  1  0.36233867  0.63405518  0.86609411  1
  O  O367  1  0.86645084  0.11145366  0.37633590  1
  O  O368  1  0.89468799  0.11932354  0.86569129  1
  O  O369  1  0.87778523  0.61162237  0.37713644  1
  O  O370  1  0.87126905  0.62027436  0.86818832  1
  O  O371  1  0.12665223  0.38255588  0.14186103  1
  O  O372  1  0.12108767  0.39025239  0.62465146  1
  O  O373  1  0.12973805  0.87915838  0.12853002  1
  O  O374  1  0.13285790  0.86470557  0.63550435  1
  O  O375  1  0.61522997  0.38576606  0.12206248  1
  O  O376  1  0.63133321  0.39309346  0.62165628  1
  O  O377  1  0.62913845  0.88290352  0.12419221  1
  O  O378  1  0.64296357  0.86586224  0.61929490  1
  O  O379  1  0.11937838  0.25991318  0.25535309  1
  O  O380  1  0.11846972  0.25859526  0.76237603  1
  O  O381  1  0.12576365  0.76092555  0.24446834  1
  O  O382  1  0.12084138  0.75565406  0.76144987  1
  O  O383  1  0.60832588  0.24629394  0.25944328  1
  O  O384  1  0.61062410  0.25047961  0.71254194  1
  O  O385  1  0.62926262  0.74717094  0.26267437  1
  O  O386  1  0.61170498  0.74522409  0.75807371  1
  O  O387  1  0.37984386  0.24521335  0.24684647  1
  O  O388  1  0.34584435  0.26734421  0.72358870  1
  O  O389  1  0.37388045  0.75562660  0.23542401  1
  O  O390  1  0.38388248  0.74090612  0.74474403  1
  O  O391  1  0.88956086  0.24481464  0.25924345  1
  O  O392  1  0.89910516  0.23769877  0.75378052  1
  O  O393  1  0.87122828  0.74751054  0.23911685  1
  O  O394  1  0.87454228  0.74471837  0.74205683  1
  O  O395  1  0.38832198  0.50139979  0.48963755  1
  O  O396  1  0.38292925  0.49070374  1.01165290  1
  O  O397  1  0.37988331  0.99181058  0.48397548  1
  O  O398  1  0.37998279  0.98993840  1.00676575  1
  O  O399  1  0.87950886  0.49300421  0.49333951  1
  O  O400  1  0.86925378  0.49921807  0.98795835  1
  O  O401  1  0.88122428  0.99688158  0.49463016  1
  O  O402  1  0.87976573  0.99768411  0.99379451  1
  O  O403  1  0.11838506  0.00849761  0.00686147  1
  O  O404  1  0.11507624  0.00936793  0.48474256  1
  O  O405  1  0.13320585  0.51442560  0.00270158  1
  O  O406  1  0.12233871  0.50646601  0.50414945  1
  O  O407  1  0.61439774  0.00464561  0.00784735  1
  O  O408  1  0.61188212  -0.00334491  0.49636992  1
  O  O409  1  0.61482407  0.50820303  0.01545682  1
  O  O410  1  0.62545446  0.50890024  0.50593363  1
  O  O411  1  0.38121810  0.36468703  0.12034186  1
  O  O412  1  0.36328251  0.40880112  0.60566035  1
  O  O413  1  0.36811801  0.86729601  0.11776582  1
  O  O414  1  0.36115726  0.86379776  0.61415132  1
  O  O415  1  0.88523989  0.38004865  0.10703973  1
  O  O416  1  0.88983128  0.37494073  0.60582029  1
  O  O417  1  0.86685957  0.86795284  0.11819770  1
  O  O418  1  0.86932338  0.87123752  0.61844737  1
  O  O419  1  0.12489340  0.13433895  0.38187146  1
  O  O420  1  0.12362858  0.13606168  0.89244403  1
  O  O421  1  0.13142804  0.62493495  0.38650084  1
  O  O422  1  0.12501659  0.63462928  0.87904267  1
  O  O423  1  0.64290444  0.12344993  0.36985491  1
  O  O424  1  0.61091146  0.12949282  0.89125470  1
  O  O425  1  0.62067228  0.63228149  0.38870215  1
  O  O426  1  0.63176982  0.63335497  0.89148767  1
