# generated using pymatgen
data_V85Zn86O256
_symmetry_space_group_name_H-M   'P 1'
_cell_length_a   16.97434627
_cell_length_b   16.95779866
_cell_length_c   16.96058324
_cell_angle_alpha   90.02619487
_cell_angle_beta   89.95846244
_cell_angle_gamma   90.04760195
_symmetry_Int_Tables_number   1
_chemical_formula_structural   V85Zn86O256
_chemical_formula_sum   'V85 Zn86 O256'
_cell_volume   4882.05879652
_cell_formula_units_Z   1
loop_
 _symmetry_equiv_pos_site_id
 _symmetry_equiv_pos_as_xyz
  1  'x, y, z'
loop_
 _atom_site_type_symbol
 _atom_site_label
 _atom_site_symmetry_multiplicity
 _atom_site_fract_x
 _atom_site_fract_y
 _atom_site_fract_z
 _atom_site_occupancy
  V  V0  1  -0.00768893  0.13409913  0.12874458  1
  V  V1  1  0.75126259  0.74927800  0.49157243  1
  V  V2  1  0.00161894  0.37704953  0.87180033  1
  V  V3  1  0.24054053  0.23926292  0.49420509  1
  V  V4  1  0.50660280  0.37158144  0.37024261  1
  V  V5  1  0.37690816  0.62547285  0.25446025  1
  V  V6  1  0.68215762  0.32178779  0.19412697  1
  V  V7  1  0.76120233  0.24853792  0.49984348  1
  V  V8  1  0.87288798  0.49903742  0.87589485  1
  V  V9  1  0.11864372  0.23496641  0.37032466  1
  V  V10  1  0.62480090  0.00475564  0.10086128  1
  V  V11  1  0.63656721  0.25228673  0.88317283  1
  V  V12  1  0.24970619  0.87917600  0.62990869  1
  V  V13  1  0.49935774  0.37796036  0.87240270  1
  V  V14  1  0.63568725  0.88739755  0.24091848  1
  V  V15  1  0.37057297  0.37833998  0.01118679  1
  V  V16  1  0.75967027  0.37007443  0.62559572  1
  V  V17  1  0.12179306  0.49558756  0.13122334  1
  V  V18  1  0.37248366  0.12340514  0.74849137  1
  V  V19  1  0.74606415  0.50360683  0.26381145  1
  V  V20  1  0.24283914  0.49541816  0.75124544  1
  V  V21  1  0.50076906  0.24408090  0.23967135  1
  V  V22  1  0.74905001  0.00369564  0.74878986  1
  V  V23  1  0.62944859  0.62445978  0.49164285  1
  V  V24  1  -0.00281262  0.12743528  0.61316133  1
  V  V25  1  0.00849689  0.39845935  0.36931544  1
  V  V26  1  0.00015295  0.62118311  0.62692191  1
  V  V27  1  0.37423790  0.62315303  0.74906986  1
  V  V28  1  0.24245841  0.49938021  0.25246313  1
  V  V29  1  0.87668779  0.75091997  0.62485861  1
  V  V30  1  0.87372790  0.87485959  0.01040213  1
  V  V31  1  0.63285697  0.37889449  0.74910951  1
  V  V32  1  0.25047520  0.25392621  -0.00028592  1
  V  V33  1  0.88909536  0.88047957  0.49729314  1
  V  V34  1  0.24490480  0.12622641  0.87328647  1
  V  V35  1  0.37344617  0.25007532  0.62381805  1
  V  V36  1  0.88503486  0.39158723  0.49589012  1
  V  V37  1  0.50100976  0.62488244  0.12622200  1
  V  V38  1  0.62531687  0.00187219  0.62417716  1
  V  V39  1  0.49938001  0.50170584  0.00125870  1
  V  V40  1  0.33076876  0.19312405  0.17369629  1
  V  V41  1  -0.00557023  0.62348087  0.12743523  1
  V  V42  1  0.86663226  0.62169032  0.26817719  1
  V  V43  1  0.13113312  0.75402840  0.87983722  1
  V  V44  1  0.86461033  0.36399450  0.00997467  1
  V  V45  1  0.63286438  0.49987512  0.62724524  1
  V  V46  1  0.50144149  0.75286997  0.24993860  1
  V  V47  1  0.63326807  0.49971889  0.12628719  1
  V  V48  1  0.12315793  0.25622636  0.86695450  1
  V  V49  1  0.87458983  0.00041509  0.87192705  1
  V  V50  1  0.74985841  0.11518612  0.37568844  1
  V  V51  1  0.25448197  0.62543745  0.38167663  1
  V  V52  1  0.36688981  0.85995311  -0.00342620  1
  V  V53  1  0.12209582  0.00678356  0.61713479  1
  V  V54  1  0.24760551  0.62561311  0.87857218  1
  V  V55  1  0.86644031  0.13250199  0.24863525  1
  V  V56  1  0.37680542  0.75226573  0.62657416  1
  V  V57  1  0.37491177  0.49768667  0.37686096  1
  V  V58  1  0.74896162  0.62296474  0.87250069  1
  V  V59  1  0.24286684  0.37256054  0.62656356  1
  V  V60  1  0.88749355  -0.00496708  0.36843794  1
  V  V61  1  0.12032520  0.13081769  0.00288476  1
  V  V62  1  0.12116263  0.62169548  0.50333658  1
  V  V63  1  0.50174544  0.25191260  0.74934246  1
  V  V64  1  0.50182977  0.87641796  0.37429621  1
  V  V65  1  0.11813988  0.49484246  0.62513159  1
  V  V66  1  0.87093880  0.62141354  0.75055132  1
  V  V67  1  0.00167039  0.87507385  0.87694090  1
  V  V68  1  0.62394696  0.87403709  0.74849450  1
  V  V69  1  0.50263723  0.12562042  0.62827608  1
  V  V70  1  0.37236327  0.49932404  0.87502769  1
  V  V71  1  0.50225177  0.87285434  0.88179799  1
  V  V72  1  0.75171328  0.87619208  0.62154039  1
  V  V73  1  0.12642121  0.62840214  0.00724916  1
  V  V74  1  0.49885588  0.00429660  0.49819063  1
  V  V75  1  -0.00176767  0.00367391  0.00105139  1
  V  V76  1  0.24960799  0.75036247  0.50067448  1
  V  V77  1  -0.00720057  0.24917239  0.74666131  1
  V  V78  1  0.38859014  0.01505501  0.89397909  1
  V  V79  1  0.86974583  0.74695856  0.12973603  1
  V  V80  1  0.37470890  0.37302936  0.50027933  1
  V  V81  1  0.00073366  0.75137312  0.75255126  1
  V  V82  1  0.74844439  0.75136819  0.00166683  1
  V  V83  1  0.50241165  0.62278125  0.62443567  1
  V  V84  1  0.36990858  0.01066720  0.35829048  1
  Zn  Zn85  1  0.37097590  0.74774096  0.12245908  1
  Zn  Zn86  1  0.10484286  0.76833018  0.38093368  1
  Zn  Zn87  1  0.49295217  0.09513179  0.06997954  1
  Zn  Zn88  1  0.00120714  0.25928438  0.24797011  1
  Zn  Zn89  1  0.50341010  0.74892141  0.74814157  1
  Zn  Zn90  1  0.87408630  0.12802502  0.74583093  1
  Zn  Zn91  1  0.24468144  0.37148407  0.13467115  1
  Zn  Zn92  1  0.24785171  -0.00013194  0.75687612  1
  Zn  Zn93  1  0.24239576  0.86493764  0.12239322  1
  Zn  Zn94  1  0.12351528  -0.00867526  0.12926945  1
  Zn  Zn95  1  0.75020601  0.12413506  0.88690249  1
  Zn  Zn96  1  -0.00225577  0.49696007  0.00201613  1
  Zn  Zn97  1  0.62634461  0.74861839  0.87373964  1
  Zn  Zn98  1  -0.00214085  0.76518899  0.25942158  1
  Zn  Zn99  1  0.50313318  0.49630873  0.50062005  1
  Zn  Zn100  1  0.62921302  0.74925211  0.36997841  1
  Zn  Zn101  1  0.62482182  0.62610888  -0.00215240  1
  Zn  Zn102  1  0.12684937  0.89623040  0.26295900  1
  Zn  Zn103  1  0.63070467  0.25012782  0.37395228  1
  Zn  Zn104  1  0.12459708  0.88069121  0.75418105  1
  Zn  Zn105  1  0.62703880  0.13050961  0.49961636  1
  Zn  Zn106  1  0.37652327  0.87846356  0.50008298  1
  Zn  Zn107  1  0.16045008  0.13328610  0.22140645  1
  Zn  Zn108  1  0.18253058  0.18770432  0.68607865  1
  Zn  Zn109  1  0.19596354  0.72884928  0.20278544  1
  Zn  Zn110  1  0.18758986  0.68809840  0.69111303  1
  Zn  Zn111  1  0.68506913  0.18240816  0.05785767  1
  Zn  Zn112  1  0.68938202  0.19033853  0.68912293  1
  Zn  Zn113  1  0.68669619  0.68724213  0.18844710  1
  Zn  Zn114  1  0.69144643  0.68878326  0.68325363  1
  Zn  Zn115  1  0.30787082  0.31378165  0.31686800  1
  Zn  Zn116  1  0.31152118  0.31357145  0.81217129  1
  Zn  Zn117  1  0.31315915  0.82272392  0.31404813  1
  Zn  Zn118  1  0.31396355  0.81380854  0.81443536  1
  Zn  Zn119  1  0.82095202  0.31263160  0.32261240  1
  Zn  Zn120  1  0.81557942  0.31789334  0.81130352  1
  Zn  Zn121  1  0.81413441  0.81497752  0.31288273  1
  Zn  Zn122  1  0.81280598  0.81399376  0.81398400  1
  Zn  Zn123  1  0.18320542  0.43572240  0.43872918  1
  Zn  Zn124  1  0.18337666  0.43988635  0.94256645  1
  Zn  Zn125  1  0.19196925  0.94024398  0.43953247  1
  Zn  Zn126  1  0.19806860  0.94871906  0.96047972  1
  Zn  Zn127  1  0.68880873  0.43437240  0.44380378  1
  Zn  Zn128  1  0.68952340  0.43957734  0.93945466  1
  Zn  Zn129  1  0.68695605  0.93714358  0.43591396  1
  Zn  Zn130  1  0.69219976  0.93283096  0.93445754  1
  Zn  Zn131  1  0.30578846  0.05587799  0.06123966  1
  Zn  Zn132  1  0.31275764  0.06007347  0.56118499  1
  Zn  Zn133  1  0.30811203  0.56865371  0.06681697  1
  Zn  Zn134  1  0.31204599  0.55959850  0.56525135  1
  Zn  Zn135  1  0.80843592  0.05761880  0.06888528  1
  Zn  Zn136  1  0.81786446  0.06198341  0.56011356  1
  Zn  Zn137  1  0.81174703  0.56090843  0.05969513  1
  Zn  Zn138  1  0.80980221  0.56218765  0.56342539  1
  Zn  Zn139  1  0.43958080  0.44003696  0.19177352  1
  Zn  Zn140  1  0.43819679  0.43852155  0.68597547  1
  Zn  Zn141  1  0.43882414  0.93719015  0.18143993  1
  Zn  Zn142  1  0.43915731  0.94013328  0.69346377  1
  Zn  Zn143  1  0.93275077  0.44039487  0.19137236  1
  Zn  Zn144  1  0.93508769  0.43518147  0.69152737  1
  Zn  Zn145  1  0.94463725  0.93887918  0.18958883  1
  Zn  Zn146  1  0.94130761  0.94022783  0.68538073  1
  Zn  Zn147  1  0.05471767  0.05662949  0.31601307  1
  Zn  Zn148  1  0.06263320  0.06411613  0.80825897  1
  Zn  Zn149  1  0.06821224  0.60709457  0.30729820  1
  Zn  Zn150  1  0.06174037  0.56317398  0.81349242  1
  Zn  Zn151  1  0.56383115  0.06443925  0.31140177  1
  Zn  Zn152  1  0.54567199  0.08053362  0.85666355  1
  Zn  Zn153  1  0.56372260  0.55729810  0.31230646  1
  Zn  Zn154  1  0.56397665  0.56176734  0.81049830  1
  Zn  Zn155  1  0.43748154  0.18768717  0.43497369  1
  Zn  Zn156  1  0.43294853  0.19977659  0.93377831  1
  Zn  Zn157  1  0.44184356  0.68967528  0.44065633  1
  Zn  Zn158  1  0.44284762  0.68531830  0.93230367  1
  Zn  Zn159  1  0.93577652  0.19078053  0.43378936  1
  Zn  Zn160  1  0.93043470  0.18818861  0.93513279  1
  Zn  Zn161  1  0.93360216  0.67981904  0.44423711  1
  Zn  Zn162  1  0.93919948  0.68720811  0.94036483  1
  Zn  Zn163  1  0.05675984  0.31596122  0.05951808  1
  Zn  Zn164  1  0.05882276  0.31133080  0.55882835  1
  Zn  Zn165  1  0.05867962  0.80969685  0.06810589  1
  Zn  Zn166  1  0.06709317  0.81277660  0.56640465  1
  Zn  Zn167  1  0.55486743  0.31680548  0.05972245  1
  Zn  Zn168  1  0.56724188  0.31050822  0.55957092  1
  Zn  Zn169  1  0.56325088  0.81432553  0.06416534  1
  Zn  Zn170  1  0.56332437  0.81261365  0.56055106  1
  O  O171  1  0.11567315  0.12491844  0.10953068  1
  O  O172  1  0.11565099  0.11443042  0.62823423  1
  O  O173  1  0.11209351  0.61777334  0.11736307  1
  O  O174  1  0.12175952  0.61783776  0.62186785  1
  O  O175  1  0.60663239  0.11123120  0.10276850  1
  O  O176  1  0.61925402  0.11990103  0.62622087  1
  O  O177  1  0.61415267  0.61832103  0.12424531  1
  O  O178  1  0.62187305  0.61667471  0.62266721  1
  O  O179  1  0.38174095  0.37681819  0.38430796  1
  O  O180  1  0.37820952  0.38369127  0.87926406  1
  O  O181  1  0.38977529  0.88137644  0.37835222  1
  O  O182  1  0.38417164  0.87970534  0.88040248  1
  O  O183  1  0.89034372  0.37878760  0.38790830  1
  O  O184  1  0.88063722  0.38501299  0.87863574  1
  O  O185  1  0.87140468  0.88585933  0.38412972  1
  O  O186  1  0.87998429  0.88356206  0.88377211  1
  O  O187  1  0.27410657  -0.00321204  0.38519841  1
  O  O188  1  0.26225258  0.01204598  0.87896233  1
  O  O189  1  0.25653479  0.50304239  0.37328674  1
  O  O190  1  0.25160625  0.50259073  0.86746182  1
  O  O191  1  0.76065372  0.01103060  0.38476225  1
  O  O192  1  0.75710450  -0.00040397  0.86513075  1
  O  O193  1  0.74123813  0.49540686  0.36205223  1
  O  O194  1  0.75688844  0.51466983  0.87764436  1
  O  O195  1  0.24022536  0.50329464  0.13623880  1
  O  O196  1  0.24353297  0.49160744  0.63331450  1
  O  O197  1  0.22976739  0.97839861  0.07970187  1
  O  O198  1  0.24440633  0.99413558  0.62933695  1
  O  O199  1  0.73590083  0.50506885  0.12725972  1
  O  O200  1  0.73887021  0.48949427  0.62226036  1
  O  O201  1  0.72500780  1.00083118  0.12195535  1
  O  O202  1  0.74668037  0.99533656  0.62913955  1
  O  O203  1  -0.00679422  0.37626290  0.26570936  1
  O  O204  1  -0.00372623  0.36711686  0.76249662  1
  O  O205  1  0.01004773  0.87731347  0.25300754  1
  O  O206  1  0.00039688  0.86822752  0.75800658  1
  O  O207  1  0.49173119  0.36796591  0.26525263  1
  O  O208  1  0.50663515  0.37111850  0.75359186  1
  O  O209  1  0.50525313  0.86708547  0.25565832  1
  O  O210  1  0.51030660  0.87067172  0.75298421  1
  O  O211  1  0.50573681  0.14545515  0.25362724  1
  O  O212  1  0.49094033  0.13366046  0.75124590  1
  O  O213  1  0.49769622  0.62974825  0.24566952  1
  O  O214  1  0.49381869  0.62506585  0.74160896  1
  O  O215  1  0.98957174  0.12695468  0.24261595  1
  O  O216  1  0.99786588  0.13457877  0.74332364  1
  O  O217  1  0.97827291  0.61316337  0.23447535  1
  O  O218  1  0.99003005  0.63154563  0.74774480  1
  O  O219  1  0.36428846  0.26690562  -0.00823663  1
  O  O220  1  0.36624981  0.25809950  0.50256055  1
  O  O221  1  0.38313740  0.75792159  -0.00289774  1
  O  O222  1  0.37108663  0.75116686  0.51427196  1
  O  O223  1  0.87554197  0.26500343  -0.00441925  1
  O  O224  1  0.86567410  0.26242543  0.49599333  1
  O  O225  1  0.87074181  0.75673243  0.00712955  1
  O  O226  1  0.86861399  0.75694086  0.50543878  1
  O  O227  1  0.13654086  0.25219348  0.49475240  1
  O  O228  1  0.12796984  0.24678878  0.99143259  1
  O  O229  1  0.13423709  0.74087701  0.50309093  1
  O  O230  1  0.11471057  0.73695618  0.99161168  1
  O  O231  1  0.64240469  0.25055920  0.49753464  1
  O  O232  1  0.62115557  0.25662662  0.98676604  1
  O  O233  1  0.63377975  0.74211544  0.50048111  1
  O  O234  1  0.63509416  0.74853480  0.99883803  1
  O  O235  1  0.49934493  0.25644438  0.13890260  1
  O  O236  1  0.49529526  0.24578972  0.62969069  1
  O  O237  1  0.49760702  0.74124457  0.13226341  1
  O  O238  1  0.49290039  0.74339872  0.62586385  1
  O  O239  1  1.00473606  0.23811391  0.12707694  1
  O  O240  1  1.00991651  0.23766397  0.63349646  1
  O  O241  1  0.98478057  0.74030831  0.12878861  1
  O  O242  1  0.99596089  0.74374407  0.63351233  1
  O  O243  1  0.01244493  0.25469871  0.37571565  1
  O  O244  1  0.00525553  0.25603099  0.86786749  1
  O  O245  1  0.00300373  0.71799266  0.36742718  1
  O  O246  1  0.00698486  0.75453600  0.87116074  1
  O  O247  1  0.50175900  0.25937344  0.36803121  1
  O  O248  1  0.51036807  0.26084845  0.86761579  1
  O  O249  1  0.50395497  0.75870902  0.36949052  1
  O  O250  1  0.50514482  0.75689038  0.86671567  1
  O  O251  1  0.25568144  0.14223446  0.50507629  1
  O  O252  1  0.23878370  0.13500275  0.99357795  1
  O  O253  1  0.24581978  0.63259919  0.50404630  1
  O  O254  1  0.23857299  0.61885754  0.99003112  1
  O  O255  1  0.75364343  0.13250438  0.49517945  1
  O  O256  1  0.76156705  0.12967779  0.99836672  1
  O  O257  1  0.74074235  0.63585886  0.50896974  1
  O  O258  1  0.74994014  0.63534953  0.99077422  1
  O  O259  1  0.25456427  0.37224480  0.00502661  1
  O  O260  1  0.25680643  0.36871914  0.50980905  1
  O  O261  1  0.26739034  0.85849100  -0.01856037  1
  O  O262  1  0.25535281  0.86695174  0.51536899  1
  O  O263  1  0.76512990  0.37993060  -0.00276577  1
  O  O264  1  0.76232734  0.37081242  0.50537554  1
  O  O265  1  0.76105121  0.86022995  -0.00767438  1
  O  O266  1  0.75494056  0.86769752  0.50541633  1
  O  O267  1  0.13433067  0.51651730  0.24262504  1
  O  O268  1  0.13717207  0.50493068  0.74412877  1
  O  O269  1  0.13194785  1.02152501  0.24278635  1
  O  O270  1  0.13018733  0.99876567  0.74267343  1
  O  O271  1  0.63566566  0.50023702  0.24277752  1
  O  O272  1  0.62193289  0.48697236  0.74328784  1
  O  O273  1  0.62260123  0.98794507  0.24976161  1
  O  O274  1  0.63528192  0.98774452  0.74362092  1
  O  O275  1  0.37624440  -0.00699816  0.25879705  1
  O  O276  1  0.37272480  0.01469745  0.75670263  1
  O  O277  1  0.37164596  0.50765638  0.25931185  1
  O  O278  1  0.36448086  0.50346674  0.75318742  1
  O  O279  1  0.87877630  0.00593260  0.26429164  1
  O  O280  1  0.86658984  -0.00471972  0.75703139  1
  O  O281  1  0.85299443  0.50738040  0.24336151  1
  O  O282  1  0.87802500  0.50973937  0.76282944  1
  O  O283  1  0.11020275  0.36859677  0.38234947  1
  O  O284  1  0.11584217  0.36775785  0.88042087  1
  O  O285  1  0.13028749  0.87560013  0.37738732  1
  O  O286  1  0.12056713  0.86711871  0.87903566  1
  O  O287  1  0.60844306  0.37505273  0.38382316  1
  O  O288  1  0.62276154  0.37148826  0.86772054  1
  O  O289  1  0.61493579  0.87532077  0.36629920  1
  O  O290  1  0.61922192  0.87223442  0.86492647  1
  O  O291  1  0.38230007  0.12802945  0.10861516  1
  O  O292  1  0.38035334  0.13064501  0.63191502  1
  O  O293  1  0.38833504  0.62103323  0.13346693  1
  O  O294  1  0.38174837  0.62978512  0.62907582  1
  O  O295  1  0.87837370  0.11754020  0.14202594  1
  O  O296  1  0.89274551  0.11574259  0.62917622  1
  O  O297  1  0.87748092  0.63192470  0.12485127  1
  O  O298  1  0.87933521  0.62749668  0.63326694  1
  O  O299  1  0.26156912  0.25240923  0.12191510  1
  O  O300  1  0.25111521  0.25660187  0.61744189  1
  O  O301  1  0.25792952  0.74440051  0.11492543  1
  O  O302  1  0.25600410  0.75545924  0.62048426  1
  O  O303  1  0.72966375  0.25739770  0.13747055  1
  O  O304  1  0.74879075  0.26276115  0.61903623  1
  O  O305  1  0.76060452  0.74371316  0.11636455  1
  O  O306  1  0.75943255  0.75769873  0.61756652  1
  O  O307  1  0.23641879  0.25579039  0.38674208  1
  O  O308  1  0.24021464  0.24738296  0.87734378  1
  O  O309  1  0.26089373  0.74473207  0.39441825  1
  O  O310  1  0.23678177  0.74207836  0.86591177  1
  O  O311  1  0.75163112  0.24031659  0.38266469  1
  O  O312  1  0.73787231  0.25539376  0.86960271  1
  O  O313  1  0.74814572  0.75360831  0.38789611  1
  O  O314  1  0.75185487  0.73946302  0.88114367  1
  O  O315  1  -0.00047557  0.12196159  0.00385776  1
  O  O316  1  -0.00404012  0.13314602  0.51474281  1
  O  O317  1  0.00305888  0.62183776  0.01112500  1
  O  O318  1  0.00960611  0.62518000  0.51514186  1
  O  O319  1  0.47942115  0.10011062  -0.04460410  1
  O  O320  1  0.50347245  0.12050651  0.50772432  1
  O  O321  1  0.50143659  0.61933528  0.00851190  1
  O  O322  1  0.50942250  0.62285245  0.50980154  1
  O  O323  1  0.49100301  0.37201993  0.49243267  1
  O  O324  1  0.48912894  0.38273824  0.99244209  1
  O  O325  1  0.50154891  0.88283715  0.49160664  1
  O  O326  1  0.49510996  0.86805196  0.98490853  1
  O  O327  1  0.99042739  0.37833881  0.49434376  1
  O  O328  1  0.99085359  0.37705500  0.98581471  1
  O  O329  1  0.98669044  0.86626936  0.50326884  1
  O  O330  1  0.99207268  0.88337523  0.99558273  1
  O  O331  1  0.49375404  0.48789894  0.37766313  1
  O  O332  1  0.49396376  0.49645664  0.87954829  1
  O  O333  1  0.49621706  0.99512938  0.38206618  1
  O  O334  1  0.48970585  0.98310171  0.85742262  1
  O  O335  1  1.01486963  0.49565444  0.36902736  1
  O  O336  1  0.99363178  0.49319488  0.87495494  1
  O  O337  1  0.98427025  1.00263441  0.38624165  1
  O  O338  1  0.99116313  0.99569118  0.87778074  1
  O  O339  1  -0.00056238  0.01307560  0.11363986  1
  O  O340  1  0.01326700  0.01042082  0.62797986  1
  O  O341  1  0.00512020  0.50532141  0.12404630  1
  O  O342  1  0.01217314  0.50409444  0.63789966  1
  O  O343  1  0.51522969  -0.00433439  0.12397493  1
  O  O344  1  0.50511982  0.00644406  0.62075381  1
  O  O345  1  0.50935081  0.50564960  0.12334397  1
  O  O346  1  0.51170066  0.50412380  0.62295388  1
  O  O347  1  0.25589851  0.39319477  0.25106956  1
  O  O348  1  0.25450423  0.38166760  0.73704455  1
  O  O349  1  0.23456556  0.84732251  0.24106391  1
  O  O350  1  0.25008602  0.87560107  0.74014016  1
  O  O351  1  0.75039872  0.37795459  0.25079281  1
  O  O352  1  0.74453622  0.37384794  0.73942097  1
  O  O353  1  0.73281295  0.87020539  0.25362135  1
  O  O354  1  0.74658266  0.88265993  0.74313576  1
  O  O355  1  0.27455262  0.13366001  0.22808403  1
  O  O356  1  0.25648821  0.12787286  0.75445422  1
  O  O357  1  0.26326661  0.61773143  0.26396960  1
  O  O358  1  0.25507923  0.61580348  0.75614698  1
  O  O359  1  0.76575821  0.12547311  0.26165368  1
  O  O360  1  0.75287472  0.11243194  0.74830624  1
  O  O361  1  0.75167526  0.61341986  0.25054347  1
  O  O362  1  0.76345462  0.63138574  0.75563305  1
  O  O363  1  0.38397822  0.10989969  0.37310816  1
  O  O364  1  0.36296396  0.12717402  0.86496520  1
  O  O365  1  0.37409310  0.61773664  0.37703529  1
  O  O366  1  0.36843305  0.61902439  0.86938965  1
  O  O367  1  0.87248277  0.11418847  0.36936298  1
  O  O368  1  0.87435833  0.11047862  0.86907360  1
  O  O369  1  0.86790811  0.62131254  0.36690325  1
  O  O370  1  0.87073150  0.62071967  0.86914187  1
  O  O371  1  0.12431906  0.39080359  0.12005960  1
  O  O372  1  0.13249143  0.38118932  0.62106156  1
  O  O373  1  0.12299160  0.87479389  0.12891708  1
  O  O374  1  0.13237627  0.88520723  0.62933539  1
  O  O375  1  0.62401793  0.38143012  0.12916528  1
  O  O376  1  0.63254332  0.38099557  0.63045121  1
  O  O377  1  0.62138670  0.88204030  0.13574722  1
  O  O378  1  0.63067732  0.88103492  0.62933525  1
  O  O379  1  0.12540479  0.23833197  0.26543700  1
  O  O380  1  0.11658467  0.24764008  0.76215923  1
  O  O381  1  0.11144337  0.71529699  0.26872433  1
  O  O382  1  0.11640903  0.75131941  0.75940224  1
  O  O383  1  0.61595062  0.26548054  0.25305899  1
  O  O384  1  0.62184577  0.26332546  0.75514772  1
  O  O385  1  0.61458093  0.75592290  0.24944709  1
  O  O386  1  0.62943467  0.76340919  0.74684165  1
  O  O387  1  0.38142623  0.25207246  0.24530419  1
  O  O388  1  0.37855271  0.24306786  0.74373430  1
  O  O389  1  0.38920836  0.74341272  0.25234689  1
  O  O390  1  0.37420568  0.74284777  0.73926540  1
  O  O391  1  0.88010294  0.23514485  0.25883146  1
  O  O392  1  0.88814177  0.24866129  0.75372163  1
  O  O393  1  0.87081820  0.74064038  0.24445272  1
  O  O394  1  0.88139045  0.74518701  0.74522092  1
  O  O395  1  0.37612609  0.48682019  0.49836012  1
  O  O396  1  0.37766789  0.49712971  0.99418081  1
  O  O397  1  0.39073391  0.99862096  0.50298922  1
  O  O398  1  0.37465276  0.98455470  0.99132912  1
  O  O399  1  0.87276225  0.49016056  0.50040291  1
  O  O400  1  0.87731485  0.49877333  0.98663317  1
  O  O401  1  0.87367235  0.98442065  0.49416259  1
  O  O402  1  0.88134780  0.99259549  0.99443032  1
  O  O403  1  0.10501080  0.01382767  -0.01371629  1
  O  O404  1  0.13313231  0.00078037  0.51906299  1
  O  O405  1  0.12063662  0.51189557  0.00833730  1
  O  O406  1  0.13420398  0.50770261  0.51734702  1
  O  O407  1  0.62117137  -0.01115218  0.00090283  1
  O  O408  1  0.61455583  0.00193774  0.50591782  1
  O  O409  1  0.61698732  0.50127737  0.00761629  1
  O  O410  1  0.62525820  0.50705536  0.50912234  1
  O  O411  1  0.37258070  0.38672002  0.11334167  1
  O  O412  1  0.36873731  0.36909577  0.61866471  1
  O  O413  1  0.37560433  0.87240267  0.10477790  1
  O  O414  1  0.37011750  0.86817915  0.62777676  1
  O  O415  1  0.88193351  0.38034283  0.10805849  1
  O  O416  1  0.86968580  0.38074727  0.61403559  1
  O  O417  1  0.87884568  0.86948883  0.11532726  1
  O  O418  1  0.87272193  0.87303123  0.61414992  1
  O  O419  1  0.11770797  0.13634318  0.38144739  1
  O  O420  1  0.12526636  0.13493891  0.88347162  1
  O  O421  1  0.14033731  0.61361589  0.39793919  1
  O  O422  1  0.12795644  0.63120270  0.88256626  1
  O  O423  1  0.63628044  0.12677038  0.37744835  1
  O  O424  1  0.63380265  0.14726308  0.86667408  1
  O  O425  1  0.61869915  0.62561579  0.38905648  1
  O  O426  1  0.63475984  0.62697933  0.87362406  1
