# generated using pymatgen
data_V85Zn86O256
_symmetry_space_group_name_H-M   'P 1'
_cell_length_a   16.93540437
_cell_length_b   16.95261239
_cell_length_c   16.94904031
_cell_angle_alpha   90.06447979
_cell_angle_beta   89.99735277
_cell_angle_gamma   90.02392975
_symmetry_Int_Tables_number   1
_chemical_formula_structural   V85Zn86O256
_chemical_formula_sum   'V85 Zn86 O256'
_cell_volume   4866.05487545
_cell_formula_units_Z   1
loop_
 _symmetry_equiv_pos_site_id
 _symmetry_equiv_pos_as_xyz
  1  'x, y, z'
loop_
 _atom_site_type_symbol
 _atom_site_label
 _atom_site_symmetry_multiplicity
 _atom_site_fract_x
 _atom_site_fract_y
 _atom_site_fract_z
 _atom_site_occupancy
  V  V0  1  0.87955277  0.74865648  0.12322590  1
  V  V1  1  0.63250587  0.62986360  0.50089275  1
  V  V2  1  0.85783101  0.50472601  0.87244460  1
  V  V3  1  0.87027110  0.87113375  0.49561715  1
  V  V4  1  0.25606250  0.75442375  0.50306239  1
  V  V5  1  0.35657442  0.12761697  0.74950248  1
  V  V6  1  0.37474803  -0.00568078  0.87480005  1
  V  V7  1  0.49820789  0.24589915  0.24509899  1
  V  V8  1  0.36426989  0.25107345  0.13030994  1
  V  V9  1  0.37024178  0.50320069  0.87676145  1
  V  V10  1  0.62071297  0.50476089  0.12526819  1
  V  V11  1  0.12362826  0.75703712  0.37137522  1
  V  V12  1  0.01535610  0.86560326  0.87294350  1
  V  V13  1  0.86292465  0.62235292  0.75023703  1
  V  V14  1  0.12532695  0.12471759  0.49656011  1
  V  V15  1  0.12598989  0.61946360  0.49830253  1
  V  V16  1  0.25563863  0.49884015  0.23797513  1
  V  V17  1  0.25290348  0.62222717  0.37342050  1
  V  V18  1  0.62097544  0.35894510  0.75539574  1
  V  V19  1  0.50040929  0.37507008  0.87617190  1
  V  V20  1  0.87689246  0.75078544  0.62208454  1
  V  V21  1  -0.00104760  0.25236689  0.75064158  1
  V  V22  1  0.69291916  0.03945532  0.19065080  1
  V  V23  1  0.50117407  0.13132093  0.63977911  1
  V  V24  1  0.87220803  0.25079405  0.62380325  1
  V  V25  1  0.37202706  0.62424358  0.75307550  1
  V  V26  1  -0.00025148  0.12621314  0.62301898  1
  V  V27  1  0.13050154  0.37617334  0.23935366  1
  V  V28  1  0.74900712  0.25150634  0.49825456  1
  V  V29  1  0.87088339  0.36635182  0.00178615  1
  V  V30  1  0.75357723  0.87179910  0.62356844  1
  V  V31  1  0.37386040  0.76260236  0.62272578  1
  V  V32  1  0.62502845  0.00023342  0.62339832  1
  V  V33  1  0.75192606  0.13718832  0.88926475  1
  V  V34  1  0.57796444  0.19288194  0.93953668  1
  V  V35  1  0.86829963  -0.00123257  0.36811643  1
  V  V36  1  0.50323933  0.65670309  0.12659418  1
  V  V37  1  0.25398375  0.49475178  0.74134540  1
  V  V38  1  0.50253896  0.87826201  0.87955771  1
  V  V39  1  0.00229642  0.62146724  0.62649301  1
  V  V40  1  -0.00252823  0.37852125  0.37253360  1
  V  V41  1  0.75344158  0.87500591  0.13352483  1
  V  V42  1  0.49241243  -0.00125300  0.50428594  1
  V  V43  1  0.12657722  0.24920861  0.88135445  1
  V  V44  1  0.12886168  0.63061574  -0.01819974  1
  V  V45  1  -0.00075399  0.50230558  -0.00464306  1
  V  V46  1  0.24437853  -0.00223232  0.25811648  1
  V  V47  1  0.13232076  -0.00443635  0.12591467  1
  V  V48  1  0.37162615  -0.00240278  0.37717682  1
  V  V49  1  0.50529483  0.49178623  0.49558035  1
  V  V50  1  0.25479207  0.74733455  -0.01833055  1
  V  V51  1  0.12764134  0.25088037  0.37163139  1
  V  V52  1  0.36327287  0.37989335  0.00671679  1
  V  V53  1  0.62247630  0.87403124  0.74858200  1
  V  V54  1  0.13116401  0.37302071  0.74310155  1
  V  V55  1  0.87472856  -0.00399086  0.87444457  1
  V  V56  1  0.63275470  0.74643136  0.87060263  1
  V  V57  1  0.62992739  0.62744678  -0.00314996  1
  V  V58  1  0.87737219  0.87309182  -0.00074781  1
  V  V59  1  0.87981047  0.62581910  0.25079133  1
  V  V60  1  0.62277062  0.12613530  0.50090988  1
  V  V61  1  0.38284454  0.64205373  0.24683057  1
  V  V62  1  0.74706128  0.12559110  0.36938251  1
  V  V63  1  0.62282052  0.86448157  0.25228824  1
  V  V64  1  0.61675401  0.38092263  0.25466002  1
  V  V65  1  0.75037487  0.50338047  0.25167205  1
  V  V66  1  0.24243040  0.11660494  0.89232647  1
  V  V67  1  0.01102889  0.00160911  -0.00180835  1
  V  V68  1  0.25240532  0.86047461  0.13630766  1
  V  V69  1  0.62704936  0.49910323  0.63736797  1
  V  V70  1  0.38244403  0.49544492  0.37087268  1
  V  V71  1  0.74927293  0.37744525  0.63210053  1
  V  V72  1  0.61748615  0.25647750  0.37557566  1
  V  V73  1  -0.00183169  0.37724550  0.87349568  1
  V  V74  1  0.49664753  0.62322577  0.62454892  1
  V  V75  1  0.87438242  0.12390257  0.24099710  1
  V  V76  1  -0.00659708  0.25219883  0.24377877  1
  V  V77  1  -0.00206060  0.00077423  0.49803093  1
  V  V78  1  0.00766858  0.62511437  0.12361818  1
  V  V79  1  0.75125319  0.74941078  -0.00299999  1
  V  V80  1  0.36924680  0.37394389  0.50377225  1
  V  V81  1  0.87239050  0.12627450  0.75159316  1
  V  V82  1  0.49870997  0.86760608  0.37839521  1
  V  V83  1  0.75196389  0.36787236  0.12263080  1
  V  V84  1  0.00814332  0.12678968  0.12057435  1
  Zn  Zn85  1  -0.00223927  0.49763874  0.49986573  1
  Zn  Zn86  1  0.24697377  0.25564893  0.50782344  1
  Zn  Zn87  1  0.87382239  0.37702156  0.49882340  1
  Zn  Zn88  1  0.37514503  0.26153735  0.64067110  1
  Zn  Zn89  1  0.54344663  0.03608192  0.05849887  1
  Zn  Zn90  1  0.38169673  0.11477480  0.24305455  1
  Zn  Zn91  1  0.63468850  0.75329977  0.38274196  1
  Zn  Zn92  1  0.37523312  0.87076778  0.00698765  1
  Zn  Zn93  1  0.12990632  0.49222713  0.61936733  1
  Zn  Zn94  1  0.13475045  0.49723611  0.11527841  1
  Zn  Zn95  1  0.15695864  0.01869820  0.66140765  1
  Zn  Zn96  1  0.00473796  0.88007772  0.36850342  1
  Zn  Zn97  1  0.00939502  0.75960745  0.24408469  1
  Zn  Zn98  1  0.49940818  0.74802445  0.74966107  1
  Zn  Zn99  1  0.49637057  0.50609408  0.00221929  1
  Zn  Zn100  1  0.75801528  0.63224345  0.38126059  1
  Zn  Zn101  1  0.87397330  0.50014534  0.37722549  1
  Zn  Zn102  1  0.75087006  -0.00096866  0.75204099  1
  Zn  Zn103  1  0.01188288  0.74425928  0.75566758  1
  Zn  Zn104  1  0.23982538  0.25310178  0.01092630  1
  Zn  Zn105  1  0.15938130  0.85145841  0.70521942  1
  Zn  Zn106  1  0.25600487  0.12916987  0.37255746  1
  Zn  Zn107  1  0.18907828  0.18272497  0.18970748  1
  Zn  Zn108  1  0.18932395  0.19751519  0.68341659  1
  Zn  Zn109  1  0.18809210  0.68180156  0.18924163  1
  Zn  Zn110  1  0.19081407  0.67933299  0.68742440  1
  Zn  Zn111  1  0.67372155  0.20012769  0.17219648  1
  Zn  Zn112  1  0.68990831  0.18597487  0.69064639  1
  Zn  Zn113  1  0.69025391  0.69010286  0.18842780  1
  Zn  Zn114  1  0.68921138  0.68963072  0.68147928  1
  Zn  Zn115  1  0.31288644  0.31729378  0.31413942  1
  Zn  Zn116  1  0.31146596  0.30989897  0.81810358  1
  Zn  Zn117  1  0.30872688  0.81757811  0.32214804  1
  Zn  Zn118  1  0.31163992  0.81253213  0.80672680  1
  Zn  Zn119  1  0.80965489  0.31321729  0.30814567  1
  Zn  Zn120  1  0.81087688  0.31636092  0.81344041  1
  Zn  Zn121  1  0.81222576  0.80736937  0.31252361  1
  Zn  Zn122  1  0.81543030  0.81078622  0.80701795  1
  Zn  Zn123  1  0.18905210  0.43823925  0.42903685  1
  Zn  Zn124  1  0.18772384  0.44115418  0.92970519  1
  Zn  Zn125  1  0.19183735  0.93583334  0.52377835  1
  Zn  Zn126  1  0.19315409  0.93455309  0.94071118  1
  Zn  Zn127  1  0.68962669  0.44049361  0.43966076  1
  Zn  Zn128  1  0.68420106  0.43522256  0.93988516  1
  Zn  Zn129  1  0.68761480  0.93888174  0.43617115  1
  Zn  Zn130  1  0.68986715  0.94189027  0.94027235  1
  Zn  Zn131  1  0.34938579  0.03989673  0.08276268  1
  Zn  Zn132  1  0.31525476  0.07885409  0.55755106  1
  Zn  Zn133  1  0.31886541  0.57634405  0.06232477  1
  Zn  Zn134  1  0.31498246  0.56088258  0.56111253  1
  Zn  Zn135  1  0.82400088  0.06565400  0.05690453  1
  Zn  Zn136  1  0.81142138  0.06036826  0.56059516  1
  Zn  Zn137  1  0.81223233  0.55954607  0.06344100  1
  Zn  Zn138  1  0.81443475  0.55716829  0.56549707  1
  Zn  Zn139  1  0.43822182  0.43852557  0.18624409  1
  Zn  Zn140  1  0.44327895  0.43678060  0.68964005  1
  Zn  Zn141  1  0.43600997  0.92761731  0.19329763  1
  Zn  Zn142  1  0.32748820  0.94461843  0.68344442  1
  Zn  Zn143  1  0.93820717  0.44024987  0.18341767  1
  Zn  Zn144  1  0.93615820  0.44031491  0.68850481  1
  Zn  Zn145  1  0.94258613  0.93786108  0.18889708  1
  Zn  Zn146  1  0.97678589  0.95146222  0.70120339  1
  Zn  Zn147  1  0.06189912  0.06151521  0.31106659  1
  Zn  Zn148  1  0.06315822  0.06386052  0.81646251  1
  Zn  Zn149  1  0.06654847  0.56119379  0.30913689  1
  Zn  Zn150  1  0.06068157  0.55983049  0.80653730  1
  Zn  Zn151  1  0.55606544  0.06309380  0.31764424  1
  Zn  Zn152  1  0.56118016  0.05589001  0.81103150  1
  Zn  Zn153  1  0.56091634  0.57093190  0.31235032  1
  Zn  Zn154  1  0.56015588  0.56106735  0.81528594  1
  Zn  Zn155  1  0.43970672  0.18673278  0.43537126  1
  Zn  Zn156  1  0.41573841  0.18785141  0.94261970  1
  Zn  Zn157  1  0.44009701  0.68309633  0.43945082  1
  Zn  Zn158  1  0.44412862  0.69152606  0.93659382  1
  Zn  Zn159  1  0.93616334  0.19035496  0.43166856  1
  Zn  Zn160  1  0.93957206  0.18671466  0.93862742  1
  Zn  Zn161  1  0.93934237  0.68663437  0.43894335  1
  Zn  Zn162  1  0.93655360  0.68462629  0.93435168  1
  Zn  Zn163  1  0.05740817  0.31491484  0.06221264  1
  Zn  Zn164  1  0.06018455  0.31149039  0.55975966  1
  Zn  Zn165  1  0.06918273  0.81276593  0.05934159  1
  Zn  Zn166  1  0.05881340  0.80852188  0.55629080  1
  Zn  Zn167  1  0.55265981  0.32267488  0.06792147  1
  Zn  Zn168  1  0.55905198  0.31267043  0.56456732  1
  Zn  Zn169  1  0.57807804  0.84766813  0.04968398  1
  Zn  Zn170  1  0.55701552  0.81380389  0.56481268  1
  O  O171  1  0.11598118  0.11333671  0.12911193  1
  O  O172  1  0.11775059  0.12620276  0.61593928  1
  O  O173  1  0.11603334  0.62094125  0.11885700  1
  O  O174  1  0.11912706  0.61809450  0.61484375  1
  O  O175  1  0.63168276  0.10113119  0.13213880  1
  O  O176  1  0.61973328  0.12271052  0.62204756  1
  O  O177  1  0.61900790  0.62317205  0.12165439  1
  O  O178  1  0.61874664  0.61725441  0.61963352  1
  O  O179  1  0.37544669  0.39002370  0.38148581  1
  O  O180  1  0.38100841  0.38029758  0.88313649  1
  O  O181  1  0.38523735  0.88684118  0.37373456  1
  O  O182  1  0.38644734  0.88110217  0.86610404  1
  O  O183  1  0.88329167  0.37583475  0.37183405  1
  O  O184  1  0.87904966  0.38486064  0.87961439  1
  O  O185  1  0.87275335  0.88409135  0.37984237  1
  O  O186  1  0.87581808  0.88234796  0.88120376  1
  O  O187  1  0.25826619  -0.00122497  0.36879865  1
  O  O188  1  0.24970139  0.01212493  0.87669286  1
  O  O189  1  0.25893067  0.50944901  0.36541505  1
  O  O190  1  0.26438129  0.49813197  0.86356664  1
  O  O191  1  0.76061994  0.00970798  0.37771507  1
  O  O192  1  0.75957853  0.00823855  0.87510309  1
  O  O193  1  0.75036102  0.50596292  0.36239923  1
  O  O194  1  0.75911592  0.49903069  0.87851854  1
  O  O195  1  0.25430989  0.50900768  0.13469196  1
  O  O196  1  0.25126135  0.49900396  0.63669278  1
  O  O197  1  0.24761042  0.99078940  0.13335863  1
  O  O198  1  0.25303523  0.99700628  0.60800595  1
  O  O199  1  0.73889272  0.49864436  0.13517235  1
  O  O200  1  0.74011733  0.48800530  0.62271818  1
  O  O201  1  0.76058708  0.99208003  0.12396020  1
  O  O202  1  0.74551227  0.98986656  0.62667649  1
  O  O203  1  0.00462678  0.36916769  0.25095726  1
  O  O204  1  0.00505592  0.37067581  0.75584342  1
  O  O205  1  -0.00098628  0.87157164  0.25651818  1
  O  O206  1  -0.01086455  0.86301021  0.77055309  1
  O  O207  1  0.51247302  0.37132842  0.24877194  1
  O  O208  1  0.50389818  0.37366226  0.76603130  1
  O  O209  1  0.51143762  0.87880045  0.26363943  1
  O  O210  1  0.51761348  0.87007562  0.75896850  1
  O  O211  1  0.49966164  0.14114306  0.25385128  1
  O  O212  1  0.49712710  0.12346583  0.74240214  1
  O  O213  1  0.49646323  0.63076180  0.23848935  1
  O  O214  1  0.49289044  0.62209739  0.73970075  1
  O  O215  1  0.99318871  0.13248010  0.24309552  1
  O  O216  1  0.98756346  0.13387153  0.74820900  1
  O  O217  1  0.99628206  0.62358646  0.23898355  1
  O  O218  1  0.99315441  0.62608235  0.74079557  1
  O  O219  1  0.36696545  0.26063519  0.01496300  1
  O  O220  1  0.37745178  0.27007194  0.48805782  1
  O  O221  1  0.35824219  0.74366213  -0.00454505  1
  O  O222  1  0.36803049  0.73652959  0.51146209  1
  O  O223  1  0.88177377  0.26737685  -0.00428910  1
  O  O224  1  0.86684579  0.25200657  0.50381427  1
  O  O225  1  0.87045914  0.75152309  0.00426263  1
  O  O226  1  0.88009814  0.75836830  0.50972278  1
  O  O227  1  0.12312129  0.24302628  0.48999522  1
  O  O228  1  0.12274271  0.25821602  0.98615797  1
  O  O229  1  0.13382692  0.73505042  0.49212716  1
  O  O230  1  0.13408897  0.73634151  0.99963852  1
  O  O231  1  0.62804117  0.24800843  0.49201581  1
  O  O232  1  0.62393821  0.24829615  1.00873445  1
  O  O233  1  0.62012760  0.73195759  0.50810618  1
  O  O234  1  0.63396100  0.74811670  0.99077371  1
  O  O235  1  0.48651462  0.25707553  0.13588897  1
  O  O236  1  0.49196079  0.23642346  0.61721841  1
  O  O237  1  0.51365052  0.75340314  0.11826422  1
  O  O238  1  0.49298904  0.73868774  0.62677167  1
  O  O239  1  1.00579330  0.24037053  0.13235628  1
  O  O240  1  0.99196500  0.24474209  0.62979559  1
  O  O241  1  0.99903440  0.74173937  0.12265400  1
  O  O242  1  0.99305195  0.73681633  0.62117347  1
  O  O243  1  0.00760557  0.25988048  0.36483362  1
  O  O244  1  0.00590406  0.25447390  0.86904893  1
  O  O245  1  0.01618400  0.74663878  0.37646030  1
  O  O246  1  0.00095499  0.76227558  0.88037423  1
  O  O247  1  0.51264388  0.25121160  0.36872627  1
  O  O248  1  0.50712693  0.25201145  0.89085669  1
  O  O249  1  0.50348543  0.76490911  0.38817962  1
  O  O250  1  0.51570891  0.75346797  0.86801688  1
  O  O251  1  0.23871914  0.13249049  0.49067982  1
  O  O252  1  0.25083819  0.12760587  0.99042960  1
  O  O253  1  0.24590806  0.62461023  0.49075413  1
  O  O254  1  0.23823280  0.63502849  1.00227953  1
  O  O255  1  0.74280386  0.13288189  0.49402040  1
  O  O256  1  0.75459674  0.12499868  0.98883277  1
  O  O257  1  0.73506048  0.61725265  0.50348288  1
  O  O258  1  0.73784523  0.63285318  1.00970815  1
  O  O259  1  0.25970423  0.37611380  -0.00627152  1
  O  O260  1  0.26542623  0.37883692  0.49486432  1
  O  O261  1  0.24946223  0.85767781  0.00794515  1
  O  O262  1  0.25801148  0.85293912  0.48686589  1
  O  O263  1  0.75802590  0.38290852  0.01034550  1
  O  O264  1  0.74796509  0.36767412  0.51179587  1
  O  O265  1  0.75921323  0.86870749  0.01078773  1
  O  O266  1  0.76292715  0.88256034  0.50693181  1
  O  O267  1  0.13677350  0.49338971  0.24489790  1
  O  O268  1  0.13580414  0.49072917  0.74941457  1
  O  O269  1  0.13570743  1.00201947  0.24345498  1
  O  O270  1  0.08485336  0.98914216  0.73729021  1
  O  O271  1  0.62987949  0.49853902  0.24664247  1
  O  O272  1  0.61806200  0.49275880  0.73969331  1
  O  O273  1  0.63004415  0.99215469  0.25837028  1
  O  O274  1  0.62861416  0.99151308  0.74196024  1
  O  O275  1  0.36312110  -0.00249644  0.26000227  1
  O  O276  1  0.37543218  0.01895804  0.76130997  1
  O  O277  1  0.37306864  0.50599716  0.25535577  1
  O  O278  1  0.37172005  0.50216906  0.75552984  1
  O  O279  1  0.87886299  0.01133741  0.25684432  1
  O  O280  1  0.88085338  0.00812021  0.76225276  1
  O  O281  1  0.86807459  0.51032478  0.24753142  1
  O  O282  1  0.87833726  0.50872984  0.76109927  1
  O  O283  1  0.11805393  0.36993692  0.36297367  1
  O  O284  1  0.11874002  0.36880495  0.86485857  1
  O  O285  1  0.12755206  0.85497315  0.38324702  1
  O  O286  1  0.11351770  0.87773520  0.87801765  1
  O  O287  1  0.63351666  0.36860847  0.36589936  1
  O  O288  1  0.61529979  0.37951062  0.86808470  1
  O  O289  1  0.61946654  0.87419560  0.37046212  1
  O  O290  1  0.62372515  0.86785579  0.86637384  1
  O  O291  1  0.36805082  0.14749652  0.12786297  1
  O  O292  1  0.38154429  0.12505623  0.64065716  1
  O  O293  1  0.39253197  0.63004658  0.13284658  1
  O  O294  1  0.38548408  0.62264975  0.63142757  1
  O  O295  1  0.88867458  0.12028167  0.13429606  1
  O  O296  1  0.87604016  0.13056594  0.63336207  1
  O  O297  1  0.88774314  0.62739257  0.12802416  1
  O  O298  1  0.88195867  0.63000064  0.62777338  1
  O  O299  1  0.25797023  0.25595393  0.12998792  1
  O  O300  1  0.26358486  0.24778547  0.61971214  1
  O  O301  1  0.24083852  0.75970618  0.12367740  1
  O  O302  1  0.26141543  0.74178817  0.61509379  1
  O  O303  1  0.75180535  0.26802928  0.13073726  1
  O  O304  1  0.75408034  0.25531586  0.61955854  1
  O  O305  1  0.75885196  0.75806501  0.12018141  1
  O  O306  1  0.75810690  0.76363917  0.62438248  1
  O  O307  1  0.23650522  0.25283885  0.37427780  1
  O  O308  1  0.24152412  0.23852620  0.88007399  1
  O  O309  1  0.24421851  0.73623184  0.37969231  1
  O  O310  1  0.24965393  0.75049467  0.88353861  1
  O  O311  1  0.73982131  0.24519808  0.37592435  1
  O  O312  1  0.75462502  0.23599656  0.87441068  1
  O  O313  1  0.74903968  0.74494786  0.37854908  1
  O  O314  1  0.74091800  0.75496712  0.87903244  1
  O  O315  1  -0.00399996  0.11472229  0.00848696  1
  O  O316  1  0.00375284  0.12294792  0.50100844  1
  O  O317  1  0.01131376  0.62137786  0.00245851  1
  O  O318  1  0.01007467  0.62064806  0.50544375  1
  O  O319  1  0.51178823  0.13110766  -0.01108863  1
  O  O320  1  0.50736212  0.11907132  0.50374621  1
  O  O321  1  0.51208392  0.62834805  0.01084855  1
  O  O322  1  0.50771304  0.61352094  0.50904575  1
  O  O323  1  0.49574648  0.38739860  0.49960918  1
  O  O324  1  0.48895309  0.38164965  0.99145960  1
  O  O325  1  0.50856681  0.89004310  0.49412164  1
  O  O326  1  0.48700741  0.85312587  0.98044424  1
  O  O327  1  0.99860734  0.37541553  0.48690586  1
  O  O328  1  0.99354783  0.38573075  0.99462478  1
  O  O329  1  0.98690519  0.88464755  0.49135599  1
  O  O330  1  0.99691312  0.88052937  0.99201851  1
  O  O331  1  0.49427017  0.50707579  0.38321660  1
  O  O332  1  0.48930194  0.49160356  0.87860208  1
  O  O333  1  0.49345019  0.99344674  0.38456682  1
  O  O334  1  0.49114974  0.98935674  0.87279274  1
  O  O335  1  1.00103627  0.48678139  0.37014945  1
  O  O336  1  0.99641674  0.49641113  0.88355535  1
  O  O337  1  0.98745775  1.00454575  0.38228434  1
  O  O338  1  0.99442282  0.99165605  0.88333499  1
  O  O339  1  0.01036724  0.00442044  0.11753546  1
  O  O340  1  -0.01595448  0.01183298  0.60436790  1
  O  O341  1  0.00211923  0.50735111  0.10979442  1
  O  O342  1  0.00281641  0.51026402  0.62359195  1
  O  O343  1  0.45623585  0.01281538  0.12334320  1
  O  O344  1  0.50981034  0.01419063  0.61516409  1
  O  O345  1  0.51379656  0.50257392  0.12461337  1
  O  O346  1  0.50827753  0.50527337  0.61798752  1
  O  O347  1  0.24201836  0.38671672  0.25472607  1
  O  O348  1  0.24224919  0.38004355  0.75590455  1
  O  O349  1  0.24824295  0.87805665  0.24197448  1
  O  O350  1  0.25463954  0.88761922  0.74817194  1
  O  O351  1  0.74211751  0.38560289  0.24362356  1
  O  O352  1  0.74018272  0.37018450  0.73966582  1
  O  O353  1  0.74906500  0.87546718  0.23989957  1
  O  O354  1  0.74328939  0.87739981  0.74173898  1
  O  O355  1  0.25397714  0.11312505  0.25433497  1
  O  O356  1  0.25396142  0.12341099  0.75279961  1
  O  O357  1  0.25989279  0.61801009  0.25578124  1
  O  O358  1  0.26525737  0.61294322  0.74707799  1
  O  O359  1  0.75060052  0.12034547  0.24270216  1
  O  O360  1  0.76112996  0.12157563  0.75778449  1
  O  O361  1  0.76056200  0.61839194  0.24741556  1
  O  O362  1  0.76349275  0.62529455  0.74014191  1
  O  O363  1  0.37708444  0.11252235  0.37140267  1
  O  O364  1  0.35887273  0.11998810  0.86964351  1
  O  O365  1  0.37177347  0.61617707  0.36949408  1
  O  O366  1  0.38653461  0.61591571  0.86487890  1
  O  O367  1  0.86704714  0.12324918  0.36051361  1
  O  O368  1  0.86831179  0.11974376  0.87130313  1
  O  O369  1  0.87915886  0.62182824  0.36394442  1
  O  O370  1  0.87755536  0.61679155  0.86399085  1
  O  O371  1  0.12101298  0.37872954  0.13527225  1
  O  O372  1  0.11842275  0.37326012  0.63841960  1
  O  O373  1  0.13708716  0.88660084  0.12046913  1
  O  O374  1  0.12149490  0.88832082  0.60450109  1
  O  O375  1  0.63065267  0.38637120  0.13233454  1
  O  O376  1  0.62769544  0.37983954  0.63349103  1
  O  O377  1  0.64020655  0.87647517  0.14129609  1
  O  O378  1  0.63250328  0.87753254  0.62965416  1
  O  O379  1  0.11734455  0.25632551  0.25376708  1
  O  O380  1  0.12032611  0.25555440  0.75938843  1
  O  O381  1  0.12688418  0.74063778  0.26720297  1
  O  O382  1  0.12371750  0.75134867  0.73822838  1
  O  O383  1  0.61660809  0.26040406  0.25369445  1
  O  O384  1  0.62343560  0.25960238  0.74803901  1
  O  O385  1  0.62895902  0.76129215  0.25570296  1
  O  O386  1  0.62769885  0.75468675  0.75424457  1
  O  O387  1  0.38078767  0.25612376  0.24355522  1
  O  O388  1  0.37492596  0.23283718  0.75810857  1
  O  O389  1  0.37054858  0.73958587  0.26080401  1
  O  O390  1  0.37647517  0.73862712  0.74134546  1
  O  O391  1  0.88629571  0.24272813  0.25267863  1
  O  O392  1  0.87768956  0.24420026  0.74607161  1
  O  O393  1  0.87985347  0.73749190  0.24151500  1
  O  O394  1  0.87862601  0.74165800  0.73669074  1
  O  O395  1  0.38333129  0.49249588  0.49262625  1
  O  O396  1  0.37416888  0.49881971  0.99418207  1
  O  O397  1  0.38620615  1.00832986  0.49434597  1
  O  O398  1  0.36400449  0.98947468  0.98011641  1
  O  O399  1  0.87840546  0.49531449  0.49503556  1
  O  O400  1  0.88282156  0.49953224  0.99078449  1
  O  O401  1  0.87840095  0.99619833  0.48824389  1
  O  O402  1  0.88759148  0.99472701  0.98978968  1
  O  O403  1  0.11761447  -0.00258501  0.00707018  1
  O  O404  1  0.11320370  0.01578965  0.48889088  1
  O  O405  1  0.12080354  0.51074348  -0.00298192  1
  O  O406  1  0.12569964  0.50723481  0.49851778  1
  O  O407  1  0.60557176  -0.04127595  0.00912110  1
  O  O408  1  0.62109724  0.00853434  0.50486577  1
  O  O409  1  0.62411063  0.51107326  0.00845456  1
  O  O410  1  0.61976371  0.50584333  0.50909286  1
  O  O411  1  0.37690906  0.36935807  0.11719602  1
  O  O412  1  0.38406383  0.37743643  0.60811462  1
  O  O413  1  0.35646948  0.87030019  0.12485936  1
  O  O414  1  0.38597089  0.86122105  0.62702835  1
  O  O415  1  0.86455368  0.38580790  0.11425715  1
  O  O416  1  0.86573978  0.36944321  0.62673215  1
  O  O417  1  0.87311475  0.86931209  0.11933168  1
  O  O418  1  0.87083689  0.86734759  0.61763058  1
  O  O419  1  0.12143496  0.13662609  0.37872039  1
  O  O420  1  0.13490167  0.13239186  0.87243034  1
  O  O421  1  0.13509135  0.62436787  0.38051430  1
  O  O422  1  0.12209983  0.62269727  0.88386796  1
  O  O423  1  0.62971079  0.13364305  0.37928791  1
  O  O424  1  0.63507510  0.12732706  0.87632481  1
  O  O425  1  0.62350332  0.62652688  0.39257080  1
  O  O426  1  0.62143329  0.63194610  0.88492149  1
