# generated using pymatgen
data_V85Zn86O256
_symmetry_space_group_name_H-M   'P 1'
_cell_length_a   16.94054953
_cell_length_b   16.94784248
_cell_length_c   16.93061434
_cell_angle_alpha   90.01316878
_cell_angle_beta   89.95793450
_cell_angle_gamma   89.97825790
_symmetry_Int_Tables_number   1
_chemical_formula_structural   V85Zn86O256
_chemical_formula_sum   'V85 Zn86 O256'
_cell_volume   4860.87519444
_cell_formula_units_Z   1
loop_
 _symmetry_equiv_pos_site_id
 _symmetry_equiv_pos_as_xyz
  1  'x, y, z'
loop_
 _atom_site_type_symbol
 _atom_site_label
 _atom_site_symmetry_multiplicity
 _atom_site_fract_x
 _atom_site_fract_y
 _atom_site_fract_z
 _atom_site_occupancy
  V  V0  1  0.23888356  0.37666014  0.62336699  1
  V  V1  1  0.87824659  0.12623849  0.25251188  1
  V  V2  1  0.50372771  0.50556042  -0.00125147  1
  V  V3  1  0.62420554  -0.00018215  0.62668258  1
  V  V4  1  0.74782860  0.37278324  0.62188407  1
  V  V5  1  0.87703351  0.50662039  0.87301259  1
  V  V6  1  0.35626829  0.25137054  0.12134275  1
  V  V7  1  0.00151756  0.86679883  0.37388605  1
  V  V8  1  0.24932617  0.25077192  0.49266796  1
  V  V9  1  0.49954432  0.37566758  0.87702396  1
  V  V10  1  0.12095125  0.75260223  0.87635647  1
  V  V11  1  0.49840556  0.12780505  0.62690236  1
  V  V12  1  0.87287159  -0.00127880  0.37694554  1
  V  V13  1  0.75287470  0.86899788  0.61959353  1
  V  V14  1  0.74890274  0.12737938  0.87637819  1
  V  V15  1  0.62782052  0.50813442  0.12354172  1
  V  V16  1  0.87737013  0.87657184  -0.00103593  1
  V  V17  1  0.37451454  0.12221043  0.24458954  1
  V  V18  1  0.87301212  0.37263330  0.49629292  1
  V  V19  1  0.62425980  0.37779450  0.25049712  1
  V  V20  1  0.49869626  0.87325781  0.37940397  1
  V  V21  1  0.61495261  0.50046803  0.62256650  1
  V  V22  1  -0.00605353  0.73766627  0.74637596  1
  V  V23  1  0.75279241  0.50944727  0.74663277  1
  V  V24  1  0.87597909  0.00105182  0.87454126  1
  V  V25  1  0.13756669  0.00106143  0.12717345  1
  V  V26  1  0.11986056  0.61831484  0.00597204  1
  V  V27  1  0.87632624  0.24929596  0.12634318  1
  V  V28  1  0.86939898  0.24776361  0.61891999  1
  V  V29  1  0.37353923  0.52037152  0.36273810  1
  V  V30  1  0.62607257  0.12881706  0.49891687  1
  V  V31  1  0.12041260  0.51326698  0.62613700  1
  V  V32  1  0.36774550  0.00115622  0.37133354  1
  V  V33  1  0.13470551  0.87347220  0.25412518  1
  V  V34  1  0.49840062  0.24779946  0.75241915  1
  V  V35  1  0.61693991  0.00481915  0.12419566  1
  V  V36  1  0.01522542  0.24875100  0.25683489  1
  V  V37  1  0.12610571  0.63052208  0.47859089  1
  V  V38  1  0.24223287  0.49584042  0.75095848  1
  V  V39  1  0.24973135  0.75318059  0.00377331  1
  V  V40  1  0.50069563  0.24888383  0.23757445  1
  V  V41  1  0.62623105  0.87388569  0.25326169  1
  V  V42  1  0.37386143  0.49963232  0.87748168  1
  V  V43  1  0.00026094  0.61615310  0.12361178  1
  V  V44  1  0.00181910  0.12157126  0.12046182  1
  V  V45  1  0.01706708  0.37020567  0.37719794  1
  V  V46  1  0.87984140  0.75190656  0.12796848  1
  V  V47  1  0.62281452  0.25230490  0.37776221  1
  V  V48  1  0.75048995  0.50690572  0.26102213  1
  V  V49  1  0.74922939  -0.00125409  0.75035438  1
  V  V50  1  0.88312262  0.38059966  -0.00173139  1
  V  V51  1  0.38003215  0.39051500  0.49633104  1
  V  V52  1  0.00446127  0.37530091  0.86579148  1
  V  V53  1  0.87302717  0.62491347  0.25995503  1
  V  V54  1  0.62523554  0.25142798  0.87609967  1
  V  V55  1  0.87289176  0.73227401  0.62295363  1
  V  V56  1  0.24364041  0.50876354  0.24035303  1
  V  V57  1  0.24742194  0.62568257  0.87661390  1
  V  V58  1  0.62639943  0.87065223  0.75353933  1
  V  V59  1  0.36255006  0.37370225  0.00514754  1
  V  V60  1  0.62875777  0.62090709  0.49372338  1
  V  V61  1  0.75114362  0.25303990  0.00048744  1
  V  V62  1  0.87470374  0.12563289  0.74810995  1
  V  V63  1  0.75108362  0.87846644  0.12679476  1
  V  V64  1  0.75006857  0.13156376  0.37973031  1
  V  V65  1  -0.00168511  0.12238723  0.62330335  1
  V  V66  1  -0.00026402  -0.00489177  0.50244201  1
  V  V67  1  0.13865869  -0.00873916  0.62517982  1
  V  V68  1  0.74576339  0.74246864  -0.00049968  1
  V  V69  1  0.00085019  0.50378044  0.50148597  1
  V  V70  1  0.37369072  0.74923581  0.13155408  1
  V  V71  1  0.13918467  0.12590320  -0.01396901  1
  V  V72  1  0.25181229  0.75042931  0.49059987  1
  V  V73  1  0.49896360  0.87646646  0.87895161  1
  V  V74  1  0.36800579  0.00553593  0.86520136  1
  V  V75  1  0.13265494  0.87260098  0.74451507  1
  V  V76  1  0.12837538  0.12799181  0.49613170  1
  V  V77  1  0.49827638  0.74259465  0.25632933  1
  V  V78  1  0.37481339  0.25556094  0.62485307  1
  V  V79  1  0.64029015  0.74840542  0.38272289  1
  V  V80  1  0.49585563  0.00111497  0.49867317  1
  V  V81  1  0.75500130  0.37938795  0.12691765  1
  V  V82  1  0.37367201  0.62319303  0.74658562  1
  V  V83  1  0.49921444  0.74673459  0.74763547  1
  V  V84  1  0.49796374  0.62560189  0.12508006  1
  Zn  Zn85  1  0.87572031  0.49954072  0.37502361  1
  Zn  Zn86  1  0.35965453  0.88273633  0.50859595  1
  Zn  Zn87  1  0.61875675  0.73726187  0.88214169  1
  Zn  Zn88  1  0.87207775  0.86657631  0.50026146  1
  Zn  Zn89  1  0.14048021  0.25884960  0.86591491  1
  Zn  Zn90  1  0.37561527  0.87686533  0.00092728  1
  Zn  Zn91  1  0.24782511  0.12438874  0.36963179  1
  Zn  Zn92  1  0.00233402  0.25452956  0.74618513  1
  Zn  Zn93  1  0.49448577  0.01057166  0.00027660  1
  Zn  Zn94  1  0.25580331  0.87914252  0.13117533  1
  Zn  Zn95  1  0.62633639  0.37706131  0.74982601  1
  Zn  Zn96  1  0.62069630  0.13263561  0.00993078  1
  Zn  Zn97  1  0.74659660  0.62165765  0.87614165  1
  Zn  Zn98  1  -0.00088638  0.87480424  0.87113764  1
  Zn  Zn99  1  0.74830387  0.00208000  0.25173863  1
  Zn  Zn100  1  0.15470265  0.37045731  0.20984350  1
  Zn  Zn101  1  0.49540299  0.62166230  0.61854981  1
  Zn  Zn102  1  0.49836746  0.37965663  0.37577654  1
  Zn  Zn103  1  0.35777389  0.76169394  0.63109471  1
  Zn  Zn104  1  0.00676712  0.74566767  0.25545698  1
  Zn  Zn105  1  0.00382534  0.00040074  -0.00241594  1
  Zn  Zn106  1  0.26685130  0.12956438  0.82939394  1
  Zn  Zn107  1  0.18986691  0.17969911  0.18626772  1
  Zn  Zn108  1  0.17948447  0.19270272  0.69126100  1
  Zn  Zn109  1  0.18663646  0.68618922  0.19345986  1
  Zn  Zn110  1  0.18627376  0.68925568  0.68557125  1
  Zn  Zn111  1  0.69076208  0.18829361  0.19329293  1
  Zn  Zn112  1  0.68632132  0.18994386  0.68925886  1
  Zn  Zn113  1  0.68686570  0.68875844  0.18851520  1
  Zn  Zn114  1  0.68548328  0.68549142  0.68456583  1
  Zn  Zn115  1  0.31125668  0.31504408  0.31078400  1
  Zn  Zn116  1  0.31205786  0.31356994  0.81200496  1
  Zn  Zn117  1  0.31279384  0.80600399  0.31993359  1
  Zn  Zn118  1  0.31343989  0.81315902  0.81513335  1
  Zn  Zn119  1  0.81410445  0.31271404  0.31120747  1
  Zn  Zn120  1  0.81535693  0.31681609  0.80812868  1
  Zn  Zn121  1  0.81597851  0.81377970  0.31137247  1
  Zn  Zn122  1  0.81328654  0.80941999  0.81169380  1
  Zn  Zn123  1  0.19453686  0.44504821  0.43383646  1
  Zn  Zn124  1  0.18366872  0.43897992  0.94132020  1
  Zn  Zn125  1  0.18563378  0.93553861  0.43846919  1
  Zn  Zn126  1  0.19068516  0.93973342  0.93616536  1
  Zn  Zn127  1  0.68557221  0.43731765  0.44078305  1
  Zn  Zn128  1  0.68931342  0.43970270  0.93785117  1
  Zn  Zn129  1  0.68554452  0.93901259  0.43917941  1
  Zn  Zn130  1  0.68792908  0.93487255  0.93956913  1
  Zn  Zn131  1  0.31944201  0.06344850  0.05859154  1
  Zn  Zn132  1  0.29147459  0.08692990  0.61425079  1
  Zn  Zn133  1  0.31271910  0.56553607  0.06620996  1
  Zn  Zn134  1  0.30500082  0.56890501  0.56136103  1
  Zn  Zn135  1  0.80992673  0.06340974  0.06168104  1
  Zn  Zn136  1  0.81028796  0.05913379  0.56025421  1
  Zn  Zn137  1  0.81995190  0.56098880  0.06762032  1
  Zn  Zn138  1  0.80623674  0.55963855  0.55708822  1
  Zn  Zn139  1  0.43250166  0.43615679  0.19063530  1
  Zn  Zn140  1  0.43392559  0.43450067  0.69009742  1
  Zn  Zn141  1  0.43789774  0.93279925  0.19164595  1
  Zn  Zn142  1  0.43655771  0.93575687  0.68846062  1
  Zn  Zn143  1  0.98212430  0.41346516  0.16439990  1
  Zn  Zn144  1  0.93430987  0.44168702  0.68521437  1
  Zn  Zn145  1  0.94259061  0.93928554  0.19059423  1
  Zn  Zn146  1  0.94067612  0.92902205  0.68931699  1
  Zn  Zn147  1  0.06435217  0.05640294  0.31332350  1
  Zn  Zn148  1  0.06261047  0.05886165  0.80651674  1
  Zn  Zn149  1  0.06100502  0.55346748  0.30685530  1
  Zn  Zn150  1  0.06122187  0.56031322  0.81660943  1
  Zn  Zn151  1  0.55856033  0.06460602  0.30830240  1
  Zn  Zn152  1  0.55909226  0.06433703  0.81702987  1
  Zn  Zn153  1  0.55837052  0.56206659  0.31734590  1
  Zn  Zn154  1  0.56779567  0.56440940  0.81256221  1
  Zn  Zn155  1  0.43644599  0.19026311  0.43508110  1
  Zn  Zn156  1  0.43532892  0.18473768  0.94310283  1
  Zn  Zn157  1  0.44126361  0.68701689  0.44468034  1
  Zn  Zn158  1  0.43595336  0.68766057  0.93784126  1
  Zn  Zn159  1  0.93977446  0.18818399  0.43911649  1
  Zn  Zn160  1  0.94079268  0.19011161  0.93740638  1
  Zn  Zn161  1  0.93829794  0.68512362  0.44307117  1
  Zn  Zn162  1  0.93589624  0.68742002  0.93841719  1
  Zn  Zn163  1  0.06619103  0.30092955  0.05200827  1
  Zn  Zn164  1  0.06094752  0.31148070  0.56262081  1
  Zn  Zn165  1  0.06343018  0.81407954  0.06569411  1
  Zn  Zn166  1  0.06066699  0.80562790  0.56263933  1
  Zn  Zn167  1  0.56276257  0.32065361  0.06172998  1
  Zn  Zn168  1  0.56181365  0.31521026  0.55967233  1
  Zn  Zn169  1  0.56310065  0.81479694  0.06548977  1
  Zn  Zn170  1  0.56001890  0.80869811  0.56335573  1
  O  O171  1  0.11963828  0.11856770  0.11662468  1
  O  O172  1  0.11609365  0.10782303  0.61486970  1
  O  O173  1  0.10792289  0.63333462  0.12148676  1
  O  O174  1  0.12240961  0.61430680  0.62050776  1
  O  O175  1  0.63473610  0.10755855  0.13024405  1
  O  O176  1  0.61653388  0.12374922  0.62012738  1
  O  O177  1  0.61608987  0.61579204  0.12807547  1
  O  O178  1  0.62196760  0.61551261  0.61854245  1
  O  O179  1  0.37513002  0.37498360  0.39065453  1
  O  O180  1  0.38181516  0.38127259  0.88226566  1
  O  O181  1  0.38375602  0.88238110  0.37975505  1
  O  O182  1  0.38347226  0.88125525  0.87663387  1
  O  O183  1  0.87554298  0.37242529  0.38899454  1
  O  O184  1  0.87914824  0.38357713  0.88053662  1
  O  O185  1  0.88061871  0.88305949  0.37827411  1
  O  O186  1  0.87332476  0.88301035  0.88273745  1
  O  O187  1  0.26551851  0.00108356  0.38388873  1
  O  O188  1  0.26424171  0.00098489  0.87156962  1
  O  O189  1  0.26739788  0.50026762  0.36671530  1
  O  O190  1  0.25128061  0.50500932  0.86803502  1
  O  O191  1  0.75739042  0.00593172  0.37474439  1
  O  O192  1  0.75809640  0.00462364  0.87182053  1
  O  O193  1  0.75072728  0.49659116  0.36399831  1
  O  O194  1  0.75714390  0.49648182  0.86388916  1
  O  O195  1  0.25559577  0.50203674  0.13891695  1
  O  O196  1  0.24095300  0.49690028  0.63117293  1
  O  O197  1  0.24116420  0.99950094  0.12198642  1
  O  O198  1  0.23613263  0.98573256  0.61096126  1
  O  O199  1  0.74346942  0.49746598  0.13145747  1
  O  O200  1  0.74299039  0.49261972  0.63062543  1
  O  O201  1  0.74624832  0.98935527  0.12756274  1
  O  O202  1  0.74323897  0.99309018  0.63177892  1
  O  O203  1  -0.00892211  0.36038097  0.26672949  1
  O  O204  1  -0.00827600  0.37662607  0.76249459  1
  O  O205  1  0.00710349  0.87340760  0.25883994  1
  O  O206  1  0.01002557  0.86224241  0.75296975  1
  O  O207  1  0.50776557  0.36819951  0.25136264  1
  O  O208  1  0.50121092  0.36586414  0.75795162  1
  O  O209  1  0.50615005  0.86572492  0.26206717  1
  O  O210  1  0.50838884  0.86727222  0.75990655  1
  O  O211  1  0.48760341  0.13634800  0.25259262  1
  O  O212  1  0.50590232  0.13918584  0.74240154  1
  O  O213  1  0.50583371  0.63707525  0.24286568  1
  O  O214  1  0.49012079  0.63024337  0.75098357  1
  O  O215  1  0.99803770  0.13016811  0.24713974  1
  O  O216  1  0.99082094  0.12121515  0.73877655  1
  O  O217  1  0.99339754  0.62623233  0.24097924  1
  O  O218  1  1.00263230  0.63892699  0.75392844  1
  O  O219  1  0.37767737  0.25787352  0.01426648  1
  O  O220  1  0.37061113  0.25912284  0.50896495  1
  O  O221  1  0.36646155  0.75128329  0.00852635  1
  O  O222  1  0.36083681  0.74788920  0.50080318  1
  O  O223  1  0.86811017  0.25487194  0.00643177  1
  O  O224  1  0.87663589  0.25605912  0.51061731  1
  O  O225  1  0.86805331  0.75850707  0.00784341  1
  O  O226  1  0.87884220  0.74944820  0.51813340  1
  O  O227  1  0.13503323  0.23920293  0.50925349  1
  O  O228  1  0.12070123  0.23057739  0.98473148  1
  O  O229  1  0.12628450  0.73535995  0.49970751  1
  O  O230  1  0.12931476  0.74697682  0.99395920  1
  O  O231  1  0.61904227  0.24574363  0.48605636  1
  O  O232  1  0.63391497  0.25495703  0.99433386  1
  O  O233  1  0.62389764  0.74220843  0.49148874  1
  O  O234  1  0.64271577  0.75879215  1.00184649  1
  O  O235  1  0.50560754  0.25293123  0.13588320  1
  O  O236  1  0.49703230  0.24791331  0.63102826  1
  O  O237  1  0.49726634  0.74455112  0.13227894  1
  O  O238  1  0.50155511  0.74596540  0.64122587  1
  O  O239  1  0.99476923  0.23469847  0.13214165  1
  O  O240  1  0.99024153  0.24028697  0.62327643  1
  O  O241  1  0.98775159  0.74872704  0.12770276  1
  O  O242  1  0.98681512  0.75004491  0.63677871  1
  O  O243  1  0.00033144  0.25429985  0.36776603  1
  O  O244  1  -0.00714259  0.26621068  0.86928785  1
  O  O245  1  -0.00688941  0.76365087  0.37589106  1
  O  O246  1  0.00426740  0.75090557  0.86719720  1
  O  O247  1  0.50798804  0.25350411  0.36477732  1
  O  O248  1  0.50272552  0.25452769  0.86859887  1
  O  O249  1  0.50498604  0.75713018  0.37105872  1
  O  O250  1  0.49927245  0.75605787  0.86629461  1
  O  O251  1  0.24345255  0.13524625  0.50987834  1
  O  O252  1  0.23672442  0.12310249  1.00172416  1
  O  O253  1  0.23247278  0.62765609  0.49491396  1
  O  O254  1  0.24302773  0.63595247  0.99869020  1
  O  O255  1  0.74272876  0.12075317  0.48798376  1
  O  O256  1  0.74583369  0.13506632  0.99492940  1
  O  O257  1  0.73027391  0.62621512  0.50460461  1
  O  O258  1  0.75635929  0.64179276  1.00926568  1
  O  O259  1  0.26317027  0.38053335  -0.00304221  1
  O  O260  1  0.25795258  0.37090724  0.50592862  1
  O  O261  1  0.24830895  0.86201256  0.00400623  1
  O  O262  1  0.24506309  0.85687629  0.49470279  1
  O  O263  1  0.75884890  0.37003423  0.00693783  1
  O  O264  1  0.75838818  0.38091053  0.51196463  1
  O  O265  1  0.76080407  0.86917526  0.00749380  1
  O  O266  1  0.74777354  0.87925928  0.51642266  1
  O  O267  1  0.13900435  0.49129010  0.25338293  1
  O  O268  1  0.13222665  0.50468808  0.74257034  1
  O  O269  1  0.12165145  0.98895529  0.23956284  1
  O  O270  1  0.12008515  0.98919030  0.73293311  1
  O  O271  1  0.63076424  0.49856775  0.24493066  1
  O  O272  1  0.63332979  0.49624906  0.74056814  1
  O  O273  1  0.62557199  0.99317064  0.24168742  1
  O  O274  1  0.62821905  0.99262347  0.74570004  1
  O  O275  1  0.38381975  0.00898902  0.25815486  1
  O  O276  1  0.38257005  -0.00240846  0.76562912  1
  O  O277  1  0.36896984  0.50407092  0.25755814  1
  O  O278  1  0.36806785  0.50611692  0.75761286  1
  O  O279  1  0.87712310  0.00630326  0.26348871  1
  O  O280  1  0.86909317  0.00305455  0.75645670  1
  O  O281  1  0.86386329  0.51082091  0.25182149  1
  O  O282  1  0.86514088  0.49673157  0.75820729  1
  O  O283  1  0.11650080  0.37437151  0.38490463  1
  O  O284  1  0.10759103  0.37668467  0.88249699  1
  O  O285  1  0.11592581  0.88482481  0.36179674  1
  O  O286  1  0.12340776  0.86510946  0.87034992  1
  O  O287  1  0.62352765  0.36850847  0.37038098  1
  O  O288  1  0.61790982  0.36830171  0.87553387  1
  O  O289  1  0.62012369  0.86864269  0.37208353  1
  O  O290  1  0.62079791  0.87324254  0.86563526  1
  O  O291  1  0.37173262  0.14041518  0.12915018  1
  O  O292  1  0.39278943  0.13951128  0.61655563  1
  O  O293  1  0.38921931  0.63633303  0.12198468  1
  O  O294  1  0.37543809  0.62171661  0.63784042  1
  O  O295  1  0.88180551  0.12641378  0.13060078  1
  O  O296  1  0.87633887  0.13052055  0.62543697  1
  O  O297  1  0.88291975  0.63577307  0.13191788  1
  O  O298  1  0.86928628  0.63381437  0.62344895  1
  O  O299  1  0.25750784  0.25514783  0.12703098  1
  O  O300  1  0.25894237  0.26165192  0.61814715  1
  O  O301  1  0.25862824  0.74949747  0.12140701  1
  O  O302  1  0.24776246  0.73748422  0.60566211  1
  O  O303  1  0.75614301  0.25782478  0.12275870  1
  O  O304  1  0.75676099  0.25827677  0.62736736  1
  O  O305  1  0.75777222  0.76058083  0.11953313  1
  O  O306  1  0.76438587  0.75621521  0.63668296  1
  O  O307  1  0.25738818  0.24569505  0.38959156  1
  O  O308  1  0.25255694  0.23728891  0.86327212  1
  O  O309  1  0.24807374  0.74310349  0.38897041  1
  O  O310  1  0.24242768  0.74426428  0.88341179  1
  O  O311  1  0.73946907  0.24144513  0.36891217  1
  O  O312  1  0.74622412  0.24906915  0.87882588  1
  O  O313  1  0.73897480  0.75650774  0.37355775  1
  O  O314  1  0.75367699  0.74877688  0.89083536  1
  O  O315  1  0.00514954  0.12188422  0.00723865  1
  O  O316  1  0.00616780  0.11654015  0.50448882  1
  O  O317  1  0.00527957  0.63459429  0.01430214  1
  O  O318  1  0.01100774  0.61426280  0.49713842  1
  O  O319  1  0.51022162  0.12254297  -0.00297154  1
  O  O320  1  0.50651678  0.12004216  0.50438885  1
  O  O321  1  0.49652922  0.61355222  0.00683296  1
  O  O322  1  0.51714177  0.63021356  0.50601587  1
  O  O323  1  0.48313184  0.37586824  0.50048897  1
  O  O324  1  0.49276174  0.38738650  0.99541550  1
  O  O325  1  0.50765646  0.88288148  0.48899883  1
  O  O326  1  0.50260339  0.87302661  0.98692499  1
  O  O327  1  0.99230315  0.37838114  0.49421245  1
  O  O328  1  0.98594552  0.36774607  0.98750859  1
  O  O329  1  0.99901699  0.88058591  0.49328005  1
  O  O330  1  0.98767256  0.87681667  0.99891205  1
  O  O331  1  0.48095244  0.49592826  0.36881818  1
  O  O332  1  0.49578359  0.49634855  0.88218586  1
  O  O333  1  0.49795987  0.99284333  0.38074781  1
  O  O334  1  0.49560007  0.99019884  0.87686772  1
  O  O335  1  0.99732119  0.48818254  0.38422551  1
  O  O336  1  0.99006365  0.48905337  0.87250430  1
  O  O337  1  0.99244363  0.99405065  0.38575562  1
  O  O338  1  0.98663574  0.99790808  0.87454531  1
  O  O339  1  0.00629744  0.01118228  0.12460530  1
  O  O340  1  -0.00495502  0.00239854  0.61285226  1
  O  O341  1  -0.01513358  0.51916697  0.12145921  1
  O  O342  1  0.00812702  0.49038556  0.61155469  1
  O  O343  1  0.51467253  -0.00888444  0.12392886  1
  O  O344  1  0.50530775  0.01002926  0.61964252  1
  O  O345  1  0.50469256  0.50816214  0.12128471  1
  O  O346  1  0.51210516  0.49771223  0.63276675  1
  O  O347  1  0.25507218  0.38966379  0.25127857  1
  O  O348  1  0.25792592  0.38952654  0.73889702  1
  O  O349  1  0.23835557  0.87248702  0.25295627  1
  O  O350  1  0.23257347  0.86017072  0.74963735  1
  O  O351  1  0.74622730  0.38381944  0.24417043  1
  O  O352  1  0.74957226  0.38195720  0.73575570  1
  O  O353  1  0.74639754  0.87781737  0.24197372  1
  O  O354  1  0.74297326  0.87861742  0.74539886  1
  O  O355  1  0.26661188  0.12989937  0.25373386  1
  O  O356  1  0.25284977  0.11561831  0.71793844  1
  O  O357  1  0.24652082  0.61075207  0.25031192  1
  O  O358  1  0.25495738  0.61694619  0.75533420  1
  O  O359  1  0.75868368  0.12232250  0.26221308  1
  O  O360  1  0.75519594  0.11875679  0.75507063  1
  O  O361  1  0.75911740  0.61830306  0.24300169  1
  O  O362  1  0.74855366  0.61228625  0.74918439  1
  O  O363  1  0.37555354  0.11684755  0.36769900  1
  O  O364  1  0.37707219  0.11022666  0.87494484  1
  O  O365  1  0.37990795  0.61807366  0.37491213  1
  O  O366  1  0.36735879  0.61977027  0.86743255  1
  O  O367  1  0.86822823  0.11969765  0.37493509  1
  O  O368  1  0.86972283  0.11923574  0.87084986  1
  O  O369  1  0.88013468  0.62492043  0.36355362  1
  O  O370  1  0.86993569  0.61075245  0.88291737  1
  O  O371  1  0.08563111  0.37878918  0.12559615  1
  O  O372  1  0.13604272  0.38483223  0.61599596  1
  O  O373  1  0.12664130  0.88449162  0.13465997  1
  O  O374  1  0.11516190  0.88499120  0.62865475  1
  O  O375  1  0.63188106  0.38798450  0.13207018  1
  O  O376  1  0.63224706  0.38159541  0.62195551  1
  O  O377  1  0.63366475  0.88164333  0.13228611  1
  O  O378  1  0.62918012  0.87686001  0.63666006  1
  O  O379  1  0.11756638  0.25135061  0.24444452  1
  O  O380  1  0.11510984  0.25409627  0.75291007  1
  O  O381  1  0.12176044  0.76851110  0.24369453  1
  O  O382  1  0.11454558  0.75101389  0.75623978  1
  O  O383  1  0.61942525  0.25484645  0.25743828  1
  O  O384  1  0.61752985  0.25533662  0.75787371  1
  O  O385  1  0.61902455  0.75529743  0.25802116  1
  O  O386  1  0.61882663  0.75565724  0.75405959  1
  O  O387  1  0.38187069  0.24775464  0.23797334  1
  O  O388  1  0.38492064  0.26033301  0.73314121  1
  O  O389  1  0.38533917  0.75546506  0.24356007  1
  O  O390  1  0.37985604  0.74054303  0.75013082  1
  O  O391  1  0.88133035  0.24245801  0.24413894  1
  O  O392  1  0.87594111  0.24307490  0.73682931  1
  O  O393  1  0.87656364  0.74385457  0.24263036  1
  O  O394  1  0.88635557  0.75126747  0.74349511  1
  O  O395  1  0.36743743  0.49337739  0.49329217  1
  O  O396  1  0.38142987  0.49572862  0.99637533  1
  O  O397  1  0.39100442  1.00049385  0.49124883  1
  O  O398  1  0.37771084  0.99404922  0.98999159  1
  O  O399  1  0.88263519  0.49280156  0.49900277  1
  O  O400  1  0.86642676  0.48923356  0.99054608  1
  O  O401  1  0.88073330  0.99692436  0.49052625  1
  O  O402  1  0.87445371  0.99361477  0.99216741  1
  O  O403  1  0.12317849  0.00632952  0.00714049  1
  O  O404  1  0.11639193  0.00099096  0.50868220  1
  O  O405  1  0.12676009  0.51951800  -0.00265828  1
  O  O406  1  0.12033700  0.51017875  0.50318589  1
  O  O407  1  0.62855207  -0.00242004  0.01669983  1
  O  O408  1  0.61554514  0.00692643  0.50646748  1
  O  O409  1  0.61614065  0.49367989  0.01159427  1
  O  O410  1  0.62513851  0.50972603  0.50664610  1
  O  O411  1  0.38179682  0.36055173  0.11794047  1
  O  O412  1  0.36692972  0.37525457  0.61347136  1
  O  O413  1  0.37538172  0.86394579  0.12313947  1
  O  O414  1  0.39001433  0.86918791  0.61588749  1
  O  O415  1  0.87787222  0.36983354  0.11626372  1
  O  O416  1  0.86962169  0.36762620  0.61570760  1
  O  O417  1  0.87011569  0.87243000  0.12150853  1
  O  O418  1  0.86533276  0.86921146  0.62465495  1
  O  O419  1  0.12990269  0.11319279  0.39131974  1
  O  O420  1  0.12905327  0.11220114  0.88245200  1
  O  O421  1  0.11693188  0.62485642  0.38060715  1
  O  O422  1  0.12751648  0.63600937  0.88238024  1
  O  O423  1  0.63120180  0.13167152  0.37629002  1
  O  O424  1  0.63379305  0.13545932  0.87309883  1
  O  O425  1  0.62244373  0.63250829  0.38497616  1
  O  O426  1  0.63252984  0.62496776  0.87900933  1
