# generated using pymatgen
data_V85Zn86O256
_symmetry_space_group_name_H-M   'P 1'
_cell_length_a   16.92460267
_cell_length_b   16.91969847
_cell_length_c   16.92634885
_cell_angle_alpha   89.98563881
_cell_angle_beta   89.93599170
_cell_angle_gamma   89.95611057
_symmetry_Int_Tables_number   1
_chemical_formula_structural   V85Zn86O256
_chemical_formula_sum   'V85 Zn86 O256'
_cell_volume   4847.01067292
_cell_formula_units_Z   1
loop_
 _symmetry_equiv_pos_site_id
 _symmetry_equiv_pos_as_xyz
  1  'x, y, z'
loop_
 _atom_site_type_symbol
 _atom_site_label
 _atom_site_symmetry_multiplicity
 _atom_site_fract_x
 _atom_site_fract_y
 _atom_site_fract_z
 _atom_site_occupancy
  V  V0  1  0.87267039  0.62736576  0.25197787  1
  V  V1  1  0.50100628  0.86321684  0.36363513  1
  V  V2  1  0.62338567  0.12671676  0.49670447  1
  V  V3  1  0.36667997  0.37453845  0.00045138  1
  V  V4  1  0.62308868  0.37414707  0.75393211  1
  V  V5  1  0.87500356  0.25271922  0.12466733  1
  V  V6  1  0.36746722  0.25536257  0.12725224  1
  V  V7  1  0.37568892  0.62051942  0.74426779  1
  V  V8  1  0.63695759  0.88051871  0.74631157  1
  V  V9  1  0.13059643  0.49467968  0.12465632  1
  V  V10  1  0.37839370  0.49305236  0.87065088  1
  V  V11  1  0.24814124  0.13030964  0.38325944  1
  V  V12  1  0.00338847  0.75852275  0.74896194  1
  V  V13  1  0.12297485  -0.00279586  0.62551895  1
  V  V14  1  0.62458542  0.74677620  0.87773281  1
  V  V15  1  0.62879708  -0.01415103  0.12520254  1
  V  V16  1  0.25048638  0.87200155  0.12789580  1
  V  V17  1  0.87706910  0.49580801  0.37562385  1
  V  V18  1  0.75074240  0.50046860  0.74731257  1
  V  V19  1  0.01187970  0.87883946  0.87682728  1
  V  V20  1  0.12990327  0.74998584  0.87064311  1
  V  V21  1  0.74634355  0.38474928  0.12428692  1
  V  V22  1  0.74777708  -0.01298436  0.24435642  1
  V  V23  1  0.25346709  0.61882312  0.87009350  1
  V  V24  1  0.87799643  0.11667630  0.76059479  1
  V  V25  1  0.86363190  0.76001571  0.10968535  1
  V  V26  1  0.24521880  0.37606475  0.64339806  1
  V  V27  1  0.87426446  0.63110751  0.74626698  1
  V  V28  1  0.74977116  0.62635390  0.87865084  1
  V  V29  1  0.24814682  0.75141578  0.50041828  1
  V  V30  1  0.84306053  -0.03280420  0.89382886  1
  V  V31  1  0.50219429  0.12416611  0.62520511  1
  V  V32  1  0.49584007  0.87759702  0.87153404  1
  V  V33  1  0.00223380  0.12766022  0.12188897  1
  V  V34  1  0.62001200  0.50743029  0.62048349  1
  V  V35  1  -0.00119970  0.62544084  0.62238127  1
  V  V36  1  0.24837805  0.00644250  0.75675967  1
  V  V37  1  0.75041765  0.77029691  0.50769279  1
  V  V38  1  0.49966802  0.37775939  0.38071725  1
  V  V39  1  0.50245196  0.12480470  0.12820281  1
  V  V40  1  0.49189593  0.00042648  0.48800082  1
  V  V41  1  0.49955924  0.25379781  0.75078302  1
  V  V42  1  0.74930291  0.13166912  0.86828900  1
  V  V43  1  0.50381313  0.49072691  -0.00166556  1
  V  V44  1  0.36999676  0.25042704  0.62161208  1
  V  V45  1  -0.00408368  0.75638575  0.25107830  1
  V  V46  1  0.12487497  0.00422597  0.12406938  1
  V  V47  1  0.87711326  0.49883781  0.87342763  1
  V  V48  1  0.87749952  0.24553953  0.62816076  1
  V  V49  1  0.62646735  0.62052027  0.00698553  1
  V  V50  1  0.00135561  0.49164772  0.49824330  1
  V  V51  1  0.24967913  0.62465607  0.37478562  1
  V  V52  1  0.12831418  0.62459822  -0.00013470  1
  V  V53  1  0.87667355  -0.01624380  0.37737700  1
  V  V54  1  0.01455748  0.37675621  0.87133241  1
  V  V55  1  0.37523499  0.87392566  0.00031651  1
  V  V56  1  0.75078933  0.24773723  0.49684328  1
  V  V57  1  0.24866486  0.23374421  -0.00108539  1
  V  V58  1  0.62557842  0.12718419  0.00268595  1
  V  V59  1  0.24837471  0.87447594  0.63247923  1
  V  V60  1  0.87683761  0.37654485  -0.00102149  1
  V  V61  1  0.25062412  0.49451527  0.24926554  1
  V  V62  1  0.11872590  0.75187319  0.37713326  1
  V  V63  1  -0.00416493  -0.01202769  0.49780722  1
  V  V64  1  0.13026271  0.23512571  0.87849363  1
  V  V65  1  0.49939741  0.25291080  0.25069754  1
  V  V66  1  0.75052309  0.37063436  0.62481831  1
  V  V67  1  0.12223323  0.87606555  0.25551381  1
  V  V68  1  0.87153964  0.12427312  0.25119197  1
  V  V69  1  0.36078952  0.37526834  0.49907356  1
  V  V70  1  0.25250494  -0.00043618  0.26000613  1
  V  V71  1  0.50008365  0.74666368  0.74539238  1
  V  V72  1  0.12682397  0.49739567  0.63808732  1
  V  V73  1  0.37461995  0.12347376  0.25644513  1
  V  V74  1  0.11601658  0.37455610  0.25143160  1
  V  V75  1  0.37973515  0.74912250  0.62097895  1
  V  V76  1  0.00321799  0.49931321  -0.00025051  1
  V  V77  1  0.00346251  -0.00034262  -0.00272975  1
  V  V78  1  0.74250025  0.63141729  0.38195818  1
  V  V79  1  0.62299263  0.38346435  0.24627781  1
  V  V80  1  0.00701526  0.25318709  0.75088495  1
  V  V81  1  0.11857691  0.25511794  0.38405799  1
  V  V82  1  0.00056399  0.62813528  0.12461881  1
  V  V83  1  0.49856446  0.62067017  0.12526502  1
  V  V84  1  0.61752098  0.25526584  0.87574779  1
  Zn  Zn85  1  0.87927051  0.36830268  0.49198770  1
  Zn  Zn86  1  0.12414490  0.62266947  0.50138721  1
  Zn  Zn87  1  0.74873417  0.25449786  0.00046638  1
  Zn  Zn88  1  0.49915273  0.00017856  0.00131721  1
  Zn  Zn89  1  -0.00261306  0.25297207  0.25495034  1
  Zn  Zn90  1  0.37515988  0.62613392  0.24863404  1
  Zn  Zn91  1  0.62634319  -0.00998234  0.62212737  1
  Zn  Zn92  1  0.12193263  0.12362147  0.50033285  1
  Zn  Zn93  1  0.50929179  0.74769829  0.24934391  1
  Zn  Zn94  1  0.62804373  0.25297372  0.37230361  1
  Zn  Zn95  1  0.75163634  0.12394728  0.37364617  1
  Zn  Zn96  1  0.37155504  0.88168842  0.49435227  1
  Zn  Zn97  1  0.87709285  0.77418273  0.61875565  1
  Zn  Zn98  1  0.49305813  0.50609487  0.50484567  1
  Zn  Zn99  1  0.74497914  0.50592356  0.24939442  1
  Zn  Zn100  1  0.36855392  0.00820218  0.88083860  1
  Zn  Zn101  1  0.37350432  0.50093386  0.37577728  1
  Zn  Zn102  1  0.00046534  0.12279503  0.62336560  1
  Zn  Zn103  1  0.61529418  0.63872748  0.49989087  1
  Zn  Zn104  1  0.25108570  0.74951781  0.00009299  1
  Zn  Zn105  1  0.37843799  0.74928847  0.12818935  1
  Zn  Zn106  1  0.37219442  0.12767817  0.75658083  1
  Zn  Zn107  1  0.18754423  0.18935915  0.19140807  1
  Zn  Zn108  1  0.18548993  0.18670926  0.68594530  1
  Zn  Zn109  1  0.18734469  0.68627294  0.19002029  1
  Zn  Zn110  1  0.18917166  0.68401851  0.68823364  1
  Zn  Zn111  1  0.68917353  0.19214925  0.18727015  1
  Zn  Zn112  1  0.73037077  0.13167803  0.64797468  1
  Zn  Zn113  1  0.68594097  0.69687837  0.18812512  1
  Zn  Zn114  1  0.69001993  0.69344286  0.68548070  1
  Zn  Zn115  1  0.30648030  0.31299316  0.31435489  1
  Zn  Zn116  1  0.31352308  0.30871946  0.81644798  1
  Zn  Zn117  1  0.32213525  0.81080169  0.31436995  1
  Zn  Zn118  1  0.31250492  0.81324814  0.81063367  1
  Zn  Zn119  1  0.81158752  0.31390965  0.30948716  1
  Zn  Zn120  1  0.81401141  0.30981565  0.81274140  1
  Zn  Zn121  1  0.80107035  0.80652807  0.30930911  1
  Zn  Zn122  1  0.81256665  0.81235646  0.82516762  1
  Zn  Zn123  1  0.18413046  0.43742367  0.43968089  1
  Zn  Zn124  1  0.19417210  0.43498212  0.93659951  1
  Zn  Zn125  1  0.18538483  0.93651882  0.44084022  1
  Zn  Zn126  1  0.18653938  0.93863774  0.94100619  1
  Zn  Zn127  1  0.69059683  0.43805966  0.43588467  1
  Zn  Zn128  1  0.68902449  0.43956835  0.93647678  1
  Zn  Zn129  1  0.68132405  0.94260374  0.43121955  1
  Zn  Zn130  1  0.67679093  0.94070952  0.93228719  1
  Zn  Zn131  1  0.31548724  0.05928933  0.06954046  1
  Zn  Zn132  1  0.31239530  0.06452602  0.56796381  1
  Zn  Zn133  1  0.31362982  0.56106375  0.06050019  1
  Zn  Zn134  1  0.30921312  0.56071941  0.56257933  1
  Zn  Zn135  1  0.81098254  0.06478988  0.06089663  1
  Zn  Zn136  1  0.80808520  -0.04720928  0.57432745  1
  Zn  Zn137  1  0.81462038  0.56713354  0.06353012  1
  Zn  Zn138  1  0.81250128  0.56283216  0.56052912  1
  Zn  Zn139  1  0.43683132  0.44032165  0.18559544  1
  Zn  Zn140  1  0.43667917  0.43490249  0.68704586  1
  Zn  Zn141  1  0.43694335  0.93946811  0.18870436  1
  Zn  Zn142  1  0.43583204  0.93802525  0.68497900  1
  Zn  Zn143  1  0.93811856  0.44110808  0.18746855  1
  Zn  Zn144  1  0.93819710  0.43645502  0.68714308  1
  Zn  Zn145  1  0.93392636  0.93551570  0.18518035  1
  Zn  Zn146  1  0.94130571  0.94235725  0.70091931  1
  Zn  Zn147  1  0.05814977  0.06436429  0.31405114  1
  Zn  Zn148  1  0.06801471  0.06322207  0.80804647  1
  Zn  Zn149  1  0.06136370  0.56526752  0.31315599  1
  Zn  Zn150  1  0.06210434  0.56679531  0.81119461  1
  Zn  Zn151  1  0.56588838  0.06029724  0.31247868  1
  Zn  Zn152  1  0.56037231  0.06450169  0.81273795  1
  Zn  Zn153  1  0.56114839  0.56344727  0.31361638  1
  Zn  Zn154  1  0.55945312  0.56124925  0.81133391  1
  Zn  Zn155  1  0.43560910  0.19174079  0.43775591  1
  Zn  Zn156  1  0.43733446  0.18692096  0.93844398  1
  Zn  Zn157  1  0.43719920  0.68516889  0.43906202  1
  Zn  Zn158  1  0.43817184  0.68664288  0.93842587  1
  Zn  Zn159  1  0.93807294  0.17805529  0.43933086  1
  Zn  Zn160  1  0.94207204  0.18923071  0.94037578  1
  Zn  Zn161  1  0.93225473  0.69043690  0.43951159  1
  Zn  Zn162  1  0.94085235  0.68741126  0.93534674  1
  Zn  Zn163  1  0.06700346  0.31190453  0.06183788  1
  Zn  Zn164  1  0.06540597  0.31323608  0.56415690  1
  Zn  Zn165  1  0.06076487  0.81346075  0.06217225  1
  Zn  Zn166  1  0.06253329  0.81485862  0.56468146  1
  Zn  Zn167  1  0.55924943  0.31380908  0.06495966  1
  Zn  Zn168  1  0.56188253  0.31427937  0.56292873  1
  Zn  Zn169  1  0.56208284  0.80716662  0.05963223  1
  Zn  Zn170  1  0.56300740  0.81442323  0.55846215  1
  O  O171  1  0.11513899  0.11600149  0.13557185  1
  O  O172  1  0.12552349  0.11251428  0.62114256  1
  O  O173  1  0.12027032  0.61914329  0.11980030  1
  O  O174  1  0.11646452  0.61758704  0.62485829  1
  O  O175  1  0.62224825  0.12409055  0.11762818  1
  O  O176  1  0.61128220  0.13394169  0.61072988  1
  O  O177  1  0.62287846  0.62475116  0.11029769  1
  O  O178  1  0.63326911  0.60932053  0.62581483  1
  O  O179  1  0.37848030  0.37340980  0.38404833  1
  O  O180  1  0.37389739  0.38246259  0.88320079  1
  O  O181  1  0.39008765  0.87697471  0.37973620  1
  O  O182  1  0.37982648  0.87769559  0.88195207  1
  O  O183  1  0.87198010  0.39080216  0.37206437  1
  O  O184  1  0.88229544  0.38071131  0.88026803  1
  O  O185  1  0.87232013  0.88610513  0.36277820  1
  O  O186  1  0.90360493  0.87899449  0.85774711  1
  O  O187  1  0.24184520  0.00691687  0.36408844  1
  O  O188  1  0.24753679  -0.00696390  0.86010485  1
  O  O189  1  0.24610145  0.50818146  0.36877227  1
  O  O190  1  0.26390490  0.50748226  0.87839781  1
  O  O191  1  0.75778417  0.00203888  0.36271679  1
  O  O192  1  0.74606945  0.02351396  0.87455807  1
  O  O193  1  0.75951019  0.51033664  0.37373701  1
  O  O194  1  0.75533138  0.50806752  0.86562343  1
  O  O195  1  0.23860374  0.50600688  0.13267353  1
  O  O196  1  0.24085055  0.48688664  0.62356558  1
  O  O197  1  0.24208536  0.99180455  0.13545529  1
  O  O198  1  0.24477829  0.99289386  0.63095181  1
  O  O199  1  0.75884334  0.48881050  0.12925164  1
  O  O200  1  0.74574723  0.48926117  0.62911750  1
  O  O201  1  0.74533217  1.00388906  0.13500694  1
  O  O202  1  0.73502668  1.02180204  0.62092507  1
  O  O203  1  0.01139993  0.37665467  0.24972762  1
  O  O204  1  -0.00415113  0.36696582  0.76027272  1
  O  O205  1  0.00686513  0.86409303  0.24541587  1
  O  O206  1  0.01187331  0.86254403  0.75376039  1
  O  O207  1  0.50473434  0.37197038  0.25462400  1
  O  O208  1  0.50839596  0.36299340  0.74401665  1
  O  O209  1  0.49557301  0.87386231  0.25979004  1
  O  O210  1  0.49919831  0.86387456  0.75606312  1
  O  O211  1  0.49296403  0.13119837  0.24974284  1
  O  O212  1  0.50423898  0.13729768  0.74053710  1
  O  O213  1  0.49742424  0.61859042  0.23803707  1
  O  O214  1  0.49204148  0.63820550  0.75367548  1
  O  O215  1  0.98716275  0.12301375  0.23821641  1
  O  O216  1  0.99368115  0.13340780  0.75069732  1
  O  O217  1  0.99432783  0.63719532  0.24626242  1
  O  O218  1  0.99289255  0.63378042  0.74282556  1
  O  O219  1  0.37091527  0.25573085  0.00737478  1
  O  O220  1  0.37824365  0.25818608  0.51456523  1
  O  O221  1  0.37255882  0.76172875  0.00184883  1
  O  O222  1  0.36670785  0.74993640  0.50916619  1
  O  O223  1  0.87501541  0.25937387  0.00725851  1
  O  O224  1  0.87050399  0.24830197  0.50845041  1
  O  O225  1  0.88098666  0.74551573  0.01093877  1
  O  O226  1  0.85804463  0.74987430  0.50228392  1
  O  O227  1  0.12195277  0.24688784  0.48804796  1
  O  O228  1  0.13749400  0.25372396  0.99307058  1
  O  O229  1  0.12822850  0.74911061  0.49208425  1
  O  O230  1  0.12545185  0.74276577  0.98968898  1
  O  O231  1  0.63146350  0.24741186  0.49706025  1
  O  O232  1  0.62316443  0.24652478  0.99309915  1
  O  O233  1  0.64298220  0.75168244  0.50513636  1
  O  O234  1  0.62007563  0.73881311  0.98428247  1
  O  O235  1  0.49009882  0.24397903  0.13168794  1
  O  O236  1  0.49232656  0.24637107  0.63128750  1
  O  O237  1  0.50051752  0.73300022  0.12020375  1
  O  O238  1  0.48849374  0.75431030  0.63016823  1
  O  O239  1  0.99444754  0.24321529  0.12563378  1
  O  O240  1  0.99568452  0.25044413  0.63348550  1
  O  O241  1  0.99562554  0.74515980  0.13276957  1
  O  O242  1  0.99802467  0.74346520  0.63158009  1
  O  O243  1  0.01376134  0.24281986  0.37302689  1
  O  O244  1  0.00876224  0.25823594  0.87163553  1
  O  O245  1  0.01065070  0.74391490  0.36849297  1
  O  O246  1  0.00993940  0.75428921  0.86879975  1
  O  O247  1  0.49949401  0.26304022  0.36877908  1
  O  O248  1  0.51027140  0.25009703  0.86786380  1
  O  O249  1  0.50017168  0.76050764  0.37656096  1
  O  O250  1  0.50445817  0.75668086  0.86733721  1
  O  O251  1  0.24961905  0.11827376  0.48599737  1
  O  O252  1  0.25690688  0.13411920  1.00505799  1
  O  O253  1  0.24557633  0.63193239  0.49295487  1
  O  O254  1  0.24662951  0.62712895  0.98890171  1
  O  O255  1  0.73868576  0.13920813  0.49915721  1
  O  O256  1  0.73885642  0.13178714  0.99433954  1
  O  O257  1  0.74673922  0.62566506  0.48935721  1
  O  O258  1  0.74063019  0.61355127  0.98896194  1
  O  O259  1  0.26284571  0.36669946  0.00106056  1
  O  O260  1  0.25826635  0.37507301  0.50544126  1
  O  O261  1  0.25590910  0.87466934  0.01044017  1
  O  O262  1  0.25175130  0.86937390  0.50971029  1
  O  O263  1  0.75654624  0.37685062  0.00636267  1
  O  O264  1  0.75281853  0.36479894  0.50776925  1
  O  O265  1  0.77772184  0.88899963  -0.07221474  1
  O  O266  1  0.74733589  0.87378374  0.49834163  1
  O  O267  1  0.12720136  0.49534052  0.24405116  1
  O  O268  1  0.11894180  0.50099545  0.73771459  1
  O  O269  1  0.12748774  0.99295319  0.24467059  1
  O  O270  1  0.13787693  1.00067590  0.74104579  1
  O  O271  1  0.62542742  0.48755774  0.25086821  1
  O  O272  1  0.62950583  0.49390330  0.74220786  1
  O  O273  1  0.64002950  1.00707008  0.24107593  1
  O  O274  1  0.61918486  0.98299904  0.75268727  1
  O  O275  1  0.36398510  0.01146205  0.24518834  1
  O  O276  1  0.36008107  0.00031263  0.74800689  1
  O  O277  1  0.36323081  0.50080781  0.25233877  1
  O  O278  1  0.38380337  0.50922565  0.75642719  1
  O  O279  1  0.86647622  0.00501981  0.25270980  1
  O  O280  1  0.88176958  0.01354323  0.77879028  1
  O  O281  1  0.87860030  0.51403773  0.25670189  1
  O  O282  1  0.87194492  0.50919587  0.75440179  1
  O  O283  1  0.12672661  0.36213954  0.37053428  1
  O  O284  1  0.11679520  0.37214970  0.87796362  1
  O  O285  1  0.12913770  0.86781069  0.36288788  1
  O  O286  1  0.12178861  0.86349807  0.87873960  1
  O  O287  1  0.61718033  0.37489890  0.36871851  1
  O  O288  1  0.62961458  0.37164897  0.86239463  1
  O  O289  1  0.59854042  0.88962969  0.37640559  1
  O  O290  1  0.61459566  0.86493300  0.86642354  1
  O  O291  1  0.38118711  0.13163620  0.13722082  1
  O  O292  1  0.38464955  0.13468588  0.62876147  1
  O  O293  1  0.38391950  0.62634860  0.12280675  1
  O  O294  1  0.36595257  0.63201729  0.63676866  1
  O  O295  1  0.87996656  0.13294766  0.12850633  1
  O  O296  1  0.87628002  0.13835985  0.64213651  1
  O  O297  1  0.88244549  0.63048653  0.13398658  1
  O  O298  1  0.88243993  0.62281164  0.63461725  1
  O  O299  1  0.26097505  0.24538989  0.12017574  1
  O  O300  1  0.25623277  0.26244618  0.63156510  1
  O  O301  1  0.24771266  0.76257874  0.12539584  1
  O  O302  1  0.25468793  0.75613281  0.62250488  1
  O  O303  1  0.75986904  0.26242498  0.12323121  1
  O  O304  1  0.75857449  0.25136832  0.61842731  1
  O  O305  1  0.76480196  0.74224456  0.11972325  1
  O  O306  1  0.75666087  0.74987045  0.61139827  1
  O  O307  1  0.23357971  0.24106451  0.36893527  1
  O  O308  1  0.24147626  0.25161175  0.88435823  1
  O  O309  1  0.23976398  0.74506938  0.37768801  1
  O  O310  1  0.24463416  0.74280794  0.87524227  1
  O  O311  1  0.75117215  0.24878124  0.38309258  1
  O  O312  1  0.73610425  0.24817400  0.87743955  1
  O  O313  1  0.75389696  0.73840428  0.38821679  1
  O  O314  1  0.74050576  0.73329314  0.86950608  1
  O  O315  1  -0.00293663  0.11536708  0.01286424  1
  O  O316  1  0.00054100  0.10934218  0.50507766  1
  O  O317  1  0.00879300  0.61734424  0.00202147  1
  O  O318  1  -0.00200318  0.62068411  0.51268223  1
  O  O319  1  0.51166835  0.12454285  0.00758856  1
  O  O320  1  0.50211504  0.12044854  0.50384223  1
  O  O321  1  0.50675604  0.61496175  0.00215941  1
  O  O322  1  0.50525659  0.61812088  0.49529144  1
  O  O323  1  0.49043903  0.37781260  0.49434084  1
  O  O324  1  0.49154579  0.38549108  1.00359095  1
  O  O325  1  0.49775628  0.89040990  0.49784702  1
  O  O326  1  0.49235146  0.87438242  0.99085526  1
  O  O327  1  0.99630895  0.38707029  0.50670888  1
  O  O328  1  0.99722748  0.38091741  0.99232978  1
  O  O329  1  1.00138064  0.88711841  0.50161214  1
  O  O330  1  1.00428047  0.88874488  0.99283982  1
  O  O331  1  0.49525301  0.48720198  0.37438509  1
  O  O332  1  0.48735124  0.50434631  0.88294785  1
  O  O333  1  0.49362937  1.00714283  0.38656259  1
  O  O334  1  0.50130502  0.98608964  0.87679793  1
  O  O335  1  0.99201876  0.51048835  0.38756776  1
  O  O336  1  0.99805677  0.49435539  0.87828383  1
  O  O337  1  0.98559253  1.00053108  0.37950716  1
  O  O338  1  1.01680082  0.99270558  0.88487257  1
  O  O339  1  0.00481912  0.00480677  0.11900189  1
  O  O340  1  0.00852280  0.00064702  0.62282574  1
  O  O341  1  0.00934309  0.50755985  0.11983326  1
  O  O342  1  0.00466100  0.50634084  0.61985559  1
  O  O343  1  0.51055591  0.00780670  0.12663223  1
  O  O344  1  0.50383430  0.00982572  0.61912256  1
  O  O345  1  0.49641365  0.50963636  0.11210531  1
  O  O346  1  0.51721542  0.49313487  0.62657702  1
  O  O347  1  0.23715748  0.38846296  0.25530040  1
  O  O348  1  0.25336212  0.37729442  0.74163176  1
  O  O349  1  0.24533481  0.88108264  0.24644512  1
  O  O350  1  0.25279274  0.88216762  0.73810201  1
  O  O351  1  0.74111855  0.37803270  0.24245747  1
  O  O352  1  0.74472015  0.37841170  0.74353815  1
  O  O353  1  0.75045749  0.88830219  0.24695474  1
  O  O354  1  0.73487893  0.86929678  0.75701884  1
  O  O355  1  0.25593671  0.11808271  0.25702250  1
  O  O356  1  0.25179117  0.11029128  0.74477963  1
  O  O357  1  0.24748658  0.61402172  0.25738239  1
  O  O358  1  0.25986999  0.62690501  0.76172644  1
  O  O359  1  0.76126245  0.12188754  0.24812981  1
  O  O360  1  0.76447093  0.13791298  0.75929049  1
  O  O361  1  0.75837425  0.62572911  0.26082708  1
  O  O362  1  0.75812711  0.62152944  0.75362066  1
  O  O363  1  0.36524403  0.13670903  0.36353303  1
  O  O364  1  0.38496697  0.11939350  0.86914838  1
  O  O365  1  0.35956103  0.62441444  0.37353222  1
  O  O366  1  0.37015381  0.61947462  0.86717050  1
  O  O367  1  0.87303433  0.11598262  0.36417180  1
  O  O368  1  0.86353844  0.14122811  0.87119688  1
  O  O369  1  0.86686008  0.61963987  0.36945650  1
  O  O370  1  0.86952023  0.62041699  0.86757040  1
  O  O371  1  0.12163519  0.38578113  0.13352036  1
  O  O372  1  0.13829964  0.37951401  0.62481622  1
  O  O373  1  0.13062687  0.88054398  0.13591489  1
  O  O374  1  0.13417729  0.88633748  0.62181000  1
  O  O375  1  0.63469536  0.37104522  0.13162951  1
  O  O376  1  0.63581507  0.37779581  0.63446239  1
  O  O377  1  0.62452050  0.88692113  0.11211631  1
  O  O378  1  0.62035003  0.87208936  0.64249415  1
  O  O379  1  0.12104883  0.25934039  0.25653887  1
  O  O380  1  0.11434214  0.24547513  0.75833304  1
  O  O381  1  0.11711862  0.75664022  0.25579856  1
  O  O382  1  0.11796312  0.73944445  0.76253822  1
  O  O383  1  0.61749577  0.26041865  0.25089812  1
  O  O384  1  0.61717554  0.26005710  0.75864766  1
  O  O385  1  0.62150179  0.74861399  0.25637763  1
  O  O386  1  0.61737329  0.75349762  0.75692754  1
  O  O387  1  0.37686292  0.24739838  0.24355414  1
  O  O388  1  0.38290559  0.25166627  0.74139115  1
  O  O389  1  0.38447593  0.74432683  0.24552741  1
  O  O390  1  0.38099264  0.74307989  0.74270137  1
  O  O391  1  0.87781427  0.24366336  0.24321857  1
  O  O392  1  0.88793807  0.24716314  0.74702911  1
  O  O393  1  0.87977737  0.74270547  0.24649356  1
  O  O394  1  0.88365957  0.74268689  0.75171448  1
  O  O395  1  0.37394527  0.49000808  0.49855292  1
  O  O396  1  0.37995567  0.49118217  0.99291348  1
  O  O397  1  0.38892863  1.00288709  0.50700464  1
  O  O398  1  0.37727889  0.98783158  1.00168448  1
  O  O399  1  0.88198321  0.49714685  0.49286406  1
  O  O400  1  0.88324339  0.49700600  0.99365983  1
  O  O401  1  0.87735198  0.99605925  0.48333842  1
  O  O402  1  0.88294549  1.00745352  0.98424362  1
  O  O403  1  0.12020672  -0.00203026  0.01629635  1
  O  O404  1  0.11585613  0.00078146  0.50590540  1
  O  O405  1  0.12456281  0.50232570  0.00723616  1
  O  O406  1  0.11593689  0.50192436  0.50858795  1
  O  O407  1  0.62416539  0.00972977  0.00696302  1
  O  O408  1  0.61124376  0.01148349  0.49931654  1
  O  O409  1  0.61376710  0.50689600  -0.00955821  1
  O  O410  1  0.62734790  0.49437104  0.51636478  1
  O  O411  1  0.37959101  0.36474613  0.11737017  1
  O  O412  1  0.36321236  0.37133841  0.62106886  1
  O  O413  1  0.36683667  0.87480145  0.11924570  1
  O  O414  1  0.36742949  0.86478277  0.62171759  1
  O  O415  1  0.87191715  0.37123373  0.12044812  1
  O  O416  1  0.86410978  0.36430533  0.62787595  1
  O  O417  1  0.87580386  0.85956283  0.12451391  1
  O  O418  1  0.87373038  0.88549724  0.63463276  1
  O  O419  1  0.13074413  0.13496006  0.37350535  1
  O  O420  1  0.12108021  0.13610653  0.87909228  1
  O  O421  1  0.13337287  0.63399882  0.37578438  1
  O  O422  1  0.13433897  0.62753684  0.87922797  1
  O  O423  1  0.62648135  0.12969417  0.38476509  1
  O  O424  1  0.62794031  0.13508076  0.88078306  1
  O  O425  1  0.64063082  0.61634025  0.37762414  1
  O  O426  1  0.63114683  0.62838276  0.87795692  1
