# generated using pymatgen
data_V85Zn86O256
_symmetry_space_group_name_H-M   'P 1'
_cell_length_a   16.93012291
_cell_length_b   16.93568410
_cell_length_c   16.92869987
_cell_angle_alpha   90.09838957
_cell_angle_beta   89.99047569
_cell_angle_gamma   89.97370324
_symmetry_Int_Tables_number   1
_chemical_formula_structural   V85Zn86O256
_chemical_formula_sum   'V85 Zn86 O256'
_cell_volume   4853.84348896
_cell_formula_units_Z   1
loop_
 _symmetry_equiv_pos_site_id
 _symmetry_equiv_pos_as_xyz
  1  'x, y, z'
loop_
 _atom_site_type_symbol
 _atom_site_label
 _atom_site_symmetry_multiplicity
 _atom_site_fract_x
 _atom_site_fract_y
 _atom_site_fract_z
 _atom_site_occupancy
  V  V0  1  0.25393896  0.25084359  0.00350874  1
  V  V1  1  0.62526033  0.37047982  0.25329859  1
  V  V2  1  0.12469049  0.37453914  0.75111863  1
  V  V3  1  0.49447971  0.12476483  0.12335267  1
  V  V4  1  0.74524097  0.62986261  0.37558386  1
  V  V5  1  0.63196188  0.24534063  0.87331325  1
  V  V6  1  0.75385343  0.37996790  0.61965074  1
  V  V7  1  0.75231564  0.23773900  -0.00386662  1
  V  V8  1  0.87642025  0.37346050  -0.00087327  1
  V  V9  1  0.93335122  0.32687546  0.44210984  1
  V  V10  1  0.36085775  0.50361155  0.37059317  1
  V  V11  1  0.25606308  0.75509772  0.00063325  1
  V  V12  1  0.61932533  0.64121746  0.00094502  1
  V  V13  1  0.38779634  0.50208176  0.87730322  1
  V  V14  1  0.35908673  0.62124936  0.24691472  1
  V  V15  1  0.12894481  0.49980407  0.13229536  1
  V  V16  1  0.87968007  0.24800244  0.12829184  1
  V  V17  1  0.62055776  0.62602069  0.49925237  1
  V  V18  1  0.50516036  0.38132674  0.37813622  1
  V  V19  1  0.62601698  0.13170780  0.48426451  1
  V  V20  1  0.49256628  -0.01366324  0.00005799  1
  V  V21  1  0.86444531  0.12402910  0.75787206  1
  V  V22  1  0.62548667  0.00130766  0.12190838  1
  V  V23  1  0.24888346  0.50061818  0.76068074  1
  V  V24  1  0.74905290  0.63999340  0.88428314  1
  V  V25  1  0.87916101  0.25728753  0.62546697  1
  V  V26  1  0.75280093  0.00015722  0.26125008  1
  V  V27  1  0.25185929  0.25017842  0.48974205  1
  V  V28  1  0.50312335  0.12789132  0.62162724  1
  V  V29  1  0.13334152  0.74793334  0.87345573  1
  V  V30  1  0.00114329  0.62719403  0.12406185  1
  V  V31  1  0.25151354  0.37522094  0.62533155  1
  V  V32  1  -0.04662195  0.06877000  0.57857162  1
  V  V33  1  0.74606132  0.25467872  0.48794907  1
  V  V34  1  0.12685812  0.24716994  0.87543639  1
  V  V35  1  0.12815611  0.00590397  0.62446662  1
  V  V36  1  0.37755882  0.12528528  0.75226596  1
  V  V37  1  0.25111722  0.87326507  0.62347468  1
  V  V38  1  0.00180058  0.50012325  -0.00116110  1
  V  V39  1  0.10795431  0.36958704  0.25626091  1
  V  V40  1  0.87370528  0.75521688  0.61708361  1
  V  V41  1  0.12726554  0.12384867  0.00254149  1
  V  V42  1  -0.00348013  0.75366943  0.24954172  1
  V  V43  1  0.25404933  -0.00039995  0.75318968  1
  V  V44  1  0.87117746  0.12072391  0.25579135  1
  V  V45  1  0.37421821  0.12392720  0.26945002  1
  V  V46  1  0.00092828  0.24073869  0.74907206  1
  V  V47  1  0.61994401  0.50124336  0.62331903  1
  V  V48  1  0.61514643  0.87485562  0.25839885  1
  V  V49  1  0.00227224  0.12717945  0.13204212  1
  V  V50  1  0.74507960  0.50432454  0.75245615  1
  V  V51  1  0.25136209  0.00446039  0.26710032  1
  V  V52  1  0.74745677  0.50278184  0.24803812  1
  V  V53  1  0.12495867  0.62190894  0.49582429  1
  V  V54  1  0.61806836  0.49693679  0.11302777  1
  V  V55  1  0.62120730  -0.00144071  0.62994180  1
  V  V56  1  0.87371838  0.62626139  0.24861208  1
  V  V57  1  0.50165140  0.25441893  0.75230579  1
  V  V58  1  0.74792355  0.86873421  0.12038367  1
  V  V59  1  0.75090341  0.37526394  0.12102237  1
  V  V60  1  0.26200116  0.87777379  0.12556100  1
  V  V61  1  0.87139819  0.86617128  -0.00323612  1
  V  V62  1  0.37823650  0.74888038  0.62379361  1
  V  V63  1  0.86512096  0.00044762  0.87912269  1
  V  V64  1  -0.00085721  0.62441883  0.62448125  1
  V  V65  1  0.38095985  0.38016424  0.00266063  1
  V  V66  1  0.25124678  0.74371386  0.49577072  1
  V  V67  1  0.12341793  0.87613891  0.25069358  1
  V  V68  1  0.74814873  0.87648279  0.62396486  1
  V  V69  1  0.13164454  0.62426195  -0.00503976  1
  V  V70  1  0.12446346  0.74803839  0.37483549  1
  V  V71  1  0.25154329  0.37614911  0.13799644  1
  V  V72  1  0.87176795  0.62886873  0.75079102  1
  V  V73  1  0.13375924  0.12057868  0.49312237  1
  V  V74  1  0.88066551  0.50415989  0.38057135  1
  V  V75  1  0.38096638  0.38313987  0.50019275  1
  V  V76  1  0.49732898  0.62222520  0.62074406  1
  V  V77  1  0.53462027  0.82478389  0.81172909  1
  V  V78  1  0.38056279  0.87945827  0.48762625  1
  V  V79  1  0.12727531  0.87531885  0.75243039  1
  V  V80  1  0.37251495  0.62571777  0.75263226  1
  V  V81  1  0.00018786  0.37405917  0.87489827  1
  V  V82  1  0.12737899  -0.00087787  0.12591565  1
  V  V83  1  -0.01312162  0.88472657  0.39030364  1
  V  V84  1  0.25515162  0.12128529  0.87686816  1
  Zn  Zn85  1  0.62425060  0.11996322  -0.00539293  1
  Zn  Zn86  1  0.61464441  0.75774732  0.38172594  1
  Zn  Zn87  1  0.49503894  0.74265856  0.25504410  1
  Zn  Zn88  1  0.00225212  0.74935539  0.75205185  1
  Zn  Zn89  1  0.49526872  0.62257105  0.12633831  1
  Zn  Zn90  1  0.11662450  0.25010070  0.37259745  1
  Zn  Zn91  1  0.62558039  0.37672155  0.75122369  1
  Zn  Zn92  1  0.87348700  0.50197887  0.87662885  1
  Zn  Zn93  1  0.87033748  0.74728275  0.11883753  1
  Zn  Zn94  1  0.37519745  0.25171685  0.62405214  1
  Zn  Zn95  1  0.73924419  -0.00333568  0.75701670  1
  Zn  Zn96  1  0.12452538  0.50024137  0.62464546  1
  Zn  Zn97  1  0.38004121  0.75365546  0.12558851  1
  Zn  Zn98  1  0.50395511  0.24874251  0.25469303  1
  Zn  Zn99  1  0.37791725  0.25111836  0.13021772  1
  Zn  Zn100  1  0.00128695  0.87592731  0.87807835  1
  Zn  Zn101  1  -0.00248835  0.49744198  0.49998753  1
  Zn  Zn102  1  0.50673032  0.37725373  0.88380869  1
  Zn  Zn103  1  -0.00142768  -0.00155002  -0.00079939  1
  Zn  Zn104  1  0.49954775  0.00159182  0.48991851  1
  Zn  Zn105  1  0.75042460  0.75936577  0.49645812  1
  Zn  Zn106  1  0.38752246  -0.02908388  0.87367097  1
  Zn  Zn107  1  0.19121957  0.18978418  0.19348487  1
  Zn  Zn108  1  0.19031883  0.18696660  0.68428410  1
  Zn  Zn109  1  0.18822694  0.68894758  0.18590017  1
  Zn  Zn110  1  0.19091739  0.68536808  0.68511306  1
  Zn  Zn111  1  0.68926448  0.18588221  0.18472806  1
  Zn  Zn112  1  0.68781922  0.19060046  0.68140214  1
  Zn  Zn113  1  0.68313521  0.68965737  0.18601942  1
  Zn  Zn114  1  0.68074646  0.70110597  0.69344151  1
  Zn  Zn115  1  0.31654949  0.31247819  0.31371055  1
  Zn  Zn116  1  0.31581814  0.31318260  0.81544709  1
  Zn  Zn117  1  0.30633843  0.80631211  0.30902124  1
  Zn  Zn118  1  0.32432593  0.81150670  0.81584204  1
  Zn  Zn119  1  0.81066328  0.31237833  0.30335414  1
  Zn  Zn120  1  0.81155079  0.31552970  0.81072517  1
  Zn  Zn121  1  0.80964080  0.81481352  0.31094268  1
  Zn  Zn122  1  0.80824044  0.81624464  0.80707969  1
  Zn  Zn123  1  0.18415135  0.43481018  0.43723536  1
  Zn  Zn124  1  0.19097421  0.43511507  0.94101084  1
  Zn  Zn125  1  0.18154373  0.93014514  0.44026092  1
  Zn  Zn126  1  0.19270340  0.93731715  0.93832555  1
  Zn  Zn127  1  0.69009941  0.44339996  0.43806783  1
  Zn  Zn128  1  0.69006141  0.43532632  0.93347435  1
  Zn  Zn129  1  0.68759390  0.94073531  0.44292908  1
  Zn  Zn130  1  0.67979092  0.92744071  0.93452946  1
  Zn  Zn131  1  0.31710588  0.05801442  0.06598657  1
  Zn  Zn132  1  0.31355814  0.06288586  0.56221093  1
  Zn  Zn133  1  0.30939998  0.56115710  0.06152087  1
  Zn  Zn134  1  0.30960274  0.55899985  0.56137853  1
  Zn  Zn135  1  0.81283850  0.05659904  0.06625750  1
  Zn  Zn136  1  0.79008629  0.06115876  0.55661475  1
  Zn  Zn137  1  0.81149590  0.56238966  0.06092833  1
  Zn  Zn138  1  0.81083053  0.56639782  0.56000131  1
  Zn  Zn139  1  0.43879447  0.44137454  0.19198897  1
  Zn  Zn140  1  0.43825554  0.44002474  0.68954924  1
  Zn  Zn141  1  0.43704010  0.93845980  0.31444638  1
  Zn  Zn142  1  0.43669515  0.93895155  0.68286781  1
  Zn  Zn143  1  0.93658075  0.44102967  0.18694051  1
  Zn  Zn144  1  0.93678001  0.44032275  0.68936495  1
  Zn  Zn145  1  0.93594419  0.93673467  0.18484484  1
  Zn  Zn146  1  0.93225469  0.93027907  0.69857430  1
  Zn  Zn147  1  0.05943473  0.06029737  0.31301682  1
  Zn  Zn148  1  0.05841191  0.05937002  0.81519940  1
  Zn  Zn149  1  0.06467786  0.56195312  0.31122742  1
  Zn  Zn150  1  0.06273602  0.56408409  0.81311207  1
  Zn  Zn151  1  0.56436504  0.06365576  0.31002296  1
  Zn  Zn152  1  0.56101027  0.06402734  0.81603704  1
  Zn  Zn153  1  0.55574828  0.55985670  0.31065040  1
  Zn  Zn154  1  0.55995493  0.65413266  0.81215185  1
  Zn  Zn155  1  0.44349157  0.19940775  0.43800986  1
  Zn  Zn156  1  0.44030418  0.18820062  0.93803782  1
  Zn  Zn157  1  0.43934238  0.68402416  0.43160609  1
  Zn  Zn158  1  0.43460364  0.68440614  0.94048092  1
  Zn  Zn159  1  0.94005763  0.16377832  0.43247986  1
  Zn  Zn160  1  0.93919718  0.18255593  0.93957082  1
  Zn  Zn161  1  0.93863916  0.68910549  0.43629319  1
  Zn  Zn162  1  0.94352987  0.68982634  0.93394486  1
  Zn  Zn163  1  0.06415820  0.31161632  0.06583562  1
  Zn  Zn164  1  0.06998387  0.30529242  0.56856344  1
  Zn  Zn165  1  0.06291038  0.81446008  0.06086047  1
  Zn  Zn166  1  0.06150226  0.81237425  0.56482010  1
  Zn  Zn167  1  0.56394050  0.30701181  0.06470600  1
  Zn  Zn168  1  0.56351053  0.31471316  0.56246093  1
  Zn  Zn169  1  0.55725310  0.81295564  0.07332560  1
  Zn  Zn170  1  0.56018795  0.81205016  0.56898182  1
  O  O171  1  0.12094328  0.12022877  0.12495188  1
  O  O172  1  0.12857666  0.11273278  0.61933214  1
  O  O173  1  0.12062589  0.61662637  0.12042631  1
  O  O174  1  0.11641819  0.62572620  0.61563473  1
  O  O175  1  0.61673927  0.11619566  0.12607080  1
  O  O176  1  0.61757554  0.12276768  0.61738549  1
  O  O177  1  0.63058321  0.61410287  0.11278222  1
  O  O178  1  0.61651384  0.62209090  0.62190342  1
  O  O179  1  0.37911836  0.38468510  0.38102318  1
  O  O180  1  0.37591329  0.38179863  0.88582936  1
  O  O181  1  0.36826244  0.87127834  0.38356497  1
  O  O182  1  0.41933075  0.86526354  0.84210671  1
  O  O183  1  0.87651642  0.38267851  0.37473841  1
  O  O184  1  0.88297637  0.37637523  0.88014279  1
  O  O185  1  0.88831116  0.86718013  0.37485106  1
  O  O186  1  0.87552733  0.87978072  0.87978775  1
  O  O187  1  0.23830910  -0.00269038  0.36547495  1
  O  O188  1  0.26314043  0.00212091  0.87076983  1
  O  O189  1  0.26204145  0.49372734  0.37627815  1
  O  O190  1  0.25455616  0.49318752  0.86381165  1
  O  O191  1  0.74876211  -0.00167103  0.35992587  1
  O  O192  1  0.75895657  -0.00678346  0.87388319  1
  O  O193  1  0.75856005  0.51127328  0.36898484  1
  O  O194  1  0.75304103  0.50800188  0.86600321  1
  O  O195  1  0.23583501  0.48986413  0.11864307  1
  O  O196  1  0.24849915  0.48761946  0.63332684  1
  O  O197  1  0.24100769  0.99585423  0.13124352  1
  O  O198  1  0.24463650  0.99453612  0.63296990  1
  O  O199  1  0.74434936  0.49359601  0.12866116  1
  O  O200  1  0.74552495  0.49632624  0.62933791  1
  O  O201  1  0.73929942  0.99120778  0.12864261  1
  O  O202  1  0.73900065  0.99534373  0.63012986  1
  O  O203  1  0.00950427  0.37315105  0.24473530  1
  O  O204  1  0.00386693  0.36615145  0.75588137  1
  O  O205  1  0.00313919  0.86468435  0.25042386  1
  O  O206  1  0.01653661  0.87104921  0.75154278  1
  O  O207  1  0.50991961  0.37556691  0.25551537  1
  O  O208  1  0.50097058  0.36245441  0.74858901  1
  O  O209  1  0.51408040  0.87956692  0.24758278  1
  O  O210  1  0.51549940  0.86921869  0.72147518  1
  O  O211  1  0.48879058  0.12548972  0.24428604  1
  O  O212  1  0.49452590  0.13475328  0.74401583  1
  O  O213  1  0.48422644  0.62047281  0.24631982  1
  O  O214  1  0.48294711  0.61762141  0.73387559  1
  O  O215  1  0.99124387  0.11983081  0.23885310  1
  O  O216  1  0.99257173  0.13672061  0.75404448  1
  O  O217  1  0.99645494  0.63570686  0.24569608  1
  O  O218  1  0.99096415  0.62635350  0.74422113  1
  O  O219  1  0.36474369  0.25600919  0.00157487  1
  O  O220  1  0.36808774  0.26282600  0.50263217  1
  O  O221  1  0.35972266  0.74164207  0.00488774  1
  O  O222  1  0.36627633  0.75473951  0.50124502  1
  O  O223  1  0.87086035  0.25189989  0.00762010  1
  O  O224  1  0.87708478  0.25511061  0.50214559  1
  O  O225  1  0.87952545  0.76161423  -0.00123991  1
  O  O226  1  0.87139109  0.74092677  0.51393901  1
  O  O227  1  0.13380655  0.24129312  0.49890123  1
  O  O228  1  0.13644687  0.24506389  0.99751937  1
  O  O229  1  0.13006693  0.74411044  0.49435109  1
  O  O230  1  0.13216217  0.74398426  0.99332814  1
  O  O231  1  0.63299092  0.24170847  0.50484375  1
  O  O232  1  0.63631070  0.24969994  0.99290457  1
  O  O233  1  0.62653984  0.73832326  0.50165860  1
  O  O234  1  0.62582026  0.73923107  1.00864066  1
  O  O235  1  0.49949819  0.23987579  0.13225150  1
  O  O236  1  0.50030350  0.24188290  0.63217077  1
  O  O237  1  0.49519354  0.74252968  0.13476620  1
  O  O238  1  0.48446806  0.73940285  0.61795230  1
  O  O239  1  0.99142334  0.24026817  0.12036019  1
  O  O240  1  0.98903755  0.25502767  0.63434563  1
  O  O241  1  1.00058637  0.74456845  0.13311419  1
  O  O242  1  0.99336095  0.74059115  0.62863035  1
  O  O243  1  -0.00958982  0.26109268  0.38856867  1
  O  O244  1  0.00674009  0.25259918  0.86959377  1
  O  O245  1  0.00724475  0.75521397  0.36803599  1
  O  O246  1  0.01780942  0.75349846  0.87174868  1
  O  O247  1  0.49716838  0.27281316  0.37000672  1
  O  O248  1  0.50808476  0.25370999  0.86742895  1
  O  O249  1  0.50292873  0.74874960  0.36868131  1
  O  O250  1  0.50074019  0.73820128  0.86770429  1
  O  O251  1  0.24430470  0.13564979  0.50570381  1
  O  O252  1  0.24874360  0.13108319  0.99795890  1
  O  O253  1  0.24081647  0.63553580  0.50534355  1
  O  O254  1  0.23638959  0.63390762  1.00647862  1
  O  O255  1  0.73610563  0.13886573  0.49901193  1
  O  O256  1  0.74929568  0.13535756  1.00661498  1
  O  O257  1  0.74148858  0.62950111  0.49066020  1
  O  O258  1  0.74539524  0.62456483  0.98936675  1
  O  O259  1  0.25683996  0.36653348  0.00939353  1
  O  O260  1  0.25431937  0.37015278  0.50835970  1
  O  O261  1  0.24588063  0.86707293  0.01167501  1
  O  O262  1  0.25593632  0.86284256  0.50328352  1
  O  O263  1  0.75973557  0.36815093  0.00371184  1
  O  O264  1  0.74510412  0.37185814  0.51212705  1
  O  O265  1  0.75618222  0.87738891  0.00776172  1
  O  O266  1  0.75252282  0.87658855  0.51316142  1
  O  O267  1  0.12020720  0.48808558  0.24154993  1
  O  O268  1  0.13172531  0.49386225  0.74978279  1
  O  O269  1  0.13109040  0.99867107  0.24288749  1
  O  O270  1  0.13168115  0.99457156  0.74664954  1
  O  O271  1  0.63165948  0.49440520  0.23867954  1
  O  O272  1  0.63890629  0.50193490  0.73938660  1
  O  O273  1  0.63440633  0.99346822  0.24293981  1
  O  O274  1  0.62211750  1.01225529  0.73487906  1
  O  O275  1  0.36592598  0.01312321  0.25634889  1
  O  O276  1  0.37323555  0.00898231  0.75083505  1
  O  O277  1  0.37028099  0.50593273  0.26052185  1
  O  O278  1  0.36716498  0.50273388  0.75782911  1
  O  O279  1  0.86049708  0.00521068  0.24035835  1
  O  O280  1  0.87322568  0.00938185  0.75909952  1
  O  O281  1  0.86764459  0.50711486  0.25439642  1
  O  O282  1  0.86485143  0.51372030  0.74954733  1
  O  O283  1  0.12204493  0.37484973  0.36048541  1
  O  O284  1  0.12145978  0.36657873  0.87090521  1
  O  O285  1  0.11388044  0.86590343  0.36878137  1
  O  O286  1  0.12661876  0.87102209  0.86717193  1
  O  O287  1  0.61917171  0.38881266  0.36530305  1
  O  O288  1  0.62424759  0.36452032  0.87102804  1
  O  O289  1  0.63329305  0.87673487  0.36170904  1
  O  O290  1  0.60308881  0.87783534  0.86383088  1
  O  O291  1  0.38551693  0.12504192  0.13072415  1
  O  O292  1  0.38268854  0.12768691  0.63417946  1
  O  O293  1  0.37237689  0.61934737  0.13704454  1
  O  O294  1  0.37899216  0.62760890  0.62553577  1
  O  O295  1  0.88389817  0.12943127  0.12812490  1
  O  O296  1  0.88249744  0.13032007  0.63012566  1
  O  O297  1  0.88180056  0.62600276  0.12971033  1
  O  O298  1  0.87977010  0.63054950  0.63282630  1
  O  O299  1  0.25196963  0.25783717  0.11827828  1
  O  O300  1  0.25177206  0.26251689  0.61997996  1
  O  O301  1  0.24679762  0.76166109  0.11816513  1
  O  O302  1  0.25623042  0.75399419  0.61451357  1
  O  O303  1  0.75736125  0.25606311  0.11560969  1
  O  O304  1  0.76257764  0.25868954  0.61688409  1
  O  O305  1  0.75163536  0.76447778  0.13060681  1
  O  O306  1  0.75558310  0.75738714  0.62519115  1
  O  O307  1  0.24576887  0.25695973  0.38761488  1
  O  O308  1  0.24540233  0.24378138  0.88256078  1
  O  O309  1  0.23314991  0.75295830  0.38139526  1
  O  O310  1  0.24206466  0.75984792  0.88353123  1
  O  O311  1  0.75654295  0.26183849  0.38904377  1
  O  O312  1  0.74597477  0.25481068  0.88383248  1
  O  O313  1  0.74455767  0.73941303  0.37455741  1
  O  O314  1  0.75079430  0.73803231  0.87185205  1
  O  O315  1  0.00919211  0.12214731  0.01204679  1
  O  O316  1  0.01032200  0.12696266  0.51406776  1
  O  O317  1  0.01110641  0.62184089  0.00396321  1
  O  O318  1  0.00684409  0.62509117  0.50829698  1
  O  O319  1  0.50274186  0.12597466  0.01146842  1
  O  O320  1  0.50946915  0.13185799  0.50592793  1
  O  O321  1  0.51600280  0.62553765  0.00350661  1
  O  O322  1  0.50489695  0.62287076  0.51074482  1
  O  O323  1  0.49112330  0.37393561  0.49517635  1
  O  O324  1  0.48452174  0.36720432  1.00372659  1
  O  O325  1  0.48209804  0.87430289  0.50407867  1
  O  O326  1  0.50124078  0.88770945  1.00592690  1
  O  O327  1  0.99920039  0.37626440  0.50368510  1
  O  O328  1  0.99711498  0.37823453  0.99499113  1
  O  O329  1  1.00210496  0.87262622  0.48953600  1
  O  O330  1  0.98985310  0.87845801  0.99955808  1
  O  O331  1  0.48579678  0.48789312  0.37203978  1
  O  O332  1  0.48732354  0.49483962  0.87110502  1
  O  O333  1  0.50402209  1.00031556  0.37812098  1
  O  O334  1  0.49943435  1.01183604  0.89619276  1
  O  O335  1  0.98516195  0.50610892  0.37442606  1
  O  O336  1  0.99827506  0.49396093  0.88082735  1
  O  O337  1  0.99995821  0.98366779  0.37259806  1
  O  O338  1  0.98621537  0.99680326  0.87788143  1
  O  O339  1  0.01268992  0.00593688  0.12499930  1
  O  O340  1  0.00720219  0.00013731  0.63466135  1
  O  O341  1  0.00971103  0.50523826  0.11867995  1
  O  O342  1  0.00057864  0.51296334  0.62512583  1
  O  O343  1  0.51064183  0.00953278  0.11214183  1
  O  O344  1  0.50300680  0.01414838  0.61507274  1
  O  O345  1  0.51546109  0.49992734  0.12553667  1
  O  O346  1  0.51247033  0.50402239  0.62761664  1
  O  O347  1  0.24448622  0.37030594  0.23978727  1
  O  O348  1  0.24624620  0.37866126  0.74473757  1
  O  O349  1  0.24146746  0.88333674  0.24563617  1
  O  O350  1  0.24389932  0.87950549  0.74586080  1
  O  O351  1  0.74534881  0.38364440  0.24139542  1
  O  O352  1  0.75068855  0.38546202  0.73906408  1
  O  O353  1  0.74553884  0.88599275  0.24233846  1
  O  O354  1  0.74979749  0.87961856  0.73341727  1
  O  O355  1  0.26364318  0.11812536  0.24881687  1
  O  O356  1  0.25856199  0.12043592  0.75402746  1
  O  O357  1  0.25855097  0.62156179  0.24783344  1
  O  O358  1  0.25914164  0.61076737  0.74104262  1
  O  O359  1  0.75560922  0.10930420  0.24073983  1
  O  O360  1  0.76285078  0.12596402  0.74297581  1
  O  O361  1  0.75160506  0.62191995  0.25546351  1
  O  O362  1  0.75315370  0.62328987  0.75930971  1
  O  O363  1  0.37926974  0.13058539  0.36793584  1
  O  O364  1  0.37128994  0.13031619  0.86220517  1
  O  O365  1  0.37268617  0.61067167  0.36719681  1
  O  O366  1  0.37523223  0.61588999  0.86437463  1
  O  O367  1  0.87268966  0.12333555  0.35635744  1
  O  O368  1  0.87550781  0.11704840  0.86875965  1
  O  O369  1  0.86688206  0.62208303  0.36880460  1
  O  O370  1  0.86587015  0.62624210  0.87016087  1
  O  O371  1  0.12992759  0.38058243  0.13359150  1
  O  O372  1  0.13302036  0.37683773  0.63392023  1
  O  O373  1  0.12843316  0.88413749  0.13191890  1
  O  O374  1  0.13086087  0.88382128  0.63103058  1
  O  O375  1  0.62971504  0.38357018  0.12786632  1
  O  O376  1  0.63243027  0.38510599  0.62729890  1
  O  O377  1  0.63051084  0.88333322  0.13431084  1
  O  O378  1  0.63167569  0.88983554  0.61191299  1
  O  O379  1  0.12443531  0.26313701  0.25282346  1
  O  O380  1  0.11799564  0.25203655  0.75311900  1
  O  O381  1  0.11770772  0.75243909  0.25728075  1
  O  O382  1  0.13119725  0.75683245  0.75614447  1
  O  O383  1  0.63056424  0.26681936  0.24422472  1
  O  O384  1  0.62004303  0.25159447  0.75455184  1
  O  O385  1  0.62598175  0.76737396  0.25013131  1
  O  O386  1  0.60365298  0.74886720  0.76090718  1
  O  O387  1  0.37428679  0.23643029  0.24912784  1
  O  O388  1  0.38300541  0.24440728  0.74781202  1
  O  O389  1  0.36881864  0.73302476  0.24867104  1
  O  O390  1  0.36086466  0.73595705  0.73441637  1
  O  O391  1  0.86699873  0.23953852  0.23500224  1
  O  O392  1  0.88011167  0.24430931  0.74343586  1
  O  O393  1  0.88211734  0.74442963  0.24684438  1
  O  O394  1  0.87584731  0.73979744  0.74357463  1
  O  O395  1  0.36975300  0.49074588  0.48959579  1
  O  O396  1  0.36684950  0.49188901  0.99022697  1
  O  O397  1  0.37079194  0.98218724  0.50261601  1
  O  O398  1  0.38760583  0.99760063  0.99719706  1
  O  O399  1  0.87645692  0.50350114  0.48934035  1
  O  O400  1  0.88384086  0.49292284  1.00001345  1
  O  O401  1  0.89150177  1.02010333  0.51821634  1
  O  O402  1  0.87518930  0.99115675  0.99405734  1
  O  O403  1  0.12717054  0.00658520  0.00865805  1
  O  O404  1  0.13233132  0.00712632  0.51125818  1
  O  O405  1  0.12174983  0.50654337  0.00493759  1
  O  O406  1  0.12128885  0.50778905  0.50194757  1
  O  O407  1  0.62000316  0.00049317  0.00677452  1
  O  O408  1  0.62608073  0.01839826  0.50701958  1
  O  O409  1  0.63264222  0.50026284  0.01158592  1
  O  O410  1  0.63275742  0.51504435  0.51151563  1
  O  O411  1  0.36748089  0.37732621  0.12171453  1
  O  O412  1  0.36949288  0.37716934  0.61761162  1
  O  O413  1  0.36035692  0.87430609  0.13415206  1
  O  O414  1  0.36790855  0.86533160  0.61660775  1
  O  O415  1  0.87305550  0.36634632  0.12054549  1
  O  O416  1  0.86799147  0.36896103  0.62882388  1
  O  O417  1  0.86588987  0.87460089  0.11493325  1
  O  O418  1  0.86964187  0.86404416  0.62998277  1
  O  O419  1  0.11274751  0.12931796  0.38976710  1
  O  O420  1  0.13301992  0.12748838  0.88071166  1
  O  O421  1  0.11774539  0.63176526  0.38720806  1
  O  O422  1  0.12554368  0.63373841  0.88278596  1
  O  O423  1  0.62176162  0.13213290  0.38555313  1
  O  O424  1  0.62465453  0.14013067  0.87620596  1
  O  O425  1  0.63019949  0.62001570  0.38262701  1
  O  O426  1  0.63768748  0.62118072  0.89153867  1
