# generated using pymatgen
data_V85Zn86O256
_symmetry_space_group_name_H-M   'P 1'
_cell_length_a   16.93543955
_cell_length_b   16.93745776
_cell_length_c   16.93710097
_cell_angle_alpha   90.10852018
_cell_angle_beta   89.97500892
_cell_angle_gamma   89.96905995
_symmetry_Int_Tables_number   1
_chemical_formula_structural   V85Zn86O256
_chemical_formula_sum   'V85 Zn86 O256'
_cell_volume   4858.28391546
_cell_formula_units_Z   1
loop_
 _symmetry_equiv_pos_site_id
 _symmetry_equiv_pos_as_xyz
  1  'x, y, z'
loop_
 _atom_site_type_symbol
 _atom_site_label
 _atom_site_symmetry_multiplicity
 _atom_site_fract_x
 _atom_site_fract_y
 _atom_site_fract_z
 _atom_site_occupancy
  V  V0  1  0.75218064  0.62875301  0.87525260  1
  V  V1  1  0.37506909  0.74981850  0.12561407  1
  V  V2  1  0.12614776  0.24840995  0.87638124  1
  V  V3  1  0.37519346  0.87278501  -0.00236082  1
  V  V4  1  -0.00152970  0.24530674  0.74992153  1
  V  V5  1  0.87435132  0.74498159  0.61614923  1
  V  V6  1  0.88757128  0.49822875  0.37049479  1
  V  V7  1  0.24940269  0.50280474  0.26108480  1
  V  V8  1  0.74603550  0.37607184  0.62492563  1
  V  V9  1  0.49646666  0.49838690  -0.00798780  1
  V  V10  1  0.49612628  0.13273696  0.12462036  1
  V  V11  1  0.00171862  0.62792242  0.12683823  1
  V  V12  1  0.25921705  0.37516427  0.12931455  1
  V  V13  1  0.62523876  0.62656063  0.50482542  1
  V  V14  1  0.37029364  0.62842463  0.26138182  1
  V  V15  1  0.12514863  0.74258212  0.87635514  1
  V  V16  1  0.37679443  0.24530296  0.62405321  1
  V  V17  1  0.37356894  -0.00747386  0.37014549  1
  V  V18  1  0.62789049  0.13307126  -0.01149878  1
  V  V19  1  0.88593800  0.38266552  0.49993234  1
  V  V20  1  0.24700653  0.74416729  0.00103471  1
  V  V21  1  0.24293090  0.00247040  0.24409496  1
  V  V22  1  0.63195901  0.37665402  0.25339543  1
  V  V23  1  0.63260960  0.75765234  0.38014887  1
  V  V24  1  0.37442809  0.37683994  0.49853002  1
  V  V25  1  0.75358546  0.87822405  0.11620722  1
  V  V26  1  0.00100943  0.74623404  0.74403797  1
  V  V27  1  0.25200306  -0.00322377  0.74801936  1
  V  V28  1  0.12680102  0.37379125  0.74919558  1
  V  V29  1  0.25639480  0.61982849  0.87605509  1
  V  V30  1  0.62562508  0.62689975  0.00153242  1
  V  V31  1  0.12035080  0.62370893  0.48739101  1
  V  V32  1  0.00612629  0.12767675  0.13117550  1
  V  V33  1  0.37822829  0.37671890  -0.01177890  1
  V  V34  1  0.49983055  0.87288279  0.86812556  1
  V  V35  1  0.61408022  0.50237367  0.62698046  1
  V  V36  1  0.87695467  0.00162251  0.88882208  1
  V  V37  1  0.87761436  0.75514708  0.11978462  1
  V  V38  1  0.87235285  0.24601887  0.62793644  1
  V  V39  1  0.25721407  0.49939309  0.75113420  1
  V  V40  1  0.00058888  -0.00677341  0.49036791  1
  V  V41  1  0.50110365  0.25428458  0.24970808  1
  V  V42  1  0.11385213  0.37249106  0.25326399  1
  V  V43  1  0.38882084  0.74873266  0.62324977  1
  V  V44  1  0.74588084  0.61173607  0.37120801  1
  V  V45  1  -0.00396733  0.12101631  0.62720712  1
  V  V46  1  0.12897885  0.50450227  0.12332853  1
  V  V47  1  0.50039708  0.62431384  0.12824537  1
  V  V48  1  0.11284895  0.87403055  0.24738403  1
  V  V49  1  0.87762354  0.86858549  0.48878777  1
  V  V50  1  0.62565064  0.87340347  0.74657916  1
  V  V51  1  0.49981277  -0.00755844  0.49352272  1
  V  V52  1  0.50281071  0.25025450  0.76199206  1
  V  V53  1  0.74632478  0.12870319  0.37349145  1
  V  V54  1  0.87947046  0.62474505  0.74388225  1
  V  V55  1  0.25321966  0.24952261  0.00841603  1
  V  V56  1  0.10780443  0.25367121  0.37415978  1
  V  V57  1  0.25022789  0.24578714  0.48873662  1
  V  V58  1  0.62341539  0.00260008  0.12415040  1
  V  V59  1  0.50156328  0.75804404  0.25643572  1
  V  V60  1  0.75050742  0.00158518  0.25030428  1
  V  V61  1  0.74974869  0.50060882  0.74839874  1
  V  V62  1  0.37212426  0.13129741  0.25486829  1
  V  V63  1  0.62132127  0.12808461  0.49790079  1
  V  V64  1  0.11324535  0.50850644  0.62249265  1
  V  V65  1  0.00766833  0.50583821  -0.00114528  1
  V  V66  1  0.62248617  0.75082642  0.87251419  1
  V  V67  1  0.76167159  0.00580715  0.74434871  1
  V  V68  1  0.12393455  0.87189177  0.74910525  1
  V  V69  1  0.63508476  0.50163218  0.13053790  1
  V  V70  1  0.49947121  0.00025650  -0.00219207  1
  V  V71  1  0.50378679  0.37423470  0.37715999  1
  V  V72  1  0.87807864  0.50243675  0.87448422  1
  V  V73  1  0.12454970  -0.00265719  0.62300052  1
  V  V74  1  0.25080051  0.12373073  0.87340553  1
  V  V75  1  0.87710907  0.13695987  0.25124053  1
  V  V76  1  0.24836157  0.37324725  0.62469971  1
  V  V77  1  0.75157300  0.87086347  0.61815066  1
  V  V78  1  0.87652551  0.37212957  0.00114930  1
  V  V79  1  0.62190791  0.37264370  0.76423614  1
  V  V80  1  0.00297288  0.37447394  0.87648462  1
  V  V81  1  0.12633365  0.11428385  0.00509278  1
  V  V82  1  0.12790487  0.12207526  0.49312906  1
  V  V83  1  0.74449501  0.25290036  0.49602992  1
  V  V84  1  0.38763731  0.62732175  0.74589382  1
  Zn  Zn85  1  0.25266075  0.74198825  0.49530884  1
  Zn  Zn86  1  0.00316519  -0.01022627  0.00983887  1
  Zn  Zn87  1  -0.00892190  0.75409119  0.26183671  1
  Zn  Zn88  1  0.62196508  0.87925344  0.25261732  1
  Zn  Zn89  1  0.62258636  -0.00076317  0.62291561  1
  Zn  Zn90  1  0.75276112  0.37504653  0.12706333  1
  Zn  Zn91  1  0.24677409  0.87983472  0.12130028  1
  Zn  Zn92  1  0.87706904  -0.00390166  0.37137479  1
  Zn  Zn93  1  0.25186181  0.86735439  0.62054826  1
  Zn  Zn94  1  0.75440575  0.75793267  -0.00353920  1
  Zn  Zn95  1  0.37429544  0.86899397  0.49458135  1
  Zn  Zn96  1  0.87637591  0.25453658  0.12779012  1
  Zn  Zn97  1  0.75673425  0.13524821  0.86298500  1
  Zn  Zn98  1  0.50026286  0.12394448  0.62368460  1
  Zn  Zn99  1  -0.00997791  0.86943638  0.88138224  1
  Zn  Zn100  1  0.37564540  -0.00200446  0.87220374  1
  Zn  Zn101  1  0.86897476  0.62178901  0.24629805  1
  Zn  Zn102  1  0.12563827  0.75474222  0.37545227  1
  Zn  Zn103  1  0.74387463  0.25803745  -0.00564130  1
  Zn  Zn104  1  0.49601094  0.50462702  0.50313120  1
  Zn  Zn105  1  0.37838510  0.12225809  0.74952358  1
  Zn  Zn106  1  0.37208899  0.50530251  0.38185617  1
  Zn  Zn107  1  0.18724325  0.18913012  0.19179271  1
  Zn  Zn108  1  0.18712060  0.18484126  0.68362455  1
  Zn  Zn109  1  0.18685958  0.68942090  0.19036487  1
  Zn  Zn110  1  0.19609972  0.68570044  0.68193902  1
  Zn  Zn111  1  0.68734636  0.19459321  0.18150549  1
  Zn  Zn112  1  0.68260858  0.18772619  0.68438222  1
  Zn  Zn113  1  0.69001348  0.69083308  0.19113651  1
  Zn  Zn114  1  0.68889198  0.68909977  0.68636427  1
  Zn  Zn115  1  0.31186571  0.31354555  0.31216600  1
  Zn  Zn116  1  0.31484290  0.30898242  0.81296292  1
  Zn  Zn117  1  0.30217734  0.81355905  0.31548115  1
  Zn  Zn118  1  0.31349196  0.80718709  0.80800999  1
  Zn  Zn119  1  0.81288659  0.31651787  0.31777214  1
  Zn  Zn120  1  0.81110738  0.31266135  0.81470634  1
  Zn  Zn121  1  0.80721115  0.80860520  0.30551240  1
  Zn  Zn122  1  0.81213152  0.81648737  0.80954633  1
  Zn  Zn123  1  0.18160211  0.43647348  0.43959519  1
  Zn  Zn124  1  0.19095062  0.43770715  0.93838223  1
  Zn  Zn125  1  0.19476402  0.93264041  0.43158957  1
  Zn  Zn126  1  0.18634698  0.93106232  0.93392488  1
  Zn  Zn127  1  0.68537321  0.43802111  0.43980663  1
  Zn  Zn128  1  0.68925174  0.44290878  0.94059403  1
  Zn  Zn129  1  0.69032501  0.93964239  0.43853669  1
  Zn  Zn130  1  0.68900187  0.94524031  0.93276937  1
  Zn  Zn131  1  0.31724988  0.06344371  0.06431913  1
  Zn  Zn132  1  0.31193337  0.06043346  0.55925871  1
  Zn  Zn133  1  0.31453197  0.56187513  0.06540931  1
  Zn  Zn134  1  0.30737805  0.56426832  0.56687624  1
  Zn  Zn135  1  0.81190490  0.07022255  0.06558805  1
  Zn  Zn136  1  0.81295424  0.05970301  0.55931234  1
  Zn  Zn137  1  0.81584446  0.56408173  0.05955586  1
  Zn  Zn138  1  0.80675904  0.56374823  0.55851383  1
  Zn  Zn139  1  0.43789966  0.44142786  0.18778223  1
  Zn  Zn140  1  0.43620671  0.43234499  0.69107320  1
  Zn  Zn141  1  0.43494462  0.93844621  0.18544997  1
  Zn  Zn142  1  0.43893958  0.93668362  0.68311910  1
  Zn  Zn143  1  0.93776351  0.44095758  0.18661534  1
  Zn  Zn144  1  0.93580495  0.43190268  0.68863560  1
  Zn  Zn145  1  0.93461966  0.94424588  0.18351961  1
  Zn  Zn146  1  0.93871674  0.93123239  0.68416707  1
  Zn  Zn147  1  0.06376205  0.06520749  0.31215718  1
  Zn  Zn148  1  0.06030342  0.05979868  0.81380592  1
  Zn  Zn149  1  0.06036647  0.56289949  0.30877575  1
  Zn  Zn150  1  0.06686956  0.56326529  0.80805677  1
  Zn  Zn151  1  0.56137959  0.06577314  0.31395071  1
  Zn  Zn152  1  0.56294207  0.05936101  0.80791505  1
  Zn  Zn153  1  0.55873020  0.56127809  0.31504672  1
  Zn  Zn154  1  0.56462485  0.56041481  0.81431340  1
  Zn  Zn155  1  0.43905394  0.18789517  0.43245945  1
  Zn  Zn156  1  0.43360839  0.18869371  0.94064917  1
  Zn  Zn157  1  0.44573947  0.68941396  0.43884831  1
  Zn  Zn158  1  0.43781387  0.68582486  0.93467124  1
  Zn  Zn159  1  0.93243276  0.18482630  0.44285704  1
  Zn  Zn160  1  0.93845646  0.18133161  0.93747408  1
  Zn  Zn161  1  0.94782566  0.67833416  0.43864673  1
  Zn  Zn162  1  0.93992708  0.68843190  0.93982842  1
  Zn  Zn163  1  0.06522035  0.31132747  0.06682976  1
  Zn  Zn164  1  0.06358315  0.31029247  0.56353618  1
  Zn  Zn165  1  0.06598912  0.81596089  0.06577464  1
  Zn  Zn166  1  0.06138581  0.80685187  0.55993236  1
  Zn  Zn167  1  0.56035304  0.31466365  0.06568767  1
  Zn  Zn168  1  0.56124642  0.31332285  0.56640233  1
  Zn  Zn169  1  0.56423005  0.81344790  0.06135250  1
  Zn  Zn170  1  0.56137934  0.81244641  0.55969847  1
  O  O171  1  0.11592665  0.13014639  0.11982560  1
  O  O172  1  0.11770428  0.11815597  0.61402273  1
  O  O173  1  0.11929029  0.61257692  0.12990396  1
  O  O174  1  0.12306444  0.60887420  0.63595054  1
  O  O175  1  0.61608068  0.11716114  0.11875967  1
  O  O176  1  0.62468406  0.12093169  0.60921548  1
  O  O177  1  0.61953609  0.62148106  0.12371205  1
  O  O178  1  0.63248485  0.61691557  0.61793608  1
  O  O179  1  0.37827232  0.37510916  0.38842050  1
  O  O180  1  0.36927226  0.37683540  0.88944756  1
  O  O181  1  0.37672493  0.88940215  0.37048998  1
  O  O182  1  0.38444821  0.87097530  0.87786626  1
  O  O183  1  0.87048391  0.38741892  0.38787647  1
  O  O184  1  0.88506983  0.38505584  0.87834839  1
  O  O185  1  0.86449736  0.87232197  0.38607702  1
  O  O186  1  0.87341150  0.89416977  0.86775200  1
  O  O187  1  0.26531235  0.00283867  0.36180227  1
  O  O188  1  0.24933339  0.00495053  0.86355514  1
  O  O189  1  0.25173692  0.49365887  0.36392888  1
  O  O190  1  0.24499164  0.51051446  0.86711788  1
  O  O191  1  0.75107839  0.00853991  0.36585252  1
  O  O192  1  0.76019848  0.00462574  0.86149536  1
  O  O193  1  0.75341774  0.50905212  0.37665408  1
  O  O194  1  0.75739375  0.50819880  0.86796745  1
  O  O195  1  0.24400549  0.49465577  0.13174850  1
  O  O196  1  0.24253490  0.49047997  0.63521558  1
  O  O197  1  0.25839091  1.00009990  0.13979812  1
  O  O198  1  0.24324677  1.00046075  0.63535930  1
  O  O199  1  0.73819292  0.50185125  0.12239146  1
  O  O200  1  0.74270553  0.49468299  0.63170877  1
  O  O201  1  0.74328790  0.99929645  0.13091016  1
  O  O202  1  0.74896031  0.99292058  0.63141207  1
  O  O203  1  0.01492095  0.37717326  0.24223189  1
  O  O204  1  0.00581092  0.36630367  0.75755932  1
  O  O205  1  0.00938006  0.88000989  0.24506704  1
  O  O206  1  0.00736678  0.86515269  0.75452965  1
  O  O207  1  0.50278803  0.37087503  0.25597193  1
  O  O208  1  0.50676836  0.36121386  0.74821420  1
  O  O209  1  0.50189651  0.86150177  0.24227450  1
  O  O210  1  0.50898234  0.88074955  0.76055865  1
  O  O211  1  0.49699660  0.13516051  0.24407921  1
  O  O212  1  0.50016727  0.13505965  0.74624647  1
  O  O213  1  0.49358643  0.63328580  0.24412198  1
  O  O214  1  0.48570811  0.61791173  0.75475256  1
  O  O215  1  0.99254013  0.12304485  0.24146469  1
  O  O216  1  1.00749878  0.12867067  0.73533392  1
  O  O217  1  0.99518461  0.62315246  0.23565431  1
  O  O218  1  0.98712818  0.63010157  0.75384799  1
  O  O219  1  0.36607373  0.26289940  -0.00070428  1
  O  O220  1  0.36841114  0.25346233  0.50462303  1
  O  O221  1  0.36835533  0.75369481  0.00313163  1
  O  O222  1  0.37841746  0.74684699  0.51098967  1
  O  O223  1  0.88318225  0.26678853  -0.00454389  1
  O  O224  1  0.86674741  0.25989255  0.50862200  1
  O  O225  1  0.87201574  0.74598221  0.01314320  1
  O  O226  1  0.88323458  0.75224012  0.50986992  1
  O  O227  1  0.13135112  0.24321790  0.49565734  1
  O  O228  1  0.13554122  0.24384065  0.99471054  1
  O  O229  1  0.12601218  0.73466180  0.50195892  1
  O  O230  1  0.13921954  0.75098131  0.99118040  1
  O  O231  1  0.63408800  0.24353351  0.50560788  1
  O  O232  1  0.61979450  0.23590302  1.00311540  1
  O  O233  1  0.62214752  0.74433777  0.48733384  1
  O  O234  1  0.62881405  0.74392038  0.99220470  1
  O  O235  1  0.49977308  0.24221173  0.13290549  1
  O  O236  1  0.49003840  0.24670235  0.63018838  1
  O  O237  1  0.49849339  0.73990677  0.12996280  1
  O  O238  1  0.48917981  0.74958933  0.62448162  1
  O  O239  1  0.99630615  0.23457846  0.11945128  1
  O  O240  1  0.99299246  0.24084599  0.62787560  1
  O  O241  1  0.99502962  0.74221479  0.12542988  1
  O  O242  1  0.99108343  0.75248620  0.63798996  1
  O  O243  1  0.00865120  0.24748821  0.38392659  1
  O  O244  1  0.00715078  0.25124845  0.86965969  1
  O  O245  1  0.01016866  0.74200792  0.37187233  1
  O  O246  1  0.00838852  0.74705471  0.86538692  1
  O  O247  1  0.49698485  0.26457624  0.36722087  1
  O  O248  1  0.49340349  0.24687869  0.86061909  1
  O  O249  1  0.51673304  0.74553939  0.36608814  1
  O  O250  1  0.51412245  0.75720200  0.87861427  1
  O  O251  1  0.23928430  0.13329226  0.50558260  1
  O  O252  1  0.24801792  0.13237765  0.99750136  1
  O  O253  1  0.22819334  0.62247477  0.51234067  1
  O  O254  1  0.26039288  0.63135113  0.98912243  1
  O  O255  1  0.74493953  0.13101515  0.49265268  1
  O  O256  1  0.73326329  0.12424262  0.99886353  1
  O  O257  1  0.73759174  0.62327177  0.48598151  1
  O  O258  1  0.74324860  0.62524298  0.99054252  1
  O  O259  1  0.25880179  0.36988495  0.00672167  1
  O  O260  1  0.25595229  0.36716339  0.50499535  1
  O  O261  1  0.25777455  0.86569467  -0.00103194  1
  O  O262  1  0.25692688  0.87322878  0.50381296  1
  O  O263  1  0.76274399  0.38018449  0.00122476  1
  O  O264  1  0.75303217  0.36759455  0.50576379  1
  O  O265  1  0.74227011  0.87969741  0.01237024  1
  O  O266  1  0.75881386  0.88032375  0.51169093  1
  O  O267  1  0.13215747  0.49374395  0.24385619  1
  O  O268  1  0.13534447  0.49213227  0.74450697  1
  O  O269  1  0.13876263  0.99942524  0.25235720  1
  O  O270  1  0.13000402  0.99009929  0.74710186  1
  O  O271  1  0.61568989  0.49097843  0.24065404  1
  O  O272  1  0.62968829  0.49483087  0.74484215  1
  O  O273  1  0.63272149  1.00361703  0.24260402  1
  O  O274  1  0.63491404  0.98776862  0.74765298  1
  O  O275  1  0.37253277  0.00689457  0.25653519  1
  O  O276  1  0.36578996  0.00132751  0.75022434  1
  O  O277  1  0.36664716  0.50990436  0.25118915  1
  O  O278  1  0.36494739  0.50739961  0.74355218  1
  O  O279  1  0.86316847  0.01163471  0.25090603  1
  O  O280  1  0.86327917  -0.00244884  0.74550389  1
  O  O281  1  0.87537586  0.49868626  0.26590302  1
  O  O282  1  0.87179257  0.50664079  0.75319293  1
  O  O283  1  0.12538252  0.36694407  0.36708079  1
  O  O284  1  0.12219369  0.36898400  0.87010552  1
  O  O285  1  0.12985794  0.88068397  0.35246352  1
  O  O286  1  0.12874075  0.86019335  0.86113614  1
  O  O287  1  0.61590181  0.38099002  0.36714002  1
  O  O288  1  0.62807735  0.38329896  0.86316608  1
  O  O289  1  0.63351537  0.86146411  0.37367414  1
  O  O290  1  0.62127489  0.87066138  0.86837585  1
  O  O291  1  0.38953109  0.11986171  0.13590412  1
  O  O292  1  0.37302814  0.13612821  0.62560253  1
  O  O293  1  0.38395175  0.63065529  0.13298704  1
  O  O294  1  0.37529684  0.63163921  0.63691832  1
  O  O295  1  0.88234689  0.13106228  0.13393442  1
  O  O296  1  0.88302840  0.13397993  0.61695483  1
  O  O297  1  0.88346236  0.63001265  0.12557346  1
  O  O298  1  0.86717463  0.63155632  0.63232742  1
  O  O299  1  0.24523780  0.25878447  0.11576039  1
  O  O300  1  0.25622524  0.25528984  0.61828005  1
  O  O301  1  0.25648092  0.74895227  0.11554111  1
  O  O302  1  0.26553827  0.74948157  0.62110759  1
  O  O303  1  0.75605217  0.25529931  0.11403297  1
  O  O304  1  0.75574608  0.25394165  0.61854145  1
  O  O305  1  0.75528712  0.76153679  0.12353317  1
  O  O306  1  0.76183353  0.75955901  0.62988729  1
  O  O307  1  0.24494371  0.25293065  0.38693125  1
  O  O308  1  0.24575599  0.24169208  0.88227245  1
  O  O309  1  0.24137963  0.74927729  0.38001486  1
  O  O310  1  0.24523778  0.74095796  0.87926433  1
  O  O311  1  0.75368926  0.24401920  0.38799278  1
  O  O312  1  0.75390574  0.24618305  0.88078676  1
  O  O313  1  0.73642328  0.73886141  0.37054438  1
  O  O314  1  0.74201197  0.74842262  0.87539518  1
  O  O315  1  0.01196606  0.12056368  0.00769301  1
  O  O316  1  0.00508589  0.11664768  0.50992190  1
  O  O317  1  -0.00132416  0.61312888  0.00849361  1
  O  O318  1  0.02007947  0.61879387  0.50792590  1
  O  O319  1  0.50517248  0.12192840  0.00589312  1
  O  O320  1  0.50794116  0.11991192  0.49662502  1
  O  O321  1  0.50428821  0.62074415  0.00826361  1
  O  O322  1  0.51848373  0.61958136  0.49371361  1
  O  O323  1  0.49209899  0.37531253  0.49450353  1
  O  O324  1  0.48545104  0.38131128  1.00674403  1
  O  O325  1  0.49623239  0.88852193  0.49967244  1
  O  O326  1  0.49656691  0.87870502  0.98893361  1
  O  O327  1  0.98385035  0.37171118  0.50676324  1
  O  O328  1  0.99891212  0.38535836  0.99556497  1
  O  O329  1  0.99104441  0.88256310  0.50592610  1
  O  O330  1  1.01334741  0.87919506  0.99171099  1
  O  O331  1  0.49293887  0.48744410  0.37744196  1
  O  O332  1  0.50342869  0.50487927  0.89279217  1
  O  O333  1  0.48753500  1.00541184  0.37897505  1
  O  O334  1  0.49871995  0.99135048  0.87973775  1
  O  O335  1  0.98616814  0.50258780  0.37669827  1
  O  O336  1  1.00035340  0.49781396  0.88121067  1
  O  O337  1  0.99696048  1.00577730  0.38707760  1
  O  O338  1  0.98592454  0.99961557  0.87638547  1
  O  O339  1  -0.00556273  0.02027275  0.12220275  1
  O  O340  1  0.00516270  0.00438699  0.61820745  1
  O  O341  1  0.00814334  0.50623404  0.11739486  1
  O  O342  1  0.01585179  0.49204842  0.63441440  1
  O  O343  1  0.50692715  0.00642414  0.11941343  1
  O  O344  1  0.50029081  0.00474265  0.61236447  1
  O  O345  1  0.50508404  0.51273349  0.12008465  1
  O  O346  1  0.51130433  0.49452117  0.62654963  1
  O  O347  1  0.24618107  0.38268648  0.24370353  1
  O  O348  1  0.24829937  0.37996358  0.74674087  1
  O  O349  1  0.24950350  0.89078143  0.24432403  1
  O  O350  1  0.24341585  0.88101180  0.74745816  1
  O  O351  1  0.73548124  0.36960371  0.25036539  1
  O  O352  1  0.74344761  0.38075143  0.74391455  1
  O  O353  1  0.74582764  0.88699162  0.23953744  1
  O  O354  1  0.74548134  0.88478506  0.73879979  1
  O  O355  1  0.25981344  0.11601469  0.24422278  1
  O  O356  1  0.24862260  0.11742014  0.75813966  1
  O  O357  1  0.25969057  0.61612676  0.24340103  1
  O  O358  1  0.25874827  0.61577350  0.75646626  1
  O  O359  1  0.75278248  0.12333718  0.25572474  1
  O  O360  1  0.74198769  0.10927000  0.74532222  1
  O  O361  1  0.75058429  0.62532909  0.26580352  1
  O  O362  1  0.76041163  0.62194022  0.75635192  1
  O  O363  1  0.37927976  0.11829109  0.35989065  1
  O  O364  1  0.36116368  0.12283020  0.87491652  1
  O  O365  1  0.38131945  0.62482046  0.36450443  1
  O  O366  1  0.36676991  0.63103599  0.86054371  1
  O  O367  1  0.86361872  0.12281672  0.37065990  1
  O  O368  1  0.87426998  0.10912675  0.87324609  1
  O  O369  1  0.86434452  0.61049735  0.38027652  1
  O  O370  1  0.87138494  0.62150356  0.86851739  1
  O  O371  1  0.13530666  0.38337153  0.13074386  1
  O  O372  1  0.13065005  0.37860830  0.63047629  1
  O  O373  1  0.13109099  0.87751608  0.14064330  1
  O  O374  1  0.12482961  0.87821841  0.63525814  1
  O  O375  1  0.62477614  0.38576553  0.13268629  1
  O  O376  1  0.63014471  0.38309424  0.63233254  1
  O  O377  1  0.62792291  0.89010820  0.12561469  1
  O  O378  1  0.63277731  0.87409868  0.62947787  1
  O  O379  1  0.13082174  0.25911720  0.26298966  1
  O  O380  1  0.12105826  0.25433386  0.75449788  1
  O  O381  1  0.12118995  0.76475269  0.24709958  1
  O  O382  1  0.11924206  0.75211173  0.75179015  1
  O  O383  1  0.61089322  0.26062639  0.24426535  1
  O  O384  1  0.61162287  0.25730377  0.74520894  1
  O  O385  1  0.61844651  0.75257289  0.25998360  1
  O  O386  1  0.63189503  0.76386029  0.75696904  1
  O  O387  1  0.38484974  0.24394954  0.25395730  1
  O  O388  1  0.38443214  0.24896002  0.74193279  1
  O  O389  1  0.38135792  0.74558367  0.24614550  1
  O  O390  1  0.37539798  0.73606869  0.74013126  1
  O  O391  1  0.87095600  0.24027386  0.25332314  1
  O  O392  1  0.88083136  0.25802547  0.73450390  1
  O  O393  1  0.87494891  0.74559123  0.23629608  1
  O  O394  1  0.88163341  0.74326056  0.74358921  1
  O  O395  1  0.37451976  0.49137960  0.50349046  1
  O  O396  1  0.38143453  0.48721454  1.00571447  1
  O  O397  1  0.37983737  1.00305344  0.48470301  1
  O  O398  1  0.38123849  0.99169696  0.99621760  1
  O  O399  1  0.86993863  0.48773682  0.49518373  1
  O  O400  1  0.88600317  0.49248267  0.99414552  1
  O  O401  1  0.88352127  0.98860655  0.49795443  1
  O  O402  1  0.87214251  1.00262224  0.99072658  1
  O  O403  1  0.13254661  0.01229060  -0.00327637  1
  O  O404  1  0.12041564  0.00426467  0.50124647  1
  O  O405  1  0.11927767  0.49464802  0.00999345  1
  O  O406  1  0.12781899  0.50416401  0.51560710  1
  O  O407  1  0.61856762  0.00998337  0.00536456  1
  O  O408  1  0.61635445  0.00751496  0.49678699  1
  O  O409  1  0.61705975  0.50654450  0.01008032  1
  O  O410  1  0.62409287  0.50594385  0.51167507  1
  O  O411  1  0.36255892  0.37985617  0.12088007  1
  O  O412  1  0.37083806  0.36468981  0.61563060  1
  O  O413  1  0.37568883  0.86683440  0.11433861  1
  O  O414  1  0.37584971  0.85906608  0.62630954  1
  O  O415  1  0.87506078  0.37638185  0.11619023  1
  O  O416  1  0.86699137  0.37080875  0.61559182  1
  O  O417  1  0.86569365  0.86932409  0.12787405  1
  O  O418  1  0.86935903  0.86505854  0.61641953  1
  O  O419  1  0.12121273  0.13241754  0.38731157  1
  O  O420  1  0.13464844  0.12738809  0.88241786  1
  O  O421  1  0.12601395  0.61532960  0.38560225  1
  O  O422  1  0.13619612  0.63643003  0.86727597  1
  O  O423  1  0.63733313  0.12403465  0.38320988  1
  O  O424  1  0.62479171  0.11922576  0.88735038  1
  O  O425  1  0.63361714  0.62733105  0.37863674  1
  O  O426  1  0.63102087  0.63428904  0.87683449  1
