# generated using pymatgen
data_V85Zn86O256
_symmetry_space_group_name_H-M   'P 1'
_cell_length_a   16.93705620
_cell_length_b   16.94533031
_cell_length_c   16.94886237
_cell_angle_alpha   89.99701905
_cell_angle_beta   90.07832406
_cell_angle_gamma   89.92604888
_symmetry_Int_Tables_number   1
_chemical_formula_structural   V85Zn86O256
_chemical_formula_sum   'V85 Zn86 O256'
_cell_volume   4864.38289083
_cell_formula_units_Z   1
loop_
 _symmetry_equiv_pos_site_id
 _symmetry_equiv_pos_as_xyz
  1  'x, y, z'
loop_
 _atom_site_type_symbol
 _atom_site_label
 _atom_site_symmetry_multiplicity
 _atom_site_fract_x
 _atom_site_fract_y
 _atom_site_fract_z
 _atom_site_occupancy
  V  V0  1  0.37462947  0.49763983  0.37300383  1
  V  V1  1  0.48826519  0.00016406  0.49611142  1
  V  V2  1  0.74350112  0.00104073  0.24377302  1
  V  V3  1  0.74861161  -0.00189580  0.75401027  1
  V  V4  1  0.62356348  0.50016889  0.12416071  1
  V  V5  1  0.25118068  0.48777119  0.24373017  1
  V  V6  1  0.49417884  0.87772952  0.36852972  1
  V  V7  1  0.75658830  0.24921990  -0.00181565  1
  V  V8  1  0.74738157  0.50239346  0.25089992  1
  V  V9  1  0.00630411  0.37844273  0.87469872  1
  V  V10  1  0.37525224  0.11924883  0.24883761  1
  V  V11  1  0.00225002  0.63224316  0.12214323  1
  V  V12  1  0.24990638  0.14730847  0.88186071  1
  V  V13  1  0.13626582  0.38031288  0.75047919  1
  V  V14  1  0.00875133  0.25168174  0.75399216  1
  V  V15  1  0.62612605  0.24998146  0.87370840  1
  V  V16  1  0.86909379  0.76505981  0.12518082  1
  V  V17  1  0.75126285  0.87255680  0.62782159  1
  V  V18  1  0.49840713  0.37312619  0.37619581  1
  V  V19  1  0.26363810  0.74586334  0.00528736  1
  V  V20  1  0.12501665  0.62621476  0.50025182  1
  V  V21  1  0.36945170  0.37205217  0.00649610  1
  V  V22  1  0.37680876  0.63659320  0.24745086  1
  V  V23  1  0.12296589  0.75054752  0.88147506  1
  V  V24  1  0.00129767  0.50569951  -0.00028886  1
  V  V25  1  0.74835921  0.62931077  0.37564645  1
  V  V26  1  0.88624187  0.87251623  -0.01779218  1
  V  V27  1  0.12803585  0.49132527  0.12654422  1
  V  V28  1  0.87748716  0.11852508  0.75018513  1
  V  V29  1  0.13657244  0.49988258  0.63042151  1
  V  V30  1  0.62355434  0.62696801  -0.00091209  1
  V  V31  1  0.00013917  0.74932114  0.25310229  1
  V  V32  1  0.49641864  0.75070283  0.73485292  1
  V  V33  1  0.87226828  0.63077563  0.24853345  1
  V  V34  1  0.62548018  0.12231800  0.49777802  1
  V  V35  1  0.00192090  0.87084265  0.37743162  1
  V  V36  1  0.75190569  0.75314937  0.50008577  1
  V  V37  1  0.49031286  0.12897641  0.62349398  1
  V  V38  1  0.12168589  0.25280794  0.36329391  1
  V  V39  1  0.37715834  0.50126861  0.87268376  1
  V  V40  1  -0.00066319  0.49158148  0.50456721  1
  V  V41  1  0.87983808  0.25019006  0.62501773  1
  V  V42  1  0.12763347  0.12331315  0.49976942  1
  V  V43  1  0.49827390  0.24943167  0.24678049  1
  V  V44  1  0.61844737  0.75207030  0.37042637  1
  V  V45  1  0.37003421  0.37035050  0.51425458  1
  V  V46  1  0.93374767  0.04681738  0.92848849  1
  V  V47  1  0.00312186  0.12321844  0.62772073  1
  V  V48  1  0.87641548  0.50010242  0.37651919  1
  V  V49  1  0.74359755  0.76284577  0.00188547  1
  V  V50  1  0.87307022  0.50546827  0.87462597  1
  V  V51  1  0.50051179  0.50252850  0.50635022  1
  V  V52  1  0.26075434  -0.00369542  0.75956018  1
  V  V53  1  0.87674045  0.22522925  0.14438723  1
  V  V54  1  0.75094316  0.24752224  0.49977338  1
  V  V55  1  0.62109744  0.62731144  0.50694863  1
  V  V56  1  0.62437710  0.12438361  0.00011309  1
  V  V57  1  0.87260510  0.62994222  0.73990201  1
  V  V58  1  0.62302197  0.37451199  0.24931993  1
  V  V59  1  0.62673671  0.37371820  0.75013856  1
  V  V60  1  0.62496439  -0.00401156  0.62557207  1
  V  V61  1  -0.00123898  -0.00345344  0.50713640  1
  V  V62  1  0.89568186  0.01486268  0.34565950  1
  V  V63  1  0.87588816  0.37877166  0.00681736  1
  V  V64  1  0.49157076  0.25193881  0.74687980  1
  V  V65  1  0.25529138  0.86335305  0.62484365  1
  V  V66  1  0.25310728  -0.00338549  0.25329422  1
  V  V67  1  0.87487788  0.87261070  0.50329163  1
  V  V68  1  0.49703781  0.63730891  0.13023044  1
  V  V69  1  0.62186001  0.87150993  0.24216455  1
  V  V70  1  0.25648666  0.86649483  0.13093518  1
  V  V71  1  0.74896395  0.50051622  0.75038504  1
  V  V72  1  0.25396310  0.62336343  0.86975102  1
  V  V73  1  0.37366056  0.88459481  -0.00103408  1
  V  V74  1  0.61884113  0.75482941  0.86853807  1
  V  V75  1  0.13035005  0.74722946  0.37899164  1
  V  V76  1  0.75149730  0.37435910  0.62521135  1
  V  V77  1  0.37211622  0.85630042  0.50152532  1
  V  V78  1  0.25650379  0.12203581  0.37676029  1
  V  V79  1  0.37709707  0.62318894  0.73367674  1
  V  V80  1  -0.00240229  0.75259358  0.74870800  1
  V  V81  1  0.49290603  0.12419688  0.12030952  1
  V  V82  1  0.24735210  0.62223739  0.37534260  1
  V  V83  1  0.49324961  0.88058936  0.86823557  1
  V  V84  1  0.12404276  0.87451639  0.75394687  1
  Zn  Zn85  1  0.21604377  0.26557530  0.01134374  1
  Zn  Zn86  1  0.35812438  0.25110100  0.12541780  1
  Zn  Zn87  1  0.74686293  0.62863685  0.87415950  1
  Zn  Zn88  1  0.13158391  -0.00393505  0.62631669  1
  Zn  Zn89  1  0.37513615  0.12357585  0.75265971  1
  Zn  Zn90  1  -0.00234632  0.62767933  0.62430362  1
  Zn  Zn91  1  0.62697419  0.24743112  0.37268295  1
  Zn  Zn92  1  0.74948529  0.37242061  0.12701668  1
  Zn  Zn93  1  0.75497915  0.12385443  0.37070667  1
  Zn  Zn94  1  0.12871154  0.87336303  0.25110862  1
  Zn  Zn95  1  0.11894044  0.12201021  0.00500610  1
  Zn  Zn96  1  0.62287915  0.50410203  0.62853871  1
  Zn  Zn97  1  0.75280538  0.11917038  0.87679870  1
  Zn  Zn98  1  0.49325734  0.00545542  -0.01032431  1
  Zn  Zn99  1  0.12950981  0.62768198  0.00092592  1
  Zn  Zn100  1  0.49888625  0.49974459  0.00020826  1
  Zn  Zn101  1  0.11423208  0.00591899  0.12421023  1
  Zn  Zn102  1  0.87734965  0.37197588  0.49694838  1
  Zn  Zn103  1  -0.00248660  0.36053118  0.35339671  1
  Zn  Zn104  1  0.62165033  -0.00812541  0.11732990  1
  Zn  Zn105  1  0.50031580  0.37582888  0.87690440  1
  Zn  Zn106  1  0.25992250  0.24533402  0.51049116  1
  Zn  Zn107  1  0.18466294  0.18346214  0.17945569  1
  Zn  Zn108  1  0.19396894  0.18378551  0.68886490  1
  Zn  Zn109  1  0.18844617  0.68624327  0.18970110  1
  Zn  Zn110  1  0.18842646  0.68654057  0.68952558  1
  Zn  Zn111  1  0.68809819  0.18668109  0.18360497  1
  Zn  Zn112  1  0.68641334  0.18432738  0.68540194  1
  Zn  Zn113  1  0.68487525  0.69108581  0.18588566  1
  Zn  Zn114  1  0.68624182  0.69149240  0.68780087  1
  Zn  Zn115  1  0.31037046  0.30510178  0.31658921  1
  Zn  Zn116  1  0.31521354  0.31707094  0.81331625  1
  Zn  Zn117  1  0.31459920  0.81029032  0.32033111  1
  Zn  Zn118  1  0.31525320  0.80734482  0.81222739  1
  Zn  Zn119  1  0.81010496  0.31438735  0.31428615  1
  Zn  Zn120  1  0.81955017  0.31131989  0.81497089  1
  Zn  Zn121  1  0.81101720  0.82299241  0.31356001  1
  Zn  Zn122  1  0.80640490  0.80960061  0.80997910  1
  Zn  Zn123  1  0.18625716  0.43603820  0.43673594  1
  Zn  Zn124  1  0.19002751  0.44433536  0.93717693  1
  Zn  Zn125  1  0.19204671  0.93724057  0.43876018  1
  Zn  Zn126  1  0.18495798  0.93390641  0.93856912  1
  Zn  Zn127  1  0.68670614  0.43693899  0.43824670  1
  Zn  Zn128  1  0.68824855  0.43718828  0.93746242  1
  Zn  Zn129  1  0.68935340  0.94136420  0.43017887  1
  Zn  Zn130  1  0.68116029  0.93594740  0.93427506  1
  Zn  Zn131  1  0.27844096  0.04845924  0.04800673  1
  Zn  Zn132  1  0.30999974  0.05516279  0.56770877  1
  Zn  Zn133  1  0.31539492  0.56112600  0.06216645  1
  Zn  Zn134  1  0.31109023  0.55816299  0.55736117  1
  Zn  Zn135  1  0.80633664  0.05702784  0.06641025  1
  Zn  Zn136  1  0.81424262  0.05986624  0.56220691  1
  Zn  Zn137  1  0.80962723  0.56964257  0.06270516  1
  Zn  Zn138  1  0.80844428  0.56157055  0.56167367  1
  Zn  Zn139  1  0.43738215  0.44259568  0.18584230  1
  Zn  Zn140  1  0.43850739  0.44064906  0.68931676  1
  Zn  Zn141  1  0.43433569  0.93903230  0.18324677  1
  Zn  Zn142  1  0.43773001  0.93551914  0.68316265  1
  Zn  Zn143  1  0.93826453  0.44138245  0.18630756  1
  Zn  Zn144  1  0.94032482  0.43899932  0.68635861  1
  Zn  Zn145  1  0.94304454  0.97412785  0.18337506  1
  Zn  Zn146  1  0.93686602  0.93303863  0.69081952  1
  Zn  Zn147  1  0.07060434  0.05909119  0.31222190  1
  Zn  Zn148  1  0.07516498  0.06336047  0.81227848  1
  Zn  Zn149  1  0.05047586  0.53502439  0.29906720  1
  Zn  Zn150  1  0.06243092  0.56738663  0.81112732  1
  Zn  Zn151  1  0.56181975  0.06054510  0.31286673  1
  Zn  Zn152  1  0.56375914  0.06409747  0.80987563  1
  Zn  Zn153  1  0.55997303  0.56365525  0.31482323  1
  Zn  Zn154  1  0.55835339  0.56631379  0.81036324  1
  Zn  Zn155  1  0.43761411  0.19006963  0.43667735  1
  Zn  Zn156  1  0.43254428  0.18922559  0.93268410  1
  Zn  Zn157  1  0.43880510  0.68537290  0.43282859  1
  Zn  Zn158  1  0.43981831  0.68778132  0.93454241  1
  Zn  Zn159  1  0.94329785  0.18719237  0.43650654  1
  Zn  Zn160  1  0.98183688  0.22202187  0.96865947  1
  Zn  Zn161  1  0.93895979  0.68436528  0.44135613  1
  Zn  Zn162  1  0.93677460  0.69240828  0.93435715  1
  Zn  Zn163  1  0.06156103  0.30569958  0.08428511  1
  Zn  Zn164  1  0.10221419  0.29414740  0.58215328  1
  Zn  Zn165  1  0.04833575  0.84281463  0.07843833  1
  Zn  Zn166  1  0.06637513  0.80890763  0.56853277  1
  Zn  Zn167  1  0.55772504  0.31248743  0.06021252  1
  Zn  Zn168  1  0.56369364  0.31222851  0.56299966  1
  Zn  Zn169  1  0.55319527  0.81263208  0.05792038  1
  Zn  Zn170  1  0.56416580  0.81655171  0.55752063  1
  O  O171  1  0.11527837  0.11934897  0.12233016  1
  O  O172  1  0.11860085  0.11719622  0.61771473  1
  O  O173  1  0.11191818  0.62531563  0.12451441  1
  O  O174  1  0.12677340  0.61523745  0.61898154  1
  O  O175  1  0.61697826  0.12803482  0.11027018  1
  O  O176  1  0.61900429  0.11676458  0.61336197  1
  O  O177  1  0.61890161  0.62009084  0.11939202  1
  O  O178  1  0.63035627  0.62480033  0.61025624  1
  O  O179  1  0.38673825  0.37786033  0.37689701  1
  O  O180  1  0.37868335  0.38609616  0.87942967  1
  O  O181  1  0.38214955  0.87205789  0.38958486  1
  O  O182  1  0.38334221  0.86813587  0.88348908  1
  O  O183  1  0.87895385  0.38532519  0.37556346  1
  O  O184  1  0.88071182  0.38923298  0.88246599  1
  O  O185  1  0.88651092  0.88707893  0.38062177  1
  O  O186  1  0.86633312  0.87341837  0.88436583  1
  O  O187  1  0.24868564  0.00656843  0.36512745  1
  O  O188  1  0.25416491  -0.00791632  0.85933706  1
  O  O189  1  0.25249367  0.50424073  0.36475446  1
  O  O190  1  0.26089150  0.51515602  0.87716201  1
  O  O191  1  0.76006076  0.00217131  0.36176973  1
  O  O192  1  0.74057599  -0.00093511  0.85781513  1
  O  O193  1  0.75873622  0.50628637  0.37367460  1
  O  O194  1  0.75670578  0.50347494  0.86925034  1
  O  O195  1  0.24444827  0.50394211  0.13527043  1
  O  O196  1  0.23494544  0.49811045  0.62100260  1
  O  O197  1  0.26119697  0.98588090  0.14411660  1
  O  O198  1  0.24961691  0.98727968  0.63622924  1
  O  O199  1  0.73754393  0.50438653  0.13051519  1
  O  O200  1  0.74760434  0.49113266  0.63153930  1
  O  O201  1  0.73933310  0.99781219  0.13729999  1
  O  O202  1  0.74351320  0.99406424  0.63045960  1
  O  O203  1  0.01211893  0.42748867  0.26556719  1
  O  O204  1  0.00282446  0.37054867  0.75783507  1
  O  O205  1  0.00393890  0.86738981  0.26938720  1
  O  O206  1  0.01124919  0.86686093  0.74755698  1
  O  O207  1  0.50273504  0.37091684  0.25563096  1
  O  O208  1  0.50952562  0.36855772  0.74916478  1
  O  O209  1  0.50248626  0.88307267  0.26223049  1
  O  O210  1  0.49081768  0.86081988  0.75390105  1
  O  O211  1  0.49519007  0.12926395  0.24403352  1
  O  O212  1  0.49884732  0.13257312  0.74094521  1
  O  O213  1  0.48989514  0.61906974  0.24314002  1
  O  O214  1  0.48821603  0.63601006  0.74803345  1
  O  O215  1  0.96634495  0.05407362  0.26832215  1
  O  O216  1  0.99817686  0.13145393  0.74913852  1
  O  O217  1  0.99140540  0.62996205  0.24252201  1
  O  O218  1  0.98896714  0.63106911  0.74777784  1
  O  O219  1  0.38190273  0.26818023  0.00068427  1
  O  O220  1  0.37721108  0.26503794  0.50037782  1
  O  O221  1  0.36689495  0.75523044  -0.00458564  1
  O  O222  1  0.37746860  0.75776178  0.49946265  1
  O  O223  1  0.87286340  0.26182788  0.00632807  1
  O  O224  1  0.87018393  0.24950625  0.50613773  1
  O  O225  1  0.86361549  0.75736071  0.00069772  1
  O  O226  1  0.86961555  0.76402817  0.49238305  1
  O  O227  1  0.11393133  0.22802120  0.48775892  1
  O  O228  1  0.09951840  0.24370794  0.99887998  1
  O  O229  1  0.12029117  0.73438834  0.49546801  1
  O  O230  1  0.13536109  0.75059372  0.98699158  1
  O  O231  1  0.63370019  0.24134394  0.49993315  1
  O  O232  1  0.63520786  0.24646736  0.99450999  1
  O  O233  1  0.62916068  0.74488120  0.49027957  1
  O  O234  1  0.62702310  0.74559231  0.99412107  1
  O  O235  1  0.49759528  0.24010208  0.13169625  1
  O  O236  1  0.50957767  0.23937769  0.63377784  1
  O  O237  1  0.50275920  0.73644730  0.12608269  1
  O  O238  1  0.50733981  0.75504814  0.63649135  1
  O  O239  1  0.97209142  0.25938172  0.13516715  1
  O  O240  1  1.00000735  0.24387401  0.63445176  1
  O  O241  1  0.99243604  0.74923741  0.13225069  1
  O  O242  1  1.00511586  0.74526383  0.64228131  1
  O  O243  1  0.01202129  0.24618719  0.36805044  1
  O  O244  1  -0.01268334  0.26895677  0.86492495  1
  O  O245  1  0.00831191  0.75301685  0.37488052  1
  O  O246  1  0.01296178  0.74042102  0.86249457  1
  O  O247  1  0.50314166  0.25704937  0.36655685  1
  O  O248  1  0.50863055  0.25087568  0.86419814  1
  O  O249  1  0.50915728  0.76103181  0.37962075  1
  O  O250  1  0.50361712  0.75729302  0.86587556  1
  O  O251  1  0.24462935  0.12100548  0.49475239  1
  O  O252  1  0.25726177  0.14556399  0.98793037  1
  O  O253  1  0.24206530  0.61500102  0.48440952  1
  O  O254  1  0.25206546  0.63150683  0.99306036  1
  O  O255  1  0.74283553  0.13039908  0.50135906  1
  O  O256  1  0.74352265  0.13048033  0.99826011  1
  O  O257  1  0.74338402  0.63266900  0.49417449  1
  O  O258  1  0.73632641  0.63533942  0.99794430  1
  O  O259  1  0.26401241  0.37370826  -0.01021999  1
  O  O260  1  0.26906123  0.37811632  0.49374978  1
  O  O261  1  0.25883950  0.86398800  0.00745288  1
  O  O262  1  0.26518051  0.87759895  0.50627581  1
  O  O263  1  0.75835334  0.36663818  0.00039642  1
  O  O264  1  0.75082689  0.36559767  0.50627147  1
  O  O265  1  0.75047136  0.86565031  -0.00290388  1
  O  O266  1  0.75742470  0.87429813  0.50320772  1
  O  O267  1  0.14568941  0.51311314  0.23971697  1
  O  O268  1  0.12132968  0.49837022  0.73786622  1
  O  O269  1  0.13908311  0.99189379  0.24760468  1
  O  O270  1  0.13737191  0.98895140  0.74892206  1
  O  O271  1  0.62833619  0.49609893  0.24450684  1
  O  O272  1  0.63022740  0.49450661  0.75021084  1
  O  O273  1  0.62934398  0.99005536  0.24875016  1
  O  O274  1  0.63422014  1.00905723  0.73523500  1
  O  O275  1  0.37461997  0.01332969  0.25268532  1
  O  O276  1  0.36420985  0.00119152  0.74440291  1
  O  O277  1  0.36544992  0.50604069  0.25394614  1
  O  O278  1  0.38172818  0.51415292  0.75634555  1
  O  O279  1  0.84926399  -0.02605646  0.24690705  1
  O  O280  1  0.86727985  0.01176707  0.74112114  1
  O  O281  1  0.86479787  0.51145406  0.25767739  1
  O  O282  1  0.86994783  0.50708487  0.75689564  1
  O  O283  1  0.12417151  0.35528193  0.38346921  1
  O  O284  1  0.11203608  0.39094176  0.86748312  1
  O  O285  1  0.12034405  0.86319339  0.38154100  1
  O  O286  1  0.13362040  0.86502084  0.86334680  1
  O  O287  1  0.61347876  0.37403934  0.37054245  1
  O  O288  1  0.62534032  0.36844473  0.86712857  1
  O  O289  1  0.61460565  0.86884371  0.37040626  1
  O  O290  1  0.61235142  0.86152031  0.87777713  1
  O  O291  1  0.38118184  0.12847315  0.13307470  1
  O  O292  1  0.38713684  0.12340446  0.62488240  1
  O  O293  1  0.38557865  0.61817707  0.13475778  1
  O  O294  1  0.37076772  0.61797528  0.63493085  1
  O  O295  1  0.87701145  0.12599706  0.12571336  1
  O  O296  1  0.88313586  0.12937648  0.63181956  1
  O  O297  1  0.88395404  0.63569698  0.12752747  1
  O  O298  1  0.87150464  0.62358405  0.63685130  1
  O  O299  1  0.24558026  0.25647454  0.12150994  1
  O  O300  1  0.21138488  0.25900594  0.61105436  1
  O  O301  1  0.25290436  0.74924568  0.11594120  1
  O  O302  1  0.24826116  0.76337405  0.62929705  1
  O  O303  1  0.76239184  0.24969122  0.11452627  1
  O  O304  1  0.75593336  0.25300781  0.61609543  1
  O  O305  1  0.75723209  0.74542846  0.11445287  1
  O  O306  1  0.74164088  0.76429932  0.61672887  1
  O  O307  1  0.24065000  0.23951672  0.38453943  1
  O  O308  1  0.24344140  0.24761370  0.87241092  1
  O  O309  1  0.23706735  0.74063875  0.37350069  1
  O  O310  1  0.24720722  0.73971049  0.88150655  1
  O  O311  1  0.74936413  0.24624224  0.38806285  1
  O  O312  1  0.74988671  0.24677531  0.88577350  1
  O  O313  1  0.74193309  0.75026344  0.38192247  1
  O  O314  1  0.73647037  0.74881521  0.88098361  1
  O  O315  1  -0.00733116  0.10816931  -0.01516975  1
  O  O316  1  0.00488108  0.11244532  0.50632108  1
  O  O317  1  0.00047437  0.62476638  0.00662733  1
  O  O318  1  0.00851939  0.61815558  0.50548614  1
  O  O319  1  0.50344430  0.12649738  0.00369407  1
  O  O320  1  0.50516566  0.11954605  0.50405200  1
  O  O321  1  0.50986840  0.62476037  0.00753679  1
  O  O322  1  0.50891639  0.61498810  0.49155533  1
  O  O323  1  0.49490123  0.37956305  0.49319088  1
  O  O324  1  0.49134709  0.38058769  0.99590378  1
  O  O325  1  0.48978293  0.88105215  0.49405294  1
  O  O326  1  0.48985928  0.87909860  0.99005026  1
  O  O327  1  0.99961075  0.38980379  0.49505823  1
  O  O328  1  0.99156253  0.38524550  0.99323492  1
  O  O329  1  0.99555858  0.87545567  0.49869029  1
  O  O330  1  0.98426445  0.85610833  0.98177286  1
  O  O331  1  0.49591884  0.49139800  0.38289930  1
  O  O332  1  0.48903004  0.50198756  0.87716279  1
  O  O333  1  0.50534666  0.99036210  0.38561476  1
  O  O334  1  0.50459738  0.98544055  0.86901451  1
  O  O335  1  0.98182652  0.51840234  0.39086691  1
  O  O336  1  0.99202483  0.49937994  0.87966900  1
  O  O337  1  1.00198632  0.98717204  0.39348841  1
  O  O338  1  0.99524314  0.99769444  0.86819727  1
  O  O339  1  0.01618139  -0.04981486  0.10897202  1
  O  O340  1  0.00346185  0.00106985  0.61902123  1
  O  O341  1  0.00525449  0.51459447  0.11651748  1
  O  O342  1  0.00381946  0.50633318  0.61698905  1
  O  O343  1  0.50142095  0.01434950  0.12108325  1
  O  O344  1  0.50814146  0.00608545  0.61801874  1
  O  O345  1  0.51337391  0.50774867  0.12442959  1
  O  O346  1  0.50460459  0.49582656  0.61038274  1
  O  O347  1  0.25690554  0.38970703  0.25587427  1
  O  O348  1  0.23538127  0.37531767  0.75562573  1
  O  O349  1  0.25664849  0.87798058  0.24846489  1
  O  O350  1  0.24973173  0.87962700  0.74491327  1
  O  O351  1  0.74152335  0.38369283  0.24912195  1
  O  O352  1  0.74720725  0.37788891  0.74590716  1
  O  O353  1  0.72948534  0.88206246  0.25701885  1
  O  O354  1  0.75422577  0.88296983  0.73809086  1
  O  O355  1  0.25777275  0.11658907  0.25712227  1
  O  O356  1  0.25066771  0.11298610  0.75698078  1
  O  O357  1  0.25823088  0.61974388  0.25967568  1
  O  O358  1  0.26690944  0.63279695  0.75670228  1
  O  O359  1  0.73798221  0.10704759  0.25208773  1
  O  O360  1  0.76056526  0.11906558  0.75076561  1
  O  O361  1  0.75220062  0.62280581  0.25587730  1
  O  O362  1  0.75520691  0.62146966  0.75216005  1
  O  O363  1  0.36311328  0.13106424  0.36991647  1
  O  O364  1  0.35747299  0.12955864  0.86927951  1
  O  O365  1  0.36762984  0.61671005  0.37019904  1
  O  O366  1  0.37137637  0.61999000  0.86835503  1
  O  O367  1  0.87411290  0.10844932  0.38533576  1
  O  O368  1  0.87529463  0.11265218  0.86996837  1
  O  O369  1  0.86566446  0.62364432  0.37053500  1
  O  O370  1  0.87228784  0.61572135  0.86948734  1
  O  O371  1  0.11756996  0.39224612  0.12677925  1
  O  O372  1  0.11251218  0.39370365  0.63726775  1
  O  O373  1  0.14921089  0.86480807  0.13126559  1
  O  O374  1  0.13475204  0.87406466  0.63603340  1
  O  O375  1  0.62642393  0.38367920  0.12838948  1
  O  O376  1  0.63489306  0.37521774  0.63319119  1
  O  O377  1  0.61065537  0.87254678  0.13824483  1
  O  O378  1  0.63369913  0.88856619  0.61607354  1
  O  O379  1  0.13207445  0.24512891  0.26569247  1
  O  O380  1  0.11261528  0.25965637  0.75126319  1
  O  O381  1  0.11772267  0.74880249  0.26169034  1
  O  O382  1  0.12094002  0.75486526  0.75903585  1
  O  O383  1  0.61934938  0.25658381  0.24946633  1
  O  O384  1  0.62275382  0.25416585  0.75563928  1
  O  O385  1  0.62705000  0.75628446  0.26174558  1
  O  O386  1  0.60976909  0.74190947  0.75794415  1
  O  O387  1  0.38099436  0.23966108  0.24917034  1
  O  O388  1  0.38833083  0.25222251  0.74994591  1
  O  O389  1  0.37440433  0.73560266  0.25760118  1
  O  O390  1  0.38718187  0.73801995  0.74861525  1
  O  O391  1  0.85829427  0.24012163  0.24241725  1
  O  O392  1  0.88222773  0.23815234  0.74516820  1
  O  O393  1  0.87648748  0.75097555  0.24307053  1
  O  O394  1  0.88280701  0.74065389  0.75814552  1
  O  O395  1  0.38323150  0.49136034  0.49269083  1
  O  O396  1  0.37637589  0.49174501  0.99167901  1
  O  O397  1  0.38681649  0.99762290  0.50201985  1
  O  O398  1  0.37028168  0.98822827  1.00004201  1
  O  O399  1  0.87885606  0.49847178  0.49436412  1
  O  O400  1  0.87664390  0.49991477  0.99241315  1
  O  O401  1  0.88500601  0.98857444  0.50187959  1
  O  O402  1  0.87351165  0.98813377  0.99514135  1
  O  O403  1  0.16617257  0.01099013  0.01523849  1
  O  O404  1  0.11873998  0.00634385  0.50094776  1
  O  O405  1  0.12116848  0.50689609  0.00826507  1
  O  O406  1  0.11829975  0.50555402  0.50770378  1
  O  O407  1  0.62041140  0.01000686  -0.00097151  1
  O  O408  1  0.61921438  0.00603849  0.50448015  1
  O  O409  1  0.62603649  0.50886361  0.00667118  1
  O  O410  1  0.61858250  0.50949159  0.49857867  1
  O  O411  1  0.37880869  0.37855556  0.10955653  1
  O  O412  1  0.37767637  0.37955395  0.61267458  1
  O  O413  1  0.36911427  0.87186750  0.11509817  1
  O  O414  1  0.37178731  0.87531128  0.60931901  1
  O  O415  1  0.86912160  0.39014009  0.11226055  1
  O  O416  1  0.86814261  0.36804045  0.62465643  1
  O  O417  1  0.87344886  0.86444004  0.10846654  1
  O  O418  1  0.86425848  0.87826459  0.61562668  1
  O  O419  1  0.13538101  0.12691677  0.37931353  1
  O  O420  1  0.14723804  0.11770518  0.88107536  1
  O  O421  1  0.12982859  0.62748160  0.38157883  1
  O  O422  1  0.13633254  0.63141999  0.87397169  1
  O  O423  1  0.62556370  0.12538687  0.38777826  1
  O  O424  1  0.62646977  0.13213426  0.88477196  1
  O  O425  1  0.62902800  0.63356779  0.38070237  1
  O  O426  1  0.62086534  0.63459935  0.88376258  1
