# generated using pymatgen
data_V85Zn86O256
_symmetry_space_group_name_H-M   'P 1'
_cell_length_a   16.92803113
_cell_length_b   16.93025274
_cell_length_c   16.92272045
_cell_angle_alpha   89.99261555
_cell_angle_beta   90.04905339
_cell_angle_gamma   90.03109685
_symmetry_Int_Tables_number   1
_chemical_formula_structural   V85Zn86O256
_chemical_formula_sum   'V85 Zn86 O256'
_cell_volume   4849.97884342
_cell_formula_units_Z   1
loop_
 _symmetry_equiv_pos_site_id
 _symmetry_equiv_pos_as_xyz
  1  'x, y, z'
loop_
 _atom_site_type_symbol
 _atom_site_label
 _atom_site_symmetry_multiplicity
 _atom_site_fract_x
 _atom_site_fract_y
 _atom_site_fract_z
 _atom_site_occupancy
  V  V0  1  0.74489289  0.38314021  0.62643723  1
  V  V1  1  0.87420722  0.86990079  0.00076526  1
  V  V2  1  0.50147430  0.13428994  0.12387943  1
  V  V3  1  0.75272268  0.24740498  0.00108070  1
  V  V4  1  0.61844106  0.24686353  0.37176604  1
  V  V5  1  -0.01213497  0.63092680  0.62658055  1
  V  V6  1  0.62487803  0.76412257  0.87184008  1
  V  V7  1  0.50298838  0.49923965  0.50512188  1
  V  V8  1  0.76206016  0.00276150  0.25619759  1
  V  V9  1  0.50189017  0.75159400  0.25276607  1
  V  V10  1  0.37408873  0.24817409  0.62546084  1
  V  V11  1  0.74876814  0.87062913  0.12495971  1
  V  V12  1  -0.00681653  0.88273678  0.37879569  1
  V  V13  1  0.12307747  0.75209911  0.87114563  1
  V  V14  1  0.12866742  0.88110403  0.74812802  1
  V  V15  1  0.13714829  0.62741019  0.49796727  1
  V  V16  1  -0.00170638  0.39014529  0.87806729  1
  V  V17  1  0.50080975  0.24924387  0.75117908  1
  V  V18  1  0.37859404  0.86109101  0.49309909  1
  V  V19  1  0.11852931  0.62177132  -0.00152932  1
  V  V20  1  0.50293901  0.11593080  0.62501988  1
  V  V21  1  0.87874966  0.88037954  0.50948181  1
  V  V22  1  0.63704117  0.63230820  -0.00265391  1
  V  V23  1  0.75391600  0.50150649  0.25532771  1
  V  V24  1  0.24957542  0.87667082  0.12343497  1
  V  V25  1  0.74599421  0.25016056  0.50151216  1
  V  V26  1  0.87330311  0.00057824  0.87633801  1
  V  V27  1  0.62407437  0.62230635  0.50481836  1
  V  V28  1  0.37457589  0.62393559  0.25022964  1
  V  V29  1  0.62190850  0.50055063  0.11823746  1
  V  V30  1  -0.01464693  0.75020688  0.74805379  1
  V  V31  1  0.24609806  0.24932276  0.49708840  1
  V  V32  1  0.12333082  0.50292181  0.62474048  1
  V  V33  1  0.38808570  -0.00382240  0.37663148  1
  V  V34  1  0.37517869  0.74892506  0.12455313  1
  V  V35  1  0.24916297  0.75048211  -0.00090598  1
  V  V36  1  0.49679679  0.37326862  0.37242176  1
  V  V37  1  0.12513102  0.12562861  0.00332378  1
  V  V38  1  0.25567680  0.62413813  0.86698188  1
  V  V39  1  0.76323847  0.50708409  0.75833711  1
  V  V40  1  0.37602141  0.38089218  0.00030868  1
  V  V41  1  0.87932358  0.38575353  -0.00234839  1
  V  V42  1  0.24754579  0.37402422  0.62599909  1
  V  V43  1  0.62389790  0.74915376  0.37973550  1
  V  V44  1  0.61803051  0.37266540  0.24747200  1
  V  V45  1  0.12442569  0.37546367  0.74913539  1
  V  V46  1  0.00054436  0.74789942  0.25488235  1
  V  V47  1  0.74782204  0.12278071  0.88101363  1
  V  V48  1  0.62366821  0.87652839  0.25661086  1
  V  V49  1  0.25186296  0.88207359  0.62090233  1
  V  V50  1  0.75985791  0.74624568  0.50851333  1
  V  V51  1  0.24882041  0.11969723  0.87236375  1
  V  V52  1  0.49770602  0.62395569  0.63521185  1
  V  V53  1  0.11774899  0.49949630  0.12143199  1
  V  V54  1  0.37339866  0.37460638  0.49887625  1
  V  V55  1  0.36909347  0.50578117  0.37566211  1
  V  V56  1  0.62442989  0.24654517  0.87803125  1
  V  V57  1  0.13604326  0.74754785  0.37912264  1
  V  V58  1  0.36917724  0.12029077  0.74930440  1
  V  V59  1  0.38045958  -0.00403087  0.87158578  1
  V  V60  1  0.62397299  0.11634377  0.50193585  1
  V  V61  1  0.87659717  0.24521401  0.14116911  1
  V  V62  1  -0.00143005  0.00232272  0.00300007  1
  V  V63  1  0.74362579  -0.00160180  0.73745412  1
  V  V64  1  -0.00071050  0.11600982  0.62142446  1
  V  V65  1  0.87521891  0.25340022  0.62442396  1
  V  V66  1  0.12309931  0.24932446  0.87504388  1
  V  V67  1  0.11919730  0.36876319  0.25135462  1
  V  V68  1  0.87467520  0.74870481  0.12900272  1
  V  V69  1  0.25521451  -0.00050376  0.25019528  1
  V  V70  1  0.38456832  0.87618202  -0.00346039  1
  V  V71  1  -0.00518227  0.50444544  0.49101546  1
  V  V72  1  0.87272381  0.38128834  0.49334472  1
  V  V73  1  0.24639599  0.50437755  0.24975049  1
  V  V74  1  0.12183133  0.11341400  0.49941769  1
  V  V75  1  0.36538558  0.74215121  0.63312382  1
  V  V76  1  0.87328582  0.12491042  0.74813580  1
  V  V77  1  -0.00118628  0.25117929  0.74999801  1
  V  V78  1  0.75035271  0.37388377  0.12304256  1
  V  V79  1  0.62374563  0.00316481  0.11924928  1
  V  V80  1  0.62401147  0.38318768  0.74732285  1
  V  V81  1  0.25257288  0.12309517  0.37362321  1
  V  V82  1  0.50119098  0.38458359  0.87905416  1
  V  V83  1  0.49827411  0.62163490  0.11439285  1
  V  V84  1  -0.00292868  0.12672805  0.14273505  1
  Zn  Zn85  1  0.50804898  -0.01349036  0.50168951  1
  Zn  Zn86  1  0.11785599  0.24542872  0.36879505  1
  Zn  Zn87  1  0.12584736  0.00058244  0.12819576  1
  Zn  Zn88  1  0.25561023  0.24893362  0.00100065  1
  Zn  Zn89  1  0.38707799  0.13920773  0.25543193  1
  Zn  Zn90  1  0.38245959  0.50718297  0.87142553  1
  Zn  Zn91  1  0.75760532  0.62062454  0.38010999  1
  Zn  Zn92  1  -0.00959565  0.37477907  0.36706503  1
  Zn  Zn93  1  0.60769667  0.88606708  0.73882265  1
  Zn  Zn94  1  0.76073450  0.63259739  0.87421441  1
  Zn  Zn95  1  0.76146755  0.12952955  0.36227580  1
  Zn  Zn96  1  0.50615767  0.00339018  -0.00385446  1
  Zn  Zn97  1  -0.00187257  0.62408108  0.12269991  1
  Zn  Zn98  1  0.49432246  0.75768178  0.75669835  1
  Zn  Zn99  1  0.25725832  0.50574537  0.74551107  1
  Zn  Zn100  1  0.88120832  0.61720346  0.25862890  1
  Zn  Zn101  1  0.24834505  0.37291570  0.12263744  1
  Zn  Zn102  1  0.74528692  0.87188214  0.62587680  1
  Zn  Zn103  1  0.00055453  0.87765454  0.87222809  1
  Zn  Zn104  1  0.12659032  -0.00126278  0.62664492  1
  Zn  Zn105  1  0.37494401  0.25435329  0.13189327  1
  Zn  Zn106  1  0.12675294  0.87387743  0.25354647  1
  Zn  Zn107  1  0.19280834  0.18805003  0.18498810  1
  Zn  Zn108  1  0.18603892  0.18635734  0.68680515  1
  Zn  Zn109  1  0.18623357  0.68664024  0.18912275  1
  Zn  Zn110  1  0.18281640  0.69281129  0.68588427  1
  Zn  Zn111  1  0.68422264  0.18496076  0.18643607  1
  Zn  Zn112  1  0.68690299  0.18806670  0.68800565  1
  Zn  Zn113  1  0.68754209  0.68633103  0.18719526  1
  Zn  Zn114  1  0.68210263  0.68834124  0.68884259  1
  Zn  Zn115  1  0.30780556  0.31483987  0.30808580  1
  Zn  Zn116  1  0.31211199  0.31160522  0.81518800  1
  Zn  Zn117  1  0.31457142  0.81282642  0.31123093  1
  Zn  Zn118  1  0.31057779  0.81482350  0.80939771  1
  Zn  Zn119  1  0.80404443  0.31605678  0.31478763  1
  Zn  Zn120  1  0.81337040  0.31640131  0.81385679  1
  Zn  Zn121  1  0.81159601  0.81014025  0.31643658  1
  Zn  Zn122  1  0.80740738  0.81183340  0.81705097  1
  Zn  Zn123  1  0.18528146  0.44024969  0.43562261  1
  Zn  Zn124  1  0.18813063  0.43873929  0.93725979  1
  Zn  Zn125  1  0.19232942  0.93181524  0.43727453  1
  Zn  Zn126  1  0.19065626  0.94002644  0.93663588  1
  Zn  Zn127  1  0.68294830  0.43633234  0.43675906  1
  Zn  Zn128  1  0.68839705  0.43812973  0.93729648  1
  Zn  Zn129  1  0.69247541  0.93374776  0.43787174  1
  Zn  Zn130  1  0.69174520  0.93424950  0.93869743  1
  Zn  Zn131  1  0.31857690  0.06468283  0.06206915  1
  Zn  Zn132  1  0.31637574  0.05792644  0.55820517  1
  Zn  Zn133  1  0.30702004  0.55886186  0.05846468  1
  Zn  Zn134  1  0.31269400  0.56120828  0.56301997  1
  Zn  Zn135  1  0.81251109  0.06102420  0.06810079  1
  Zn  Zn136  1  0.83608052  0.08285649  0.52510378  1
  Zn  Zn137  1  0.81221312  0.56254752  0.06751341  1
  Zn  Zn138  1  0.80999855  0.56171557  0.56694976  1
  Zn  Zn139  1  0.43726689  0.43822782  0.18619461  1
  Zn  Zn140  1  0.43492302  0.43939478  0.69066356  1
  Zn  Zn141  1  0.43967659  0.93932454  0.18600984  1
  Zn  Zn142  1  0.43389048  0.93420552  0.68570008  1
  Zn  Zn143  1  0.93756031  0.43518487  0.18118461  1
  Zn  Zn144  1  0.93832017  0.43895273  0.68302193  1
  Zn  Zn145  1  0.94048582  0.93498468  0.18944285  1
  Zn  Zn146  1  0.93320759  0.93476896  0.68771537  1
  Zn  Zn147  1  0.06802524  0.05713510  0.31470055  1
  Zn  Zn148  1  0.06001025  0.06149837  0.81194893  1
  Zn  Zn149  1  0.06328110  0.56479307  0.31205352  1
  Zn  Zn150  1  0.06157421  0.56712311  0.80857719  1
  Zn  Zn151  1  0.56754754  0.06355862  0.30851651  1
  Zn  Zn152  1  0.56197285  0.06372446  0.81296952  1
  Zn  Zn153  1  0.56302237  0.56271046  0.31295846  1
  Zn  Zn154  1  0.57164252  0.56529051  0.81453251  1
  Zn  Zn155  1  0.43789240  0.18565811  0.43756378  1
  Zn  Zn156  1  0.43868806  0.18865550  0.94310148  1
  Zn  Zn157  1  0.43924171  0.68611787  0.43824315  1
  Zn  Zn158  1  0.44096644  0.69005218  0.93735696  1
  Zn  Zn159  1  0.93950124  0.19070816  0.42518180  1
  Zn  Zn160  1  0.93632297  0.19055488  0.94054912  1
  Zn  Zn161  1  0.93858291  0.68558216  0.43516706  1
  Zn  Zn162  1  0.93418849  0.68531757  0.93561120  1
  Zn  Zn163  1  0.05887069  0.31022314  0.06501724  1
  Zn  Zn164  1  0.05873884  0.31071753  0.55571294  1
  Zn  Zn165  1  0.06212892  0.81242446  0.06257228  1
  Zn  Zn166  1  0.06357592  0.81058080  0.56111291  1
  Zn  Zn167  1  0.56284578  0.31234969  0.05717097  1
  Zn  Zn168  1  0.56078813  0.30955693  0.56356131  1
  Zn  Zn169  1  0.56525318  0.80986640  0.06283950  1
  Zn  Zn170  1  0.56149296  0.80996834  0.57062028  1
  O  O171  1  0.11783104  0.12390833  0.11804983  1
  O  O172  1  0.11876228  0.12123026  0.61906632  1
  O  O173  1  0.12608280  0.61870514  0.11575993  1
  O  O174  1  0.12171620  0.61864451  0.61755973  1
  O  O175  1  0.61610793  0.11478476  0.12595243  1
  O  O176  1  0.61268311  0.13246034  0.61742698  1
  O  O177  1  0.61823597  0.62014983  0.11953552  1
  O  O178  1  0.61309336  0.63028208  0.61219814  1
  O  O179  1  0.37769251  0.38392699  0.38076143  1
  O  O180  1  0.38535629  0.37271741  0.88291296  1
  O  O181  1  0.37280446  0.87806902  0.38622207  1
  O  O182  1  0.36491178  0.88504790  0.88307823  1
  O  O183  1  0.86994649  0.37549391  0.38886111  1
  O  O184  1  0.88615708  0.37039604  0.88454465  1
  O  O185  1  0.88784434  0.86849025  0.38378544  1
  O  O186  1  0.87580470  0.88129912  0.88564697  1
  O  O187  1  0.25911051  0.00473129  0.36974117  1
  O  O188  1  0.25990619  0.01319336  0.87745293  1
  O  O189  1  0.25934587  0.49782647  0.36697472  1
  O  O190  1  0.24470250  0.51767590  0.87242488  1
  O  O191  1  0.74459976  -0.00017546  0.35854015  1
  O  O192  1  0.75502796  0.00841825  0.87296090  1
  O  O193  1  0.74174071  0.49775065  0.35840256  1
  O  O194  1  0.74890799  0.49828525  0.86098031  1
  O  O195  1  0.23905748  0.49680492  0.13176679  1
  O  O196  1  0.24130736  0.49247592  0.62437780  1
  O  O197  1  0.25300674  0.99409959  0.13219241  1
  O  O198  1  0.25239925  0.98623941  0.62362831  1
  O  O199  1  0.74095714  0.49244329  0.13296876  1
  O  O200  1  0.74900941  0.48786452  0.63310866  1
  O  O201  1  0.74407668  0.99035456  0.13343112  1
  O  O202  1  0.75550816  1.00597659  0.63989151  1
  O  O203  1  0.01439049  0.38319784  0.25031337  1
  O  O204  1  0.00461689  0.37071799  0.75536308  1
  O  O205  1  0.00329997  0.86889169  0.26253870  1
  O  O206  1  0.00736985  0.86765335  0.74923038  1
  O  O207  1  0.51160808  0.38134285  0.25481565  1
  O  O208  1  0.50705686  0.36759920  0.75526167  1
  O  O209  1  0.50787361  0.86044939  0.24278549  1
  O  O210  1  0.49542337  0.87304067  0.75264157  1
  O  O211  1  0.50099929  0.11659000  0.23240711  1
  O  O212  1  0.49325799  0.13043911  0.74315067  1
  O  O213  1  0.49663983  0.63426296  0.24182920  1
  O  O214  1  0.50644935  0.62147743  0.73694147  1
  O  O215  1  1.00586164  0.11980096  0.24217223  1
  O  O216  1  0.99329318  0.13117429  0.74301455  1
  O  O217  1  0.99941690  0.63354196  0.24508390  1
  O  O218  1  1.00647394  0.63439358  0.73473228  1
  O  O219  1  0.37552997  0.26451149  0.00314824  1
  O  O220  1  0.36389597  0.25299786  0.50263795  1
  O  O221  1  0.36948289  0.75658909  0.00450866  1
  O  O222  1  0.37534991  0.75699878  0.50439314  1
  O  O223  1  0.86337939  0.25598303  0.00448546  1
  O  O224  1  0.86250554  0.26217615  0.50845013  1
  O  O225  1  0.88902340  0.76454522  0.01175135  1
  O  O226  1  0.86260856  0.75305413  0.49644621  1
  O  O227  1  0.13819208  0.24118490  0.50396582  1
  O  O228  1  0.12136678  0.23692623  0.99412440  1
  O  O229  1  0.12406203  0.74213085  0.48815050  1
  O  O230  1  0.13061024  0.74802233  0.99092951  1
  O  O231  1  0.62891120  0.24595064  0.49245280  1
  O  O232  1  0.64114966  0.25664984  0.99093835  1
  O  O233  1  0.62973428  0.74306659  0.49382723  1
  O  O234  1  0.62154007  0.74297608  0.98928376  1
  O  O235  1  0.50541649  0.23731548  0.12225270  1
  O  O236  1  0.49114590  0.24202833  0.63041697  1
  O  O237  1  0.49440265  0.74162595  0.13120986  1
  O  O238  1  0.48540741  0.73904847  0.62711859  1
  O  O239  1  0.98864150  0.23895408  0.12368938  1
  O  O240  1  0.99463284  0.24541840  0.63161339  1
  O  O241  1  0.99460295  0.75416567  0.13872608  1
  O  O242  1  1.00502640  0.73795642  0.63119973  1
  O  O243  1  0.00849385  0.26421232  0.38774930  1
  O  O244  1  0.00653605  0.25164839  0.86690876  1
  O  O245  1  0.00760459  0.75607249  0.36693968  1
  O  O246  1  0.01212794  0.75467266  0.86759741  1
  O  O247  1  0.51045909  0.25641943  0.38055674  1
  O  O248  1  0.50903833  0.25456220  0.87169091  1
  O  O249  1  0.51305446  0.74350880  0.36672614  1
  O  O250  1  0.51800626  0.73863890  0.87163107  1
  O  O251  1  0.24753344  0.12943751  0.49096965  1
  O  O252  1  0.24125553  0.12449840  0.99378793  1
  O  O253  1  0.23625327  0.61716345  0.49885185  1
  O  O254  1  0.24006702  0.63263466  0.99115516  1
  O  O255  1  0.73568810  0.14275431  0.51579481  1
  O  O256  1  0.75563825  0.13045150  0.98921097  1
  O  O257  1  0.74222218  0.63021553  0.50187784  1
  O  O258  1  0.73929377  0.62608565  1.00646393  1
  O  O259  1  0.26255985  0.37287420  -0.00345484  1
  O  O260  1  0.25175462  0.36712928  0.50380405  1
  O  O261  1  0.25640996  0.87023700  0.00666231  1
  O  O262  1  0.26475717  0.87435920  0.50723990  1
  O  O263  1  0.75711463  0.36844797  0.00455990  1
  O  O264  1  0.74993465  0.37062895  0.50735182  1
  O  O265  1  0.76249948  0.87878704  0.01233312  1
  O  O266  1  0.76198393  0.86371664  0.49871390  1
  O  O267  1  0.13073232  0.49697012  0.24363012  1
  O  O268  1  0.12686310  0.49579435  0.73709953  1
  O  O269  1  0.14192289  0.99480420  0.24982003  1
  O  O270  1  0.12029583  0.98580563  0.74941011  1
  O  O271  1  0.63126139  0.49425907  0.24057563  1
  O  O272  1  0.63121894  0.48549668  0.75167846  1
  O  O273  1  0.62966457  0.98932264  0.24043477  1
  O  O274  1  0.63961541  1.00316976  0.75492055  1
  O  O275  1  0.36736593  -0.00308716  0.25866887  1
  O  O276  1  0.37515580  0.01307181  0.75554958  1
  O  O277  1  0.36736979  0.50242639  0.25637188  1
  O  O278  1  0.36892524  0.49499924  0.75894369  1
  O  O279  1  0.86062044  -0.00589018  0.24713881  1
  O  O280  1  0.86793900  0.00699295  0.75712289  1
  O  O281  1  0.85768511  0.49674927  0.24014074  1
  O  O282  1  0.86139304  0.49482081  0.74641605  1
  O  O283  1  0.12538769  0.37713553  0.35940575  1
  O  O284  1  0.11936406  0.36884094  0.87014033  1
  O  O285  1  0.11637535  0.86274112  0.37940533  1
  O  O286  1  0.12766858  0.86892892  0.86792950  1
  O  O287  1  0.61808567  0.36809698  0.36681686  1
  O  O288  1  0.61931142  0.36627379  0.87042819  1
  O  O289  1  0.62744767  0.86698992  0.36423277  1
  O  O290  1  0.62450149  0.86639588  0.87498156  1
  O  O291  1  0.38845126  0.12663632  0.12906192  1
  O  O292  1  0.37702256  0.12938587  0.63120573  1
  O  O293  1  0.38087574  0.62708175  0.12730980  1
  O  O294  1  0.37956589  0.63614819  0.61773481  1
  O  O295  1  0.88476722  0.13280873  0.12214608  1
  O  O296  1  0.88277882  0.13344970  0.62379042  1
  O  O297  1  0.87599995  0.63870728  0.12781543  1
  O  O298  1  0.88943851  0.62493872  0.62277812  1
  O  O299  1  0.25373280  0.25488676  0.11838579  1
  O  O300  1  0.25475739  0.25363319  0.61750003  1
  O  O301  1  0.25630741  0.75680003  0.12202047  1
  O  O302  1  0.26113670  0.75431041  0.62406734  1
  O  O303  1  0.75366518  0.25292840  0.11807771  1
  O  O304  1  0.75390012  0.26106466  0.62169696  1
  O  O305  1  0.75832292  0.76186755  0.13364613  1
  O  O306  1  0.74664979  0.74735173  0.61106319  1
  O  O307  1  0.24608769  0.24141775  0.38175061  1
  O  O308  1  0.24117644  0.23861890  0.87797707  1
  O  O309  1  0.23484167  0.75275047  0.36862866  1
  O  O310  1  0.24083610  0.74286345  0.87667182  1
  O  O311  1  0.73807589  0.25003628  0.38538748  1
  O  O312  1  0.74555055  0.24338759  0.88010142  1
  O  O313  1  0.73800956  0.74680883  0.38343684  1
  O  O314  1  0.73216682  0.74988620  0.87401112  1
  O  O315  1  0.00495731  0.11538776  0.00412614  1
  O  O316  1  0.01264828  0.13174424  0.50989049  1
  O  O317  1  0.01531617  0.63566124  0.00287842  1
  O  O318  1  0.00705784  0.62109657  0.51030835  1
  O  O319  1  0.49762273  0.12038286  0.01528337  1
  O  O320  1  0.50827697  0.12498827  0.50790812  1
  O  O321  1  0.50788216  0.62698922  0.01122459  1
  O  O322  1  0.50540167  0.61657501  0.50587564  1
  O  O323  1  0.49394974  0.38107151  0.49601644  1
  O  O324  1  0.49074040  0.37377402  0.99101751  1
  O  O325  1  0.48354761  0.87150010  0.50442001  1
  O  O326  1  0.48697358  0.87555268  1.00535008  1
  O  O327  1  0.98776932  0.38787577  0.50539071  1
  O  O328  1  0.99195918  0.36848365  0.98963044  1
  O  O329  1  0.98816905  0.86492831  0.49174501  1
  O  O330  1  0.99633104  0.88860387  1.00091807  1
  O  O331  1  0.49287640  0.49369683  0.38306760  1
  O  O332  1  0.50502337  0.48752866  0.87181583  1
  O  O333  1  0.49085932  1.00339711  0.37569667  1
  O  O334  1  0.48521764  1.00907880  0.87836433  1
  O  O335  1  1.00429866  0.49792932  0.38832186  1
  O  O336  1  1.00766751  0.48906691  0.87168261  1
  O  O337  1  1.00640087  0.98119869  0.37525290  1
  O  O338  1  0.99134601  1.00005402  0.88403438  1
  O  O339  1  0.00230168  0.00644576  0.11988615  1
  O  O340  1  -0.00035900  0.01311931  0.62974829  1
  O  O341  1  0.01270231  0.50427799  0.12672006  1
  O  O342  1  0.00646260  0.51170132  0.62000283  1
  O  O343  1  0.50944731  0.00396973  0.12125066  1
  O  O344  1  0.49065048  0.01302774  0.62046801  1
  O  O345  1  0.50930248  0.51087375  0.13173947  1
  O  O346  1  0.49044340  0.50571210  0.61146421  1
  O  O347  1  0.23815193  0.38828932  0.24735210  1
  O  O348  1  0.23993494  0.37166487  0.74357592  1
  O  O349  1  0.25163713  0.88118662  0.24094587  1
  O  O350  1  0.24010431  0.86864365  0.73648786  1
  O  O351  1  0.73826378  0.38368676  0.24402821  1
  O  O352  1  0.74372485  0.38028009  0.74465169  1
  O  O353  1  0.74328584  0.88141330  0.24574916  1
  O  O354  1  0.75282954  0.89173344  0.74882767  1
  O  O355  1  0.25172543  0.11813963  0.26113743  1
  O  O356  1  0.25758735  0.12997314  0.75820115  1
  O  O357  1  0.25759600  0.61292880  0.24470321  1
  O  O358  1  0.24209719  0.62829061  0.76410906  1
  O  O359  1  0.74731199  0.10846050  0.24721425  1
  O  O360  1  0.75455242  0.11933179  0.75907202  1
  O  O361  1  0.74749087  0.60893375  0.24885011  1
  O  O362  1  0.74256877  0.60762255  0.74496910  1
  O  O363  1  0.36929690  0.11528695  0.37482352  1
  O  O364  1  0.36752212  0.12251392  0.86878264  1
  O  O365  1  0.38200331  0.61327380  0.36780153  1
  O  O366  1  0.35881438  0.62778731  0.88265436  1
  O  O367  1  0.85882802  0.11953358  0.41678107  1
  O  O368  1  0.86730478  0.12176783  0.86990266  1
  O  O369  1  0.87076354  0.62517850  0.37126895  1
  O  O370  1  0.87080477  0.63371851  0.86729297  1
  O  O371  1  0.12379125  0.38160386  0.13255682  1
  O  O372  1  0.12629786  0.38250167  0.62755801  1
  O  O373  1  0.13876234  0.87656499  0.12519986  1
  O  O374  1  0.13325929  0.87552977  0.62780185  1
  O  O375  1  0.62712594  0.38089694  0.12933369  1
  O  O376  1  0.63218860  0.36685423  0.63530566  1
  O  O377  1  0.63269113  0.87599682  0.13463327  1
  O  O378  1  0.63095079  0.87552964  0.62624820  1
  O  O379  1  0.13090433  0.26595008  0.24869037  1
  O  O380  1  0.11835971  0.25540015  0.75431094  1
  O  O381  1  0.11911713  0.75117331  0.25991054  1
  O  O382  1  0.11821190  0.76017258  0.75596328  1
  O  O383  1  0.63172260  0.25983467  0.25912945  1
  O  O384  1  0.62171180  0.25781425  0.75924332  1
  O  O385  1  0.62032322  0.75397470  0.25656040  1
  O  O386  1  0.62157634  0.75354136  0.76151536  1
  O  O387  1  0.37575857  0.25269676  0.24757141  1
  O  O388  1  0.38011752  0.24051255  0.74702093  1
  O  O389  1  0.38277448  0.74509016  0.24567732  1
  O  O390  1  0.37314607  0.74829477  0.73665875  1
  O  O391  1  0.86506264  0.25366668  0.24068665  1
  O  O392  1  0.87766909  0.24509645  0.74361199  1
  O  O393  1  0.88292605  0.75118991  0.24458789  1
  O  O394  1  0.88658267  0.76137119  0.75143415  1
  O  O395  1  0.37924691  0.49525834  0.49192205  1
  O  O396  1  0.37129445  0.48730512  0.99113100  1
  O  O397  1  0.37930191  0.98771668  0.49091921  1
  O  O398  1  0.37537541  0.99125978  0.99108655  1
  O  O399  1  0.88193282  0.49349487  0.50744887  1
  O  O400  1  0.87326663  0.48487774  1.01089550  1
  O  O401  1  0.87518744  0.97841645  0.50413124  1
  O  O402  1  0.88178941  0.99260731  0.99891045  1
  O  O403  1  0.11798827  0.00995353  0.00062857  1
  O  O404  1  0.13253303  0.01034866  0.50195333  1
  O  O405  1  0.13037249  0.50970101  0.00813077  1
  O  O406  1  0.11673839  0.50451227  0.50817998  1
  O  O407  1  0.62631254  -0.00944097  0.01491567  1
  O  O408  1  0.62551971  0.01226422  0.49298346  1
  O  O409  1  0.62971751  0.50631165  0.01258801  1
  O  O410  1  0.61407298  0.50683993  0.49640464  1
  O  O411  1  0.37549034  0.37912858  0.11120709  1
  O  O412  1  0.36885636  0.36779448  0.61740162  1
  O  O413  1  0.36651841  0.87097402  0.11802996  1
  O  O414  1  0.36825570  0.86212288  0.61606638  1
  O  O415  1  0.87087091  0.36380646  0.11803956  1
  O  O416  1  0.86597060  0.37116097  0.61779721  1
  O  O417  1  0.86963965  0.86734653  0.12235920  1
  O  O418  1  0.87137471  0.87066184  0.61345467  1
  O  O419  1  0.13385346  0.12520459  0.38242546  1
  O  O420  1  0.13045481  0.12713877  0.88028443  1
  O  O421  1  0.11968766  0.63833157  0.38283299  1
  O  O422  1  0.13039571  0.63349598  0.87956022  1
  O  O423  1  0.62839082  0.13288707  0.38186216  1
  O  O424  1  0.63263098  0.13769057  0.87178615  1
  O  O425  1  0.62728440  0.63013391  0.38658781  1
  O  O426  1  0.63576447  0.62757136  0.88481653  1
