# generated using pymatgen
data_V85Zn86O256
_symmetry_space_group_name_H-M   'P 1'
_cell_length_a   16.96666852
_cell_length_b   16.96319788
_cell_length_c   16.95072639
_cell_angle_alpha   89.97574009
_cell_angle_beta   90.01107470
_cell_angle_gamma   89.88939959
_symmetry_Int_Tables_number   1
_chemical_formula_structural   V85Zn86O256
_chemical_formula_sum   'V85 Zn86 O256'
_cell_volume   4878.56123597
_cell_formula_units_Z   1
loop_
 _symmetry_equiv_pos_site_id
 _symmetry_equiv_pos_as_xyz
  1  'x, y, z'
loop_
 _atom_site_type_symbol
 _atom_site_label
 _atom_site_symmetry_multiplicity
 _atom_site_fract_x
 _atom_site_fract_y
 _atom_site_fract_z
 _atom_site_occupancy
  V  V0  1  0.37862869  0.36577506  0.51103686  1
  V  V1  1  0.37589307  0.87547929  -0.00063982  1
  V  V2  1  -0.00167504  0.86930924  0.37288549  1
  V  V3  1  0.25454137  0.25075944  0.00458148  1
  V  V4  1  0.12629490  0.74970243  0.37018844  1
  V  V5  1  0.62637927  0.11912398  0.50944079  1
  V  V6  1  0.87555838  0.12589483  0.74924974  1
  V  V7  1  -0.00509936  0.74892833  0.24022692  1
  V  V8  1  0.24828182  0.87489311  0.63635775  1
  V  V9  1  0.11861643  0.24485804  0.87967120  1
  V  V10  1  0.74094641  0.38144849  0.62569553  1
  V  V11  1  0.12716343  0.88364756  0.24634110  1
  V  V12  1  0.62482273  0.25047130  0.87003383  1
  V  V13  1  0.62154532  0.12363568  0.01538969  1
  V  V14  1  0.50582381  -0.00344714  0.50649170  1
  V  V15  1  0.25029896  0.36694755  0.63060429  1
  V  V16  1  0.87809127  0.87388236  0.00352021  1
  V  V17  1  0.00172935  0.12740680  0.62134484  1
  V  V18  1  -0.00489982  0.26226908  0.75383949  1
  V  V19  1  0.87003445  0.62067378  0.24192596  1
  V  V20  1  0.50168669  0.74847125  0.25096622  1
  V  V21  1  0.88116580  0.37508358  -0.01028439  1
  V  V22  1  0.23972514  0.25200265  0.48964335  1
  V  V23  1  0.62578111  0.88048728  0.74276843  1
  V  V24  1  0.87435794  0.25315711  0.62149525  1
  V  V25  1  0.49917481  0.37270428  0.87477390  1
  V  V26  1  0.50514327  0.62099374  0.62697038  1
  V  V27  1  0.12226730  0.00291925  0.63619020  1
  V  V28  1  0.25311724  0.62504132  0.37554344  1
  V  V29  1  0.25112581  0.75135902  0.50046198  1
  V  V30  1  0.62445723  0.25019865  0.36871770  1
  V  V31  1  0.01267038  0.25037611  0.25366695  1
  V  V32  1  0.48284871  0.24202859  0.74989009  1
  V  V33  1  0.12290859  0.50072605  0.62711293  1
  V  V34  1  0.63187257  0.74844557  0.87543485  1
  V  V35  1  0.12522912  0.75533220  0.86865026  1
  V  V36  1  0.75018310  0.62335474  0.36817810  1
  V  V37  1  0.87805790  0.12340812  0.23656661  1
  V  V38  1  0.74946735  0.25103030  0.50014038  1
  V  V39  1  0.12259428  0.62327606  0.50185822  1
  V  V40  1  0.75550640  0.86865278  0.62448456  1
  V  V41  1  0.24974093  0.62507107  0.87499286  1
  V  V42  1  0.62592962  0.62290639  0.50029758  1
  V  V43  1  0.37474864  0.62401921  0.24884889  1
  V  V44  1  0.50550595  0.00254234  0.01413987  1
  V  V45  1  0.74562382  0.00029133  0.24624996  1
  V  V46  1  0.24220765  0.38453465  0.12291921  1
  V  V47  1  -0.00535513  0.62570861  0.11702340  1
  V  V48  1  0.00279951  0.88126095  0.87068007  1
  V  V49  1  0.86795394  0.63141063  0.74797172  1
  V  V50  1  0.62763086  0.62301381  -0.00169953  1
  V  V51  1  0.38049722  0.49886315  0.37574595  1
  V  V52  1  0.12109391  0.37682159  0.75749023  1
  V  V53  1  0.75126091  0.25098838  0.00697178  1
  V  V54  1  -0.00278675  0.75462691  0.74423604  1
  V  V55  1  0.50280054  0.87972309  0.87644069  1
  V  V56  1  0.24924706  0.75192516  -0.00023511  1
  V  V57  1  0.74756345  0.00230980  0.74327722  1
  V  V58  1  0.24605414  0.88669715  0.12809620  1
  V  V59  1  0.36635660  0.00717051  0.37153575  1
  V  V60  1  0.37580542  0.62393082  0.75085009  1
  V  V61  1  0.12533889  0.62325206  0.00431859  1
  V  V62  1  0.75840869  0.74470211  -0.00151621  1
  V  V63  1  0.00046951  0.00123210  0.49713184  1
  V  V64  1  0.11800514  0.38562550  0.26225632  1
  V  V65  1  0.74848045  0.12433521  0.87660561  1
  V  V66  1  0.00603429  0.49482303  -0.00937886  1
  V  V67  1  0.74971360  0.11906007  0.37473161  1
  V  V68  1  0.37476190  0.49757453  0.87932287  1
  V  V69  1  0.50170496  0.49325745  0.50730458  1
  V  V70  1  0.75439227  0.38777095  0.12387969  1
  V  V71  1  0.87839025  -0.00112397  0.37484567  1
  V  V72  1  0.37539948  0.87356035  0.49793981  1
  V  V73  1  0.87778827  0.85994790  0.50135884  1
  V  V74  1  0.00452514  0.00667339  0.01441076  1
  V  V75  1  0.45317230  0.32548420  0.32589866  1
  V  V76  1  0.25303325  0.11877136  0.88020180  1
  V  V77  1  0.50172538  0.74970004  0.75081702  1
  V  V78  1  0.62489843  0.87576160  0.24623737  1
  V  V79  1  0.30677926  0.06052904  0.69744763  1
  V  V80  1  0.63229599  0.38441972  0.25503866  1
  V  V81  1  0.37403289  0.74996922  0.12546418  1
  V  V82  1  0.74322209  0.50537659  0.75322788  1
  V  V83  1  0.12155392  0.12788337  0.46860195  1
  V  V84  1  0.75069832  0.87201382  0.12370309  1
  Zn  Zn85  1  0.87564722  0.38397846  0.48316794  1
  Zn  Zn86  1  0.49515548  0.12135777  0.63254489  1
  Zn  Zn87  1  0.37452066  0.74697595  0.62574384  1
  Zn  Zn88  1  0.81344367  0.46035974  0.30789525  1
  Zn  Zn89  1  0.62546619  0.50470280  0.13215880  1
  Zn  Zn90  1  0.62009381  0.37922554  0.74620747  1
  Zn  Zn91  1  0.75414508  0.74481232  0.50195082  1
  Zn  Zn92  1  0.88313920  0.24969702  0.12158488  1
  Zn  Zn93  1  0.50038249  0.62090270  0.12303839  1
  Zn  Zn94  1  0.25060611  0.49825369  0.75101968  1
  Zn  Zn95  1  0.11589335  0.12689997  0.03333232  1
  Zn  Zn96  1  0.38657330  0.12370755  0.23877554  1
  Zn  Zn97  1  0.50339225  0.50122949  0.00009326  1
  Zn  Zn98  1  0.50237093  0.87559624  0.37540330  1
  Zn  Zn99  1  0.88076483  0.49937808  0.86576810  1
  Zn  Zn100  1  0.62563164  0.75073996  0.37650984  1
  Zn  Zn101  1  -0.00540655  0.63018757  0.62596578  1
  Zn  Zn102  1  0.38241890  0.36968686  0.01205097  1
  Zn  Zn103  1  0.87625950  0.00113597  0.87595505  1
  Zn  Zn104  1  0.37393100  0.00235678  0.87036274  1
  Zn  Zn105  1  0.00001585  0.47982751  0.47529694  1
  Zn  Zn106  1  0.24842922  0.50077433  0.24722666  1
  Zn  Zn107  1  0.23621656  0.15492705  0.16568733  1
  Zn  Zn108  1  0.17789564  0.19298945  0.68286262  1
  Zn  Zn109  1  0.18748094  0.69063881  0.18590808  1
  Zn  Zn110  1  0.18812451  0.68943585  0.68933153  1
  Zn  Zn111  1  0.55962536  0.19038940  0.18888943  1
  Zn  Zn112  1  0.68647615  0.18880384  0.68753402  1
  Zn  Zn113  1  0.68844692  0.68988186  0.18244145  1
  Zn  Zn114  1  0.68617329  0.68820208  0.68602675  1
  Zn  Zn115  1  0.27144701  0.27026782  0.28253120  1
  Zn  Zn116  1  0.30922949  0.30995627  0.82014523  1
  Zn  Zn117  1  0.31349687  0.81582779  0.31233349  1
  Zn  Zn118  1  0.31542164  0.81213102  0.81372140  1
  Zn  Zn119  1  0.81411164  0.29850995  0.31102296  1
  Zn  Zn120  1  0.80935414  0.31546281  0.81119546  1
  Zn  Zn121  1  0.81254338  0.80477399  0.31366887  1
  Zn  Zn122  1  0.81596861  0.81494048  0.81526693  1
  Zn  Zn123  1  0.19277828  0.43797616  0.43907923  1
  Zn  Zn124  1  0.18623163  0.43629043  0.93596159  1
  Zn  Zn125  1  0.18373011  0.93731793  0.43783516  1
  Zn  Zn126  1  0.18258183  0.93986016  0.94055472  1
  Zn  Zn127  1  0.68617593  0.43798913  0.44095833  1
  Zn  Zn128  1  0.69163275  0.43722070  0.93151559  1
  Zn  Zn129  1  0.68861447  0.93327017  0.43563043  1
  Zn  Zn130  1  0.68745148  0.93944673  0.93653570  1
  Zn  Zn131  1  0.31154560  0.05599269  0.05132175  1
  Zn  Zn132  1  0.30788011  0.06568867  0.52934311  1
  Zn  Zn133  1  0.31253675  0.56109342  0.06183856  1
  Zn  Zn134  1  0.31221233  0.55756545  0.56551264  1
  Zn  Zn135  1  0.80935211  0.05589278  0.06061162  1
  Zn  Zn136  1  0.81306659  0.05909195  0.56257529  1
  Zn  Zn137  1  0.81853478  0.56329686  0.05612989  1
  Zn  Zn138  1  0.81175590  0.56579260  0.56460656  1
  Zn  Zn139  1  0.43486768  0.43668172  0.17904843  1
  Zn  Zn140  1  0.43683250  0.43608998  0.69073077  1
  Zn  Zn141  1  0.43482066  0.93709599  0.19063770  1
  Zn  Zn142  1  0.44111981  0.93173449  0.68131377  1
  Zn  Zn143  1  0.94733270  0.43800522  0.17309373  1
  Zn  Zn144  1  0.91726881  0.45850208  0.64904804  1
  Zn  Zn145  1  0.93437968  0.93338648  0.18745900  1
  Zn  Zn146  1  0.93603476  0.93896222  0.68612794  1
  Zn  Zn147  1  0.09336599  0.09090203  0.24642781  1
  Zn  Zn148  1  0.05973298  0.06682656  0.81436090  1
  Zn  Zn149  1  0.06225815  0.56111668  0.30815061  1
  Zn  Zn150  1  0.06085219  0.56723326  0.81130294  1
  Zn  Zn151  1  0.55897744  0.05876603  0.32011229  1
  Zn  Zn152  1  0.56277975  0.06384754  0.81687476  1
  Zn  Zn153  1  0.56071163  0.56209373  0.31693232  1
  Zn  Zn154  1  0.56409173  0.56275375  0.81626650  1
  Zn  Zn155  1  0.43715182  0.18441403  0.44778080  1
  Zn  Zn156  1  0.43224193  0.18784568  1.06039068  1
  Zn  Zn157  1  0.44037102  0.68639746  0.43728774  1
  Zn  Zn158  1  0.44152957  0.68885859  0.93639779  1
  Zn  Zn159  1  0.93821305  0.19164369  0.42980730  1
  Zn  Zn160  1  0.93657508  0.18554826  0.93816033  1
  Zn  Zn161  1  0.95074347  0.65769114  0.42116746  1
  Zn  Zn162  1  0.93707887  0.68728389  0.92815748  1
  Zn  Zn163  1  0.06443614  0.31093975  0.06950459  1
  Zn  Zn164  1  0.06262382  0.31375193  0.56023441  1
  Zn  Zn165  1  0.06340142  0.81346397  0.06003068  1
  Zn  Zn166  1  0.06797965  0.81616482  0.56101272  1
  Zn  Zn167  1  0.57222932  0.31977848  0.05856116  1
  Zn  Zn168  1  0.56196128  0.30455922  0.56663221  1
  Zn  Zn169  1  0.56509644  0.81060154  0.06515242  1
  Zn  Zn170  1  0.56381552  0.80831995  0.56505190  1
  O  O171  1  0.13366801  0.12123607  0.14466016  1
  O  O172  1  0.11630941  0.11883663  0.61813795  1
  O  O173  1  0.12054768  0.63275476  0.10865371  1
  O  O174  1  0.13368072  0.61668547  0.61842821  1
  O  O175  1  0.63234122  0.13178838  0.11335185  1
  O  O176  1  0.62711018  0.12701477  0.61211424  1
  O  O177  1  0.62459192  0.62391988  0.11344468  1
  O  O178  1  0.61216089  0.62732653  0.61975378  1
  O  O179  1  0.38710228  0.38247813  0.38619457  1
  O  O180  1  0.38133245  0.38262014  0.87684700  1
  O  O181  1  0.37686760  0.87953377  0.38665803  1
  O  O182  1  0.38388278  0.87645252  0.88194377  1
  O  O183  1  0.85471469  0.38010668  0.37285159  1
  O  O184  1  0.87403871  0.37472980  0.88582148  1
  O  O185  1  0.87803777  0.87813116  0.38063394  1
  O  O186  1  0.88380353  0.87847977  0.88615251  1
  O  O187  1  0.26714133  -0.00372388  0.38735080  1
  O  O188  1  0.24636715  0.01367754  0.87935755  1
  O  O189  1  0.26512427  0.50577377  0.37673416  1
  O  O190  1  0.25819921  0.50577125  0.87392503  1
  O  O191  1  0.76136252  -0.00240648  0.36854244  1
  O  O192  1  0.75187936  0.00812764  0.86553305  1
  O  O193  1  0.74309885  0.51741042  0.37842795  1
  O  O194  1  0.75738547  0.49643956  0.85645838  1
  O  O195  1  0.24774291  0.48922348  0.12471866  1
  O  O196  1  0.24052061  0.48846772  0.62878784  1
  O  O197  1  0.25074822  0.98554626  0.11969150  1
  O  O198  1  0.24768060  1.00143797  0.62965622  1
  O  O199  1  0.74795977  0.49071584  0.11450314  1
  O  O200  1  0.74960776  0.49102387  0.63625220  1
  O  O201  1  0.75357358  0.98525361  0.13445174  1
  O  O202  1  0.75294585  0.99105635  0.63725011  1
  O  O203  1  0.01316455  0.37546766  0.24454123  1
  O  O204  1  0.00512136  0.36434978  0.74482000  1
  O  O205  1  0.00459945  0.86575375  0.25225356  1
  O  O206  1  -0.00893565  0.87174177  0.76298720  1
  O  O207  1  0.50766333  0.38241873  0.25906825  1
  O  O208  1  0.50076312  0.36617368  0.75769724  1
  O  O209  1  0.50856269  0.86821829  0.25017050  1
  O  O210  1  0.50834450  0.87228377  0.75542524  1
  O  O211  1  0.49848248  0.12496241  0.25511932  1
  O  O212  1  0.50065418  0.13654813  0.75249470  1
  O  O213  1  0.49359809  0.63219576  0.24875246  1
  O  O214  1  0.49656965  0.62732314  0.74457244  1
  O  O215  1  0.98993674  0.13998136  0.25275418  1
  O  O216  1  0.99201074  0.13345959  0.74240148  1
  O  O217  1  0.99568933  0.63154886  0.23454574  1
  O  O218  1  0.99262793  0.63781388  0.74776817  1
  O  O219  1  0.35710701  0.25293832  -0.00787452  1
  O  O220  1  0.36403006  0.26067955  0.49969898  1
  O  O221  1  0.37273862  0.76019478  0.00252180  1
  O  O222  1  0.36604980  0.75388192  0.49994235  1
  O  O223  1  0.86972267  0.25595641  0.00084694  1
  O  O224  1  0.86152910  0.24589924  0.50548248  1
  O  O225  1  0.86721584  0.75807226  -0.00946682  1
  O  O226  1  0.87820189  0.75931111  0.49323957  1
  O  O227  1  0.13093053  0.24151079  0.50063575  1
  O  O228  1  0.12695438  0.24481043  0.99367310  1
  O  O229  1  0.13896535  0.74902309  0.49327116  1
  O  O230  1  0.12941941  0.74470850  0.98812749  1
  O  O231  1  0.63424398  0.24340107  0.49407474  1
  O  O232  1  0.63397900  0.24410348  0.98707682  1
  O  O233  1  0.62366493  0.73542003  0.49932062  1
  O  O234  1  0.63321192  0.74419424  0.99352619  1
  O  O235  1  0.50337130  0.25410238  0.11516305  1
  O  O236  1  0.50180318  0.24423279  0.64466583  1
  O  O237  1  0.49252922  0.74954150  0.13535327  1
  O  O238  1  0.49671045  0.74123267  0.63377585  1
  O  O239  1  0.99611228  0.25696380  0.14418223  1
  O  O240  1  0.99079615  0.24561461  0.63174531  1
  O  O241  1  1.00547694  0.74035595  0.12885053  1
  O  O242  1  1.01195947  0.75875249  0.64251148  1
  O  O243  1  -0.01984100  0.25967964  0.34982146  1
  O  O244  1  0.00557072  0.24376278  0.86554094  1
  O  O245  1  0.00717960  0.75109484  0.36449064  1
  O  O246  1  0.00791016  0.75991874  0.86733191  1
  O  O247  1  0.50680368  0.25667054  0.38646561  1
  O  O248  1  0.50981564  0.25776222  0.86251625  1
  O  O249  1  0.49948912  0.75265934  0.36240447  1
  O  O250  1  0.50766393  0.76260883  0.87048243  1
  O  O251  1  0.23583747  0.14211761  0.49411278  1
  O  O252  1  0.24035984  0.13282290  0.99148555  1
  O  O253  1  0.24501388  0.63244787  0.49800842  1
  O  O254  1  0.24412461  0.63139079  0.99463532  1
  O  O255  1  0.74521925  0.12820329  0.49559500  1
  O  O256  1  0.74638535  0.13047284  0.99338757  1
  O  O257  1  0.74147542  0.62544299  0.49599273  1
  O  O258  1  0.74619044  0.63802555  1.00169484  1
  O  O259  1  0.24594899  0.36739727  0.00727049  1
  O  O260  1  0.25473308  0.37020176  0.51152602  1
  O  O261  1  0.25782338  0.87124398  0.00353786  1
  O  O262  1  0.25736864  0.86782734  0.50579343  1
  O  O263  1  0.75753966  0.36985889  0.00117985  1
  O  O264  1  0.75004605  0.36648607  0.50909892  1
  O  O265  1  0.75714255  0.87215238  0.00486528  1
  O  O266  1  0.75880872  0.87317309  0.50786295  1
  O  O267  1  0.12845000  0.49158263  0.24864195  1
  O  O268  1  0.12846524  0.49233187  0.74900937  1
  O  O269  1  0.12181602  0.98147097  0.25990582  1
  O  O270  1  0.11760583  1.00384946  0.73559172  1
  O  O271  1  0.62336366  0.48884555  0.25394018  1
  O  O272  1  0.63836949  0.50103260  0.75355985  1
  O  O273  1  0.63864008  0.99111734  0.25866191  1
  O  O274  1  0.63382102  0.99114194  0.75697734  1
  O  O275  1  0.37814280  -0.00107261  0.26765268  1
  O  O276  1  0.37111356  -0.00080894  0.74959979  1
  O  O277  1  0.37473083  0.50501577  0.25993782  1
  O  O278  1  0.37415835  0.50699395  0.76196167  1
  O  O279  1  0.86965561  0.00118656  0.25662880  1
  O  O280  1  0.86713651  0.00876182  0.75187976  1
  O  O281  1  0.88171761  0.51545779  0.23598042  1
  O  O282  1  0.86587034  0.51140968  0.74454675  1
  O  O283  1  0.12510714  0.38693464  0.36196337  1
  O  O284  1  0.12858309  0.36388892  0.86355836  1
  O  O285  1  0.11945166  0.86601044  0.37019677  1
  O  O286  1  0.11524940  0.86785745  0.88001933  1
  O  O287  1  0.63440109  0.36507839  0.36798684  1
  O  O288  1  0.61786531  0.36785719  0.87243877  1
  O  O289  1  0.62520012  0.86991635  0.36190001  1
  O  O290  1  0.61969477  0.86861050  0.86802357  1
  O  O291  1  0.35701356  0.12859490  0.12307904  1
  O  O292  1  0.36202500  0.11170793  0.62998271  1
  O  O293  1  0.37529030  0.63173244  0.13039162  1
  O  O294  1  0.38365078  0.62420872  0.63233718  1
  O  O295  1  0.87077638  0.11902277  0.13469441  1
  O  O296  1  0.87857939  0.13484740  0.62782496  1
  O  O297  1  0.88309230  0.63009379  0.12578518  1
  O  O298  1  0.87722222  0.63033030  0.64026458  1
  O  O299  1  0.24297803  0.25984953  0.10736696  1
  O  O300  1  0.24220954  0.26244248  0.61641164  1
  O  O301  1  0.25737946  0.75506583  0.11604224  1
  O  O302  1  0.25036149  0.75836993  0.61750816  1
  O  O303  1  0.75193417  0.26314363  0.10812801  1
  O  O304  1  0.75493470  0.25285814  0.61751929  1
  O  O305  1  0.74787462  0.76309309  0.11262220  1
  O  O306  1  0.74686231  0.76438260  0.62368127  1
  O  O307  1  0.24355275  0.27304616  0.39393066  1
  O  O308  1  0.23930200  0.24310286  0.88471121  1
  O  O309  1  0.24762572  0.74602118  0.38199619  1
  O  O310  1  0.24386605  0.74761467  0.88017057  1
  O  O311  1  0.74125610  0.23886957  0.38280311  1
  O  O312  1  0.74487463  0.24388766  0.88115854  1
  O  O313  1  0.74529424  0.73865322  0.37987436  1
  O  O314  1  0.74098738  0.75979071  0.88464111  1
  O  O315  1  -0.00108173  0.11148810  0.00058999  1
  O  O316  1  0.00500652  0.12364682  0.49981536  1
  O  O317  1  0.00688682  0.62370412  -0.00065108  1
  O  O318  1  0.02226779  0.65001463  0.51390779  1
  O  O319  1  0.50837158  0.11426544  0.00055414  1
  O  O320  1  0.50837484  0.11660565  0.50853343  1
  O  O321  1  0.51258127  0.62655020  0.00063499  1
  O  O322  1  0.50347868  0.61837289  0.50944610  1
  O  O323  1  0.49203597  0.38097006  0.51351474  1
  O  O324  1  0.49979297  0.37749685  0.98568294  1
  O  O325  1  0.49361035  0.87728122  0.50210850  1
  O  O326  1  0.49652997  0.87724326  0.99360844  1
  O  O327  1  0.98966269  0.37322568  0.50488102  1
  O  O328  1  0.99494546  0.38408636  1.00628558  1
  O  O329  1  0.99497594  0.87836590  0.49351568  1
  O  O330  1  0.99455602  0.88211390  0.99325210  1
  O  O331  1  0.48773412  0.50743284  0.39134222  1
  O  O332  1  0.49311712  0.49137605  0.87449827  1
  O  O333  1  0.49118859  0.99352015  0.39060466  1
  O  O334  1  0.49907725  0.98869119  0.87937148  1
  O  O335  1  0.99291482  0.55081972  0.39243448  1
  O  O336  1  0.99997272  0.50341219  0.88512594  1
  O  O337  1  0.98618131  0.98758777  0.37861837  1
  O  O338  1  0.99839601  0.99375406  0.88057453  1
  O  O339  1  -0.00285847  -0.00580484  0.11299007  1
  O  O340  1  0.00562547  0.00516134  0.61667177  1
  O  O341  1  0.00110094  0.51720003  0.10672538  1
  O  O342  1  0.01949224  0.50960066  0.63506996  1
  O  O343  1  0.49863555  -0.00872331  0.11292297  1
  O  O344  1  0.49804917  0.00218644  0.61295911  1
  O  O345  1  0.50643222  0.50139691  0.11807361  1
  O  O346  1  0.49471759  0.50710590  0.61680139  1
  O  O347  1  0.23590590  0.37261271  0.23978336  1
  O  O348  1  0.24107403  0.37240497  0.74663423  1
  O  O349  1  0.24043740  0.86675567  0.23968575  1
  O  O350  1  0.25450142  0.87037919  0.73602790  1
  O  O351  1  0.74747636  0.37839832  0.24003099  1
  O  O352  1  0.74717937  0.38677154  0.74348559  1
  O  O353  1  0.74647534  0.87548537  0.24252417  1
  O  O354  1  0.74630717  0.88218757  0.74496367  1
  O  O355  1  0.28044067  0.15993595  0.26597442  1
  O  O356  1  0.24774812  0.12488630  0.75267834  1
  O  O357  1  0.25659111  0.62469771  0.25574252  1
  O  O358  1  0.25898257  0.62503784  0.75705151  1
  O  O359  1  0.76058986  0.10936409  0.25871903  1
  O  O360  1  0.75300003  0.11891806  0.75510624  1
  O  O361  1  0.75790265  0.63063088  0.25233733  1
  O  O362  1  0.75501017  0.61663661  0.74444090  1
  O  O363  1  0.37650992  0.10676842  0.39125963  1
  O  O364  1  0.35186200  0.12265901  0.87375200  1
  O  O365  1  0.37113876  0.61865394  0.37114003  1
  O  O366  1  0.37155533  0.61948954  0.87122104  1
  O  O367  1  0.86947022  0.11347134  0.36986753  1
  O  O368  1  0.86167528  0.12573106  0.86974490  1
  O  O369  1  0.86081848  0.63138368  0.35632059  1
  O  O370  1  0.87816758  0.62149404  0.85474148  1
  O  O371  1  0.13685676  0.37470260  0.13304267  1
  O  O372  1  0.13029624  0.38042808  0.63713140  1
  O  O373  1  0.13449423  0.86755745  0.13313570  1
  O  O374  1  0.13907116  0.89179369  0.61260398  1
  O  O375  1  0.63757900  0.37915136  0.13480645  1
  O  O376  1  0.63721224  0.36665466  0.62837842  1
  O  O377  1  0.63331536  0.87158900  0.13727508  1
  O  O378  1  0.63106906  0.87250916  0.63796115  1
  O  O379  1  0.11402244  0.26405121  0.25773296  1
  O  O380  1  0.11452193  0.25712197  0.75614456  1
  O  O381  1  0.11565250  0.75348203  0.25453617  1
  O  O382  1  0.11911031  0.74661074  0.76296134  1
  O  O383  1  0.62212478  0.26052873  0.26442173  1
  O  O384  1  0.62681323  0.25163403  0.76221675  1
  O  O385  1  0.61628503  0.75567639  0.24905288  1
  O  O386  1  0.62189531  0.75777211  0.75778438  1
  O  O387  1  0.39245769  0.27437922  0.26850941  1
  O  O388  1  0.38483843  0.24972841  0.75570902  1
  O  O389  1  0.38167564  0.74596879  0.24551975  1
  O  O390  1  0.38412546  0.74091390  0.75139787  1
  O  O391  1  0.86798205  0.23309979  0.23886701  1
  O  O392  1  0.87824112  0.24553418  0.74408256  1
  O  O393  1  0.88930402  0.74363917  0.24884127  1
  O  O394  1  0.88227380  0.74334959  0.75466817  1
  O  O395  1  0.37971821  0.48810857  0.49674376  1
  O  O396  1  0.37747331  0.49885823  0.98826007  1
  O  O397  1  0.38312659  0.98797079  0.49703392  1
  O  O398  1  0.38426881  0.98770413  0.99357174  1
  O  O399  1  0.88998237  0.49083300  0.53501654  1
  O  O400  1  0.88506149  0.49295668  0.99196281  1
  O  O401  1  0.88084535  0.99301700  0.49236511  1
  O  O402  1  0.88424474  0.99220432  0.99711013  1
  O  O403  1  0.10801258  0.00383224  0.00080302  1
  O  O404  1  0.11729297  0.01203095  0.50019669  1
  O  O405  1  0.11943565  0.51131866  -0.00803691  1
  O  O406  1  0.12481848  0.50857552  0.50787311  1
  O  O407  1  0.61764359  0.01086483  -0.00502928  1
  O  O408  1  0.61859807  0.00648315  0.49354784  1
  O  O409  1  0.62987848  0.51670774  -0.01028343  1
  O  O410  1  0.61344708  0.51066410  0.49811359  1
  O  O411  1  0.35380361  0.37637356  0.12495169  1
  O  O412  1  0.36394073  0.37933566  0.62119411  1
  O  O413  1  0.36850672  0.86938213  0.11817338  1
  O  O414  1  0.36694221  0.87141811  0.61380189  1
  O  O415  1  0.86910423  0.37579084  0.11160805  1
  O  O416  1  0.86024224  0.35801298  0.63104237  1
  O  O417  1  0.86879729  0.87399214  0.11141195  1
  O  O418  1  0.86737522  0.87961679  0.61411623  1
  O  O419  1  0.11524039  0.12077437  0.37072851  1
  O  O420  1  0.13269999  0.13730200  0.86861208  1
  O  O421  1  0.13678709  0.63182153  0.38271021  1
  O  O422  1  0.13138154  0.63395816  0.88161425  1
  O  O423  1  0.63058226  0.13150791  0.38527916  1
  O  O424  1  0.63593053  0.13162171  0.87981963  1
  O  O425  1  0.62839057  0.62867462  0.38313668  1
  O  O426  1  0.62069220  0.64176306  0.87953669  1
