# generated using pymatgen
data_V85Zn86O256
_symmetry_space_group_name_H-M   'P 1'
_cell_length_a   16.96455117
_cell_length_b   16.95988835
_cell_length_c   16.95439886
_cell_angle_alpha   89.92414118
_cell_angle_beta   90.04727200
_cell_angle_gamma   89.99293835
_symmetry_Int_Tables_number   1
_chemical_formula_structural   V85Zn86O256
_chemical_formula_sum   'V85 Zn86 O256'
_cell_volume   4878.06100397
_cell_formula_units_Z   1
loop_
 _symmetry_equiv_pos_site_id
 _symmetry_equiv_pos_as_xyz
  1  'x, y, z'
loop_
 _atom_site_type_symbol
 _atom_site_label
 _atom_site_symmetry_multiplicity
 _atom_site_fract_x
 _atom_site_fract_y
 _atom_site_fract_z
 _atom_site_occupancy
  V  V0  1  0.62302161  0.75510727  0.37464176  1
  V  V1  1  0.12248228  0.37651366  0.24453951  1
  V  V2  1  0.12673127  0.74880103  0.87271793  1
  V  V3  1  0.74470374  0.36808561  0.62622423  1
  V  V4  1  0.87070187  0.24613133  0.62521091  1
  V  V5  1  0.25073413  0.49705108  0.74899723  1
  V  V6  1  0.87466826  0.62141696  0.75794196  1
  V  V7  1  0.00303513  0.61893237  0.12965537  1
  V  V8  1  0.25133389  0.62465393  0.87509109  1
  V  V9  1  0.38775315  0.12054931  0.25034149  1
  V  V10  1  0.37694109  0.49272879  0.37256187  1
  V  V11  1  0.12921799  0.88795602  0.74794186  1
  V  V12  1  0.12388273  0.75486230  0.36059888  1
  V  V13  1  0.24335820  0.50187883  0.24717907  1
  V  V14  1  -0.00016073  0.37970968  0.37358572  1
  V  V15  1  0.92773568  0.79746970  0.17956412  1
  V  V16  1  0.23410860  0.10990085  0.34757611  1
  V  V17  1  0.62242521  0.49599361  0.63363664  1
  V  V18  1  0.37517980  0.37485579  -0.00137397  1
  V  V19  1  0.50766256  0.62152075  0.12308638  1
  V  V20  1  -0.00556947  0.50002411  -0.00081638  1
  V  V21  1  0.79672146  0.19002156  0.43916973  1
  V  V22  1  0.25082017  0.75071100  0.00066189  1
  V  V23  1  0.75244889  0.49656821  0.75415895  1
  V  V24  1  0.12105063  0.11699701  0.00514010  1
  V  V25  1  0.37449268  0.87921722  -0.00061135  1
  V  V26  1  0.12555035  0.49953759  0.62422242  1
  V  V27  1  0.60965672  0.25969268  0.37948085  1
  V  V28  1  0.25271875  0.11770844  0.86934403  1
  V  V29  1  0.37756272  0.49871998  0.87548977  1
  V  V30  1  0.74923813  0.87412874  0.62464798  1
  V  V31  1  0.62499808  0.86970936  0.75337279  1
  V  V32  1  0.87367836  0.12263470  0.75180327  1
  V  V33  1  0.12599207  0.61725824  0.00293008  1
  V  V34  1  0.00280646  0.74875458  0.75011213  1
  V  V35  1  -0.00202470  0.24902382  0.74962755  1
  V  V36  1  0.62316575  0.62373876  0.50132173  1
  V  V37  1  0.74323425  0.24275077  0.00093805  1
  V  V38  1  0.73802459  0.75102335  -0.00500005  1
  V  V39  1  0.25040670  0.74651417  0.51058827  1
  V  V40  1  0.49752731  0.75016779  0.74540696  1
  V  V41  1  0.24056123  0.89026609  0.13396972  1
  V  V42  1  -0.00441950  0.24547835  0.25097498  1
  V  V43  1  0.00246390  0.87464814  0.87714790  1
  V  V44  1  0.50148708  0.75991303  0.25084448  1
  V  V45  1  0.87758152  -0.00025545  0.88175765  1
  V  V46  1  0.25260827  0.36662539  0.62274714  1
  V  V47  1  0.75108620  0.74744249  0.50118075  1
  V  V48  1  0.74728330  -0.00159835  0.75159313  1
  V  V49  1  0.37463131  0.62851867  0.74283390  1
  V  V50  1  0.86970974  0.37519653  0.49966059  1
  V  V51  1  0.87213030  0.24239786  0.12735660  1
  V  V52  1  0.49789721  0.25059932  0.73897417  1
  V  V53  1  0.62542447  0.00573166  0.12662062  1
  V  V54  1  0.37443092  0.25174006  0.13600195  1
  V  V55  1  0.37502748  0.36673438  0.49873927  1
  V  V56  1  0.38095674  0.87346475  0.50460807  1
  V  V57  1  0.37369090  0.75249683  0.12496920  1
  V  V58  1  0.74801099  0.01417031  0.25965621  1
  V  V59  1  0.61493568  0.12090980  0.48978737  1
  V  V60  1  0.00330061  0.10946201  0.62614204  1
  V  V61  1  0.87477345  0.62051374  0.24375859  1
  V  V62  1  0.55896877  0.31040490  0.19419249  1
  V  V63  1  0.88566642  0.88171607  0.49801462  1
  V  V64  1  0.87242462  0.50274866  0.37327232  1
  V  V65  1  -0.00153922  0.50236794  0.50080935  1
  V  V66  1  0.38031708  -0.00280575  0.37294546  1
  V  V67  1  0.87509393  0.86450292  0.00270672  1
  V  V68  1  -0.00703254  0.37740170  0.87502755  1
  V  V69  1  0.12521274  0.25109300  0.87600017  1
  V  V70  1  0.12713506  0.09792175  0.50708978  1
  V  V71  1  0.37432709  0.62707613  0.25076467  1
  V  V72  1  0.24866959  0.88749801  0.62795078  1
  V  V73  1  0.50441088  0.87098363  0.87765383  1
  V  V74  1  0.50545466  0.01087410  -0.00202860  1
  V  V75  1  0.24955600  0.24934320  0.00187508  1
  V  V76  1  0.24525711  0.37682372  0.12579354  1
  V  V77  1  0.73904635  0.86772716  0.13816140  1
  V  V78  1  0.50016833  0.49396194  0.49645718  1
  V  V79  1  0.73972326  0.12066087  0.88012774  1
  V  V80  1  0.73390250  0.49810054  0.24288676  1
  V  V81  1  0.86959413  0.37671697  0.00231670  1
  V  V82  1  0.87737307  0.74710074  0.62405077  1
  V  V83  1  0.12771315  0.25447733  0.38533697  1
  V  V84  1  0.61435056  0.00110929  0.61947925  1
  Zn  Zn85  1  0.73942013  0.37816820  0.12518444  1
  Zn  Zn86  1  0.00129854  0.62399114  0.62646540  1
  Zn  Zn87  1  0.00106791  0.12453356  0.13003340  1
  Zn  Zn88  1  0.36850295  0.12217386  0.72934455  1
  Zn  Zn89  1  0.62822426  0.61630350  -0.00313854  1
  Zn  Zn90  1  0.25617156  0.23649701  0.50385821  1
  Zn  Zn91  1  0.48695602  0.12698315  0.61704645  1
  Zn  Zn92  1  0.49499868  0.62688374  0.62271001  1
  Zn  Zn93  1  0.37488546  0.00015988  0.86719745  1
  Zn  Zn94  1  0.12431774  0.62711141  0.49773121  1
  Zn  Zn95  1  0.50710842  0.37575900  0.86015414  1
  Zn  Zn96  1  0.74951870  0.62437747  0.37325380  1
  Zn  Zn97  1  0.74463469  0.62796646  0.87213250  1
  Zn  Zn98  1  0.62309561  0.24874344  0.86809843  1
  Zn  Zn99  1  0.24845932  0.62792414  0.37550630  1
  Zn  Zn100  1  0.12522037  0.37491910  0.75103371  1
  Zn  Zn101  1  0.50762625  0.50080652  -0.00021585  1
  Zn  Zn102  1  0.50778067  0.13333596  0.12141656  1
  Zn  Zn103  1  0.00698900  0.87623118  0.37173276  1
  Zn  Zn104  1  0.00277503  -0.01030910  0.02191008  1
  Zn  Zn105  1  0.87421428  0.01072786  0.37521640  1
  Zn  Zn106  1  0.50327234  0.87992972  0.37674441  1
  Zn  Zn107  1  0.18479356  0.17822213  0.19509253  1
  Zn  Zn108  1  0.18430527  0.18500872  0.68734561  1
  Zn  Zn109  1  0.18878518  0.68951078  0.18354897  1
  Zn  Zn110  1  0.18740820  0.68683967  0.68631038  1
  Zn  Zn111  1  0.69070760  0.18572469  0.18819668  1
  Zn  Zn112  1  0.67893076  0.18594541  0.68657951  1
  Zn  Zn113  1  0.68804981  0.68899885  0.19010546  1
  Zn  Zn114  1  0.68587378  0.68539785  0.68834381  1
  Zn  Zn115  1  0.30949873  0.30780842  0.31417711  1
  Zn  Zn116  1  0.31774120  0.30728036  0.80845393  1
  Zn  Zn117  1  0.30840827  0.81367038  0.31493325  1
  Zn  Zn118  1  0.31449450  0.81429659  0.81126133  1
  Zn  Zn119  1  0.81053517  0.32094768  0.30589746  1
  Zn  Zn120  1  0.80962467  0.31045400  0.81351133  1
  Zn  Zn121  1  0.80873367  0.81348660  0.32043012  1
  Zn  Zn122  1  0.81352136  0.81136148  0.81422348  1
  Zn  Zn123  1  0.19019440  0.43863555  0.43599552  1
  Zn  Zn124  1  0.18639581  0.43726707  0.93659488  1
  Zn  Zn125  1  0.19549403  0.92992339  0.43087340  1
  Zn  Zn126  1  0.18795594  0.93770129  0.94072483  1
  Zn  Zn127  1  0.68925778  0.43815389  0.43820386  1
  Zn  Zn128  1  0.68731849  0.44431090  0.93635337  1
  Zn  Zn129  1  0.69007066  0.93609626  0.43983747  1
  Zn  Zn130  1  0.68652440  0.93521309  0.94119283  1
  Zn  Zn131  1  0.31636284  0.06555868  0.06053871  1
  Zn  Zn132  1  0.31405562  0.05721924  0.55610440  1
  Zn  Zn133  1  0.31417382  0.56214167  0.06552208  1
  Zn  Zn134  1  0.31207983  0.55815890  0.56098628  1
  Zn  Zn135  1  0.81416707  0.05611475  0.06706013  1
  Zn  Zn136  1  0.81201437  0.05640283  0.56721404  1
  Zn  Zn137  1  0.81197112  0.56358971  0.06422129  1
  Zn  Zn138  1  0.81005447  0.56166278  0.56698630  1
  Zn  Zn139  1  0.43092009  0.44153672  0.18423517  1
  Zn  Zn140  1  0.43636805  0.43521768  0.68401512  1
  Zn  Zn141  1  0.43447013  0.94140584  0.18452108  1
  Zn  Zn142  1  0.43171462  0.94082991  0.68859755  1
  Zn  Zn143  1  0.93511170  0.43751229  0.18318008  1
  Zn  Zn144  1  0.93441110  0.43562499  0.68673115  1
  Zn  Zn145  1  0.95720681  0.97121548  0.22311438  1
  Zn  Zn146  1  0.93587832  0.93222128  0.69244159  1
  Zn  Zn147  1  0.06310163  0.06508559  0.32011063  1
  Zn  Zn148  1  0.06078620  0.06392908  0.81854275  1
  Zn  Zn149  1  0.06507911  0.56724498  0.31411694  1
  Zn  Zn150  1  0.06184769  0.56005411  0.81358554  1
  Zn  Zn151  1  0.56471934  0.06009806  0.31028690  1
  Zn  Zn152  1  0.55449655  0.06138451  0.80526414  1
  Zn  Zn153  1  0.55776260  0.56775037  0.31573559  1
  Zn  Zn154  1  0.56417829  0.56630602  0.81673577  1
  Zn  Zn155  1  0.43572289  0.18333146  0.43365249  1
  Zn  Zn156  1  0.43761181  0.19356081  0.93359489  1
  Zn  Zn157  1  0.43522487  0.68730063  0.43694887  1
  Zn  Zn158  1  0.43949228  0.68999918  0.93448336  1
  Zn  Zn159  1  0.96004165  0.18764324  0.44274501  1
  Zn  Zn160  1  0.93466254  0.18837735  0.93994308  1
  Zn  Zn161  1  0.94127395  0.68884187  0.43349339  1
  Zn  Zn162  1  0.93596640  0.68763504  0.93854300  1
  Zn  Zn163  1  0.05967427  0.30988360  0.06287136  1
  Zn  Zn164  1  0.05881105  0.31506615  0.56725897  1
  Zn  Zn165  1  0.06952487  0.81027165  0.06097079  1
  Zn  Zn166  1  0.06704612  0.81312763  0.56281744  1
  Zn  Zn167  1  0.58499736  0.33890469  0.01672133  1
  Zn  Zn168  1  0.56435629  0.31065743  0.55888754  1
  Zn  Zn169  1  0.56133767  0.81465179  0.06560482  1
  Zn  Zn170  1  0.56255962  0.81034098  0.56630166  1
  O  O171  1  0.12414167  0.13716880  0.10621276  1
  O  O172  1  0.11948171  0.12269076  0.61484098  1
  O  O173  1  0.11481881  0.63107374  0.11501485  1
  O  O174  1  0.12383035  0.61150916  0.62254225  1
  O  O175  1  0.62548538  0.11142801  0.12728229  1
  O  O176  1  0.62462614  0.11579413  0.61036549  1
  O  O177  1  0.60915450  0.63323587  0.12372220  1
  O  O178  1  0.62322470  0.61612567  0.61516819  1
  O  O179  1  0.36704871  0.38663088  0.37982603  1
  O  O180  1  0.37205395  0.38252167  0.88266434  1
  O  O181  1  0.37449892  0.87957034  0.38464654  1
  O  O182  1  0.38055702  0.87689832  0.88546107  1
  O  O183  1  0.87927017  0.38260887  0.38065232  1
  O  O184  1  0.88600742  0.36656388  0.88625881  1
  O  O185  1  0.87898301  0.86881723  0.39223251  1
  O  O186  1  0.87996288  0.88024450  0.88342203  1
  O  O187  1  0.26120742  0.00752394  0.37634905  1
  O  O188  1  0.24877679  0.01526224  0.87963663  1
  O  O189  1  0.25669203  0.50472740  0.36429079  1
  O  O190  1  0.25727763  0.50423919  0.86945904  1
  O  O191  1  0.74949601  -0.00404576  0.36352595  1
  O  O192  1  0.75981916  0.00176395  0.87479449  1
  O  O193  1  0.75573711  0.50328958  0.36591175  1
  O  O194  1  0.75063809  0.49675927  0.85731391  1
  O  O195  1  0.25414666  0.49345627  0.13889906  1
  O  O196  1  0.24168777  0.49141526  0.62789021  1
  O  O197  1  0.25410646  0.98913725  0.11857697  1
  O  O198  1  0.24609279  0.98538693  0.62041007  1
  O  O199  1  0.75094078  0.49916024  0.13854475  1
  O  O200  1  0.74192581  0.49267011  0.63288772  1
  O  O201  1  0.74402333  0.98764400  0.13203841  1
  O  O202  1  0.74318645  0.99163224  0.63283067  1
  O  O203  1  0.00639775  0.37296241  0.25399307  1
  O  O204  1  -0.00179384  0.37004458  0.75937160  1
  O  O205  1  -0.01593676  0.85580100  0.23785837  1
  O  O206  1  0.00836012  0.86761309  0.75663555  1
  O  O207  1  0.50598144  0.37789367  0.24361916  1
  O  O208  1  0.49251785  0.35984108  0.74634095  1
  O  O209  1  0.49327043  0.86236058  0.25049444  1
  O  O210  1  0.50529650  0.86943980  0.75590902  1
  O  O211  1  0.49260963  0.12635473  0.24586951  1
  O  O212  1  0.49760778  0.13331088  0.73987975  1
  O  O213  1  0.49199709  0.63279733  0.24069140  1
  O  O214  1  0.49175840  0.63279110  0.75063617  1
  O  O215  1  0.99847815  0.14355302  0.25634881  1
  O  O216  1  0.99506804  0.12957730  0.74637017  1
  O  O217  1  0.99456958  0.61726402  0.23720699  1
  O  O218  1  0.99262217  0.62905745  0.74924369  1
  O  O219  1  0.36974226  0.25764511  0.00943229  1
  O  O220  1  0.37241796  0.26316080  0.48824621  1
  O  O221  1  0.37026351  0.75798929  0.00330275  1
  O  O222  1  0.36042149  0.75994864  0.49216545  1
  O  O223  1  0.86871045  0.25706748  0.00735396  1
  O  O224  1  0.86590231  0.24905009  0.49813424  1
  O  O225  1  0.86724126  0.76040961  -0.00224694  1
  O  O226  1  0.87259380  0.75344809  0.50798697  1
  O  O227  1  0.12545668  0.26275607  0.48935435  1
  O  O228  1  0.12730536  0.24602435  0.98934762  1
  O  O229  1  0.13904889  0.74822935  0.49885714  1
  O  O230  1  0.13039281  0.73781911  0.99174460  1
  O  O231  1  0.62485123  0.23692777  0.48825069  1
  O  O232  1  0.64189008  0.23696618  1.00318717  1
  O  O233  1  0.62884059  0.74043599  0.49942810  1
  O  O234  1  0.63670386  0.75288753  1.00187623  1
  O  O235  1  0.49717303  0.25488911  0.12862539  1
  O  O236  1  0.50545159  0.24784686  0.63367687  1
  O  O237  1  0.49297745  0.74487474  0.13199551  1
  O  O238  1  0.50057348  0.74702187  0.64021085  1
  O  O239  1  0.99226939  0.24788327  0.13400231  1
  O  O240  1  0.99207610  0.24324437  0.63125501  1
  O  O241  1  0.99380477  0.74213623  0.12135336  1
  O  O242  1  0.99375145  0.74781108  0.63032040  1
  O  O243  1  0.00636043  0.26206471  0.37016215  1
  O  O244  1  0.00600838  0.25634111  0.87160640  1
  O  O245  1  0.01875370  0.75480395  0.38161003  1
  O  O246  1  0.00578437  0.75535591  0.87094938  1
  O  O247  1  0.51076096  0.25197803  0.37578752  1
  O  O248  1  0.50297919  0.25158562  0.86414499  1
  O  O249  1  0.50518968  0.74963854  0.36713636  1
  O  O250  1  0.49715975  0.76399535  0.86574651  1
  O  O251  1  0.23324255  0.12091088  0.49460827  1
  O  O252  1  0.23855965  0.13087703  0.99390290  1
  O  O253  1  0.25225951  0.63584101  0.49921728  1
  O  O254  1  0.24281138  0.62785390  0.99751711  1
  O  O255  1  0.74336585  0.12790354  0.50057380  1
  O  O256  1  0.76205723  0.12946421  0.99015117  1
  O  O257  1  0.74145766  0.62895041  0.49989054  1
  O  O258  1  0.75302096  0.64259529  1.00419580  1
  O  O259  1  0.25522616  0.37088871  0.00501137  1
  O  O260  1  0.25837729  0.37556049  0.50591031  1
  O  O261  1  0.25836497  0.87022824  0.00342096  1
  O  O262  1  0.25481476  0.86506732  0.51076080  1
  O  O263  1  0.75697662  0.36563362  0.00242969  1
  O  O264  1  0.75799075  0.38188560  0.51417791  1
  O  O265  1  0.75585028  0.86669894  0.01068203  1
  O  O266  1  0.75977432  0.86647094  0.50700637  1
  O  O267  1  0.13282456  0.49127904  0.25545523  1
  O  O268  1  0.13141641  0.49782743  0.74271563  1
  O  O269  1  0.16205710  1.07974825  0.27058076  1
  O  O270  1  0.12094809  0.98658202  0.75833823  1
  O  O271  1  0.63629626  0.51093819  0.25451986  1
  O  O272  1  0.63027457  0.50318614  0.73802733  1
  O  O273  1  0.63661390  0.99822199  0.24266720  1
  O  O274  1  0.62874466  0.98928843  0.74131453  1
  O  O275  1  0.37599472  0.00944332  0.25612368  1
  O  O276  1  0.37744914  0.00943433  0.75507663  1
  O  O277  1  0.36763463  0.50685106  0.25619334  1
  O  O278  1  0.36938516  0.50484525  0.75757495  1
  O  O279  1  0.85035999  -0.00526857  0.25361150  1
  O  O280  1  0.86749092  0.00069954  0.76083347  1
  O  O281  1  0.87041748  0.50586781  0.25444326  1
  O  O282  1  0.86646976  0.51119148  0.74012555  1
  O  O283  1  0.12152891  0.37167718  0.36604228  1
  O  O284  1  0.11387045  0.36774348  0.87536617  1
  O  O285  1  0.12498180  0.86230511  0.37314190  1
  O  O286  1  0.12320195  0.86817327  0.87064269  1
  O  O287  1  0.62768035  0.35778649  0.38480919  1
  O  O288  1  0.61415212  0.36235457  0.90350183  1
  O  O289  1  0.62061246  0.85945710  0.38795448  1
  O  O290  1  0.61769450  0.87965579  0.86496433  1
  O  O291  1  0.38151842  0.13548576  0.12936981  1
  O  O292  1  0.37253423  0.12885996  0.61388347  1
  O  O293  1  0.37867717  0.63296666  0.13505052  1
  O  O294  1  0.37463670  0.61624385  0.63937665  1
  O  O295  1  0.87578174  0.13900421  0.12014217  1
  O  O296  1  0.88091886  0.12773555  0.62992414  1
  O  O297  1  0.88439248  0.62313756  0.13594104  1
  O  O298  1  0.87567676  0.63621110  0.63247897  1
  O  O299  1  0.25676139  0.25567832  0.12111250  1
  O  O300  1  0.23855032  0.26321224  0.62114150  1
  O  O301  1  0.25738025  0.75481881  0.11633160  1
  O  O302  1  0.25005960  0.75297378  0.61348484  1
  O  O303  1  0.75648416  0.25336311  0.12030546  1
  O  O304  1  0.75544365  0.25738478  0.63172774  1
  O  O305  1  0.74380918  0.76220090  0.11803419  1
  O  O306  1  0.75818573  0.75422047  0.62187828  1
  O  O307  1  0.23918473  0.23619128  0.37670521  1
  O  O308  1  0.24113060  0.24617409  0.88168701  1
  O  O309  1  0.23926490  0.74983682  0.38448823  1
  O  O310  1  0.24698268  0.74397272  0.88090645  1
  O  O311  1  0.74565504  0.24751155  0.37214693  1
  O  O312  1  0.74910670  0.23789553  0.88187449  1
  O  O313  1  0.74080158  0.74490572  0.38308401  1
  O  O314  1  0.75130954  0.75438902  0.89184363  1
  O  O315  1  0.01371487  0.12568249  -0.00345992  1
  O  O316  1  0.01624756  0.12203015  0.51295324  1
  O  O317  1  0.00378633  0.61810583  0.00458854  1
  O  O318  1  -0.00081306  0.61250506  0.50305162  1
  O  O319  1  0.49531963  0.11354307  -0.00054932  1
  O  O320  1  0.51186054  0.12332234  0.49861178  1
  O  O321  1  0.49590558  0.62843759  0.01419496  1
  O  O322  1  0.50396826  0.61637387  0.50267783  1
  O  O323  1  0.49132724  0.38659138  0.50498846  1
  O  O324  1  0.47922336  0.38217588  1.00645239  1
  O  O325  1  0.48318931  0.86332290  0.50101902  1
  O  O326  1  0.49375801  0.87847920  0.99359152  1
  O  O327  1  0.99238784  0.38574272  0.49579826  1
  O  O328  1  0.99420604  0.38182429  0.99546148  1
  O  O329  1  0.98749956  0.87452616  0.50413297  1
  O  O330  1  0.99372340  0.87262280  0.99594541  1
  O  O331  1  0.48928843  0.50426500  0.38339203  1
  O  O332  1  0.48705109  0.49622521  0.87422112  1
  O  O333  1  0.48742838  0.99652615  0.37082651  1
  O  O334  1  0.50096643  0.98942638  0.88238193  1
  O  O335  1  0.99470260  0.49734138  0.38214004  1
  O  O336  1  1.00254225  0.49080574  0.88697352  1
  O  O337  1  0.98699991  0.98798260  0.34157034  1
  O  O338  1  0.98776707  0.99352439  0.87790244  1
  O  O339  1  -0.00004536  0.01212517  0.13164806  1
  O  O340  1  -0.00591329  0.01069472  0.63369813  1
  O  O341  1  -0.00093940  0.50688998  0.11116472  1
  O  O342  1  0.00684933  0.49830017  0.61778763  1
  O  O343  1  0.50917030  -0.00041960  0.11640073  1
  O  O344  1  0.51286749  -0.00331994  0.62418359  1
  O  O345  1  0.48976964  0.51973597  0.12428126  1
  O  O346  1  0.50783153  0.50198395  0.61785670  1
  O  O347  1  0.24102483  0.38083016  0.24755844  1
  O  O348  1  0.25053302  0.37946213  0.74167172  1
  O  O349  1  0.25732749  0.87367712  0.23206852  1
  O  O350  1  0.24514641  0.86909243  0.73614787  1
  O  O351  1  0.74644783  0.39292361  0.24620974  1
  O  O352  1  0.75878964  0.38222906  0.73750642  1
  O  O353  1  0.74990853  0.87083066  0.23894734  1
  O  O354  1  0.74330813  0.87752876  0.74660815  1
  O  O355  1  0.28093350  0.15014030  0.25391512  1
  O  O356  1  0.24767775  0.13196055  0.76651085  1
  O  O357  1  0.25692007  0.61822019  0.24813514  1
  O  O358  1  0.25620611  0.61955559  0.75524482  1
  O  O359  1  0.74959560  0.11341627  0.25306354  1
  O  O360  1  0.75540587  0.11667650  0.75668878  1
  O  O361  1  0.75811549  0.61648944  0.24931196  1
  O  O362  1  0.75746276  0.61695835  0.74780039  1
  O  O363  1  0.36931244  0.11517485  0.36844522  1
  O  O364  1  0.35567627  0.12622076  0.88465888  1
  O  O365  1  0.37355972  0.61771080  0.36281709  1
  O  O366  1  0.36991903  0.61719087  0.86868094  1
  O  O367  1  0.86797596  0.13225185  0.39239423  1
  O  O368  1  0.87089768  0.11499357  0.87127855  1
  O  O369  1  0.87651596  0.62166000  0.36174465  1
  O  O370  1  0.86867532  0.63199265  0.86130848  1
  O  O371  1  0.12785079  0.36881104  0.13721512  1
  O  O372  1  0.12930227  0.38598456  0.62777712  1
  O  O373  1  0.14133415  0.87367301  0.11952769  1
  O  O374  1  0.13856509  0.86998635  0.63411747  1
  O  O375  1  0.61879854  0.36089678  0.12692250  1
  O  O376  1  0.63453031  0.38362783  0.61721219  1
  O  O377  1  0.63567590  0.88210887  0.12520928  1
  O  O378  1  0.63094739  0.88100714  0.62881532  1
  O  O379  1  0.11731769  0.25835131  0.26122744  1
  O  O380  1  0.11770632  0.25115309  0.76174278  1
  O  O381  1  0.12840400  0.74624607  0.26194434  1
  O  O382  1  0.12031402  0.75334649  0.75563863  1
  O  O383  1  0.62117444  0.25229420  0.25733312  1
  O  O384  1  0.60898342  0.24574031  0.75233964  1
  O  O385  1  0.61489499  0.74247074  0.26295344  1
  O  O386  1  0.61938082  0.76299603  0.74441169  1
  O  O387  1  0.38244561  0.25601774  0.23875279  1
  O  O388  1  0.38939290  0.23929079  0.75381672  1
  O  O389  1  0.37983745  0.74275569  0.24803859  1
  O  O390  1  0.38295695  0.73935559  0.75602525  1
  O  O391  1  0.88323873  0.26178993  0.23970695  1
  O  O392  1  0.87944644  0.24060371  0.74714858  1
  O  O393  1  0.87080202  0.74229949  0.24709720  1
  O  O394  1  0.88094462  0.74626346  0.74243654  1
  O  O395  1  0.38088000  0.49405183  0.49093288  1
  O  O396  1  0.37170001  0.49481985  0.99022341  1
  O  O397  1  0.37065035  0.98054720  0.49046924  1
  O  O398  1  0.38478985  0.99269536  0.99642206  1
  O  O399  1  0.88085354  0.49783503  0.49614480  1
  O  O400  1  0.88096268  0.49076990  1.00237462  1
  O  O401  1  0.87030490  0.98520041  0.49650203  1
  O  O402  1  0.87640239  0.98471198  0.99664934  1
  O  O403  1  0.11966475  0.01359849  -0.00508203  1
  O  O404  1  0.12458417  0.00067595  0.49490048  1
  O  O405  1  0.11859304  0.51205169  -0.00456305  1
  O  O406  1  0.11697344  0.50021103  0.50587223  1
  O  O407  1  0.61575307  -0.00714270  0.01072344  1
  O  O408  1  0.63158318  0.01199592  0.50450355  1
  O  O409  1  0.62180783  0.50117787  0.00689782  1
  O  O410  1  0.61763127  0.50579406  0.50408607  1
  O  O411  1  0.36452122  0.37064927  0.11939123  1
  O  O412  1  0.36303013  0.38164939  0.61178648  1
  O  O413  1  0.37117469  0.87100321  0.11282350  1
  O  O414  1  0.36390958  0.87652992  0.61402330  1
  O  O415  1  0.87448213  0.36641061  0.11297636  1
  O  O416  1  0.87081232  0.36441671  0.61755560  1
  O  O417  1  0.86794332  0.86374198  0.12246561  1
  O  O418  1  0.87185585  0.86520486  0.61804832  1
  O  O419  1  0.11983497  0.13597806  0.39948663  1
  O  O420  1  0.13213259  0.13236538  0.88307454  1
  O  O421  1  0.12812087  0.63684251  0.37896657  1
  O  O422  1  0.13171400  0.62853311  0.88051519  1
  O  O423  1  0.62360476  0.13084691  0.38503212  1
  O  O424  1  0.63835494  0.11697389  0.87054137  1
  O  O425  1  0.62360185  0.63329074  0.38884151  1
  O  O426  1  0.63171700  0.62403203  0.88165261  1
