# generated using pymatgen
data_V85Zn86O256
_symmetry_space_group_name_H-M   'P 1'
_cell_length_a   16.95676594
_cell_length_b   16.95477942
_cell_length_c   16.95994478
_cell_angle_alpha   89.94398125
_cell_angle_beta   89.97432086
_cell_angle_gamma   89.97290003
_symmetry_Int_Tables_number   1
_chemical_formula_structural   V85Zn86O256
_chemical_formula_sum   'V85 Zn86 O256'
_cell_volume   4875.95067693
_cell_formula_units_Z   1
loop_
 _symmetry_equiv_pos_site_id
 _symmetry_equiv_pos_as_xyz
  1  'x, y, z'
loop_
 _atom_site_type_symbol
 _atom_site_label
 _atom_site_symmetry_multiplicity
 _atom_site_fract_x
 _atom_site_fract_y
 _atom_site_fract_z
 _atom_site_occupancy
  V  V0  1  0.36595325  0.62679407  0.75052401  1
  V  V1  1  0.12844952  -0.00389208  0.12531107  1
  V  V2  1  0.24804631  0.87162997  0.62118295  1
  V  V3  1  0.25358685  0.86207239  0.12764214  1
  V  V4  1  0.62355867  0.12563290  0.48924240  1
  V  V5  1  0.74797908  0.75922113  0.50208981  1
  V  V6  1  0.12567925  0.87438790  0.75405855  1
  V  V7  1  0.36982055  0.25238381  0.12942129  1
  V  V8  1  0.00062380  -0.00638378  0.00139982  1
  V  V9  1  0.74628265  0.12257198  0.88751056  1
  V  V10  1  0.00198504  0.62088484  0.13560716  1
  V  V11  1  0.86210783  0.37319595  -0.00018274  1
  V  V12  1  0.75043024  -0.00471376  0.74392004  1
  V  V13  1  0.25060729  -0.00103231  0.75126690  1
  V  V14  1  0.37732355  0.86571525  0.00595964  1
  V  V15  1  0.00866243  0.37776360  0.37237749  1
  V  V16  1  0.25038934  0.37444340  0.62024099  1
  V  V17  1  0.12887052  0.48515649  0.13229734  1
  V  V18  1  0.49644072  0.61517299  0.13343098  1
  V  V19  1  0.86782052  0.25061088  0.12002792  1
  V  V20  1  0.87243220  0.38516256  0.49494662  1
  V  V21  1  0.11575802  0.49830988  0.61628390  1
  V  V22  1  0.37630463  0.12832753  0.25790431  1
  V  V23  1  0.49962297  0.74814380  0.75159842  1
  V  V24  1  0.37724348  0.88341498  0.50352128  1
  V  V25  1  0.37072598  0.74753464  0.61821399  1
  V  V26  1  0.87181767  0.12742693  0.25199192  1
  V  V27  1  0.00122676  0.12511935  0.12564582  1
  V  V28  1  0.50324914  0.12467721  0.12483954  1
  V  V29  1  -0.00385029  0.37269149  0.87992076  1
  V  V30  1  0.50238034  0.50704038  -0.00079877  1
  V  V31  1  -0.00429669  0.74394387  0.25757432  1
  V  V32  1  0.24739489  0.49034359  0.25121052  1
  V  V33  1  0.12281099  0.37443424  0.74856240  1
  V  V34  1  0.87610496  0.86607313  0.00157695  1
  V  V35  1  0.50986327  0.25088813  0.74683248  1
  V  V36  1  0.24417853  0.50167518  0.74939417  1
  V  V37  1  0.87407127  0.00509414  0.37516745  1
  V  V38  1  0.51131318  0.37089753  0.37265252  1
  V  V39  1  0.75220604  0.87033891  0.12638497  1
  V  V40  1  -0.00000078  0.87242737  0.37892987  1
  V  V41  1  0.00150886  0.12799830  0.62433488  1
  V  V42  1  0.25183458  0.12338551  0.87645796  1
  V  V43  1  0.62868310  0.24293229  0.88145430  1
  V  V44  1  0.55582353  0.30692961  0.18671213  1
  V  V45  1  0.49750992  0.88108964  0.37962600  1
  V  V46  1  0.25270106  0.00410977  0.25728323  1
  V  V47  1  0.36695270  0.50537302  0.87604796  1
  V  V48  1  0.00064364  0.00317452  0.49969776  1
  V  V49  1  0.25075922  0.25164386  0.00098367  1
  V  V50  1  0.62335922  0.87226016  0.25044357  1
  V  V51  1  0.12641166  0.12130138  -0.00125448  1
  V  V52  1  0.37799193  -0.00095091  0.87766850  1
  V  V53  1  0.37680064  0.25090605  0.62413730  1
  V  V54  1  -0.00175517  0.74348885  0.74580529  1
  V  V55  1  0.12473809  0.87509077  0.25352835  1
  V  V56  1  0.48260076  0.74971370  0.24341857  1
  V  V57  1  0.62420982  0.62527884  0.49761381  1
  V  V58  1  0.63147027  0.86992882  0.74833807  1
  V  V59  1  0.62201662  0.75047186  0.37283965  1
  V  V60  1  0.49324213  0.37541938  0.86736326  1
  V  V61  1  0.50006841  0.49931070  0.49905906  1
  V  V62  1  0.25554530  0.63437252  0.37556692  1
  V  V63  1  0.36975667  0.37587855  0.00275258  1
  V  V64  1  0.12183518  0.62941386  0.50267660  1
  V  V65  1  0.61749424  -0.00418670  0.61898519  1
  V  V66  1  0.37687618  0.12568778  0.75162738  1
  V  V67  1  0.63753288  0.48745164  0.62130859  1
  V  V68  1  0.13235876  0.12987537  0.49274345  1
  V  V69  1  0.37871457  0.50439377  0.36839248  1
  V  V70  1  0.50579350  0.00237067  -0.00014906  1
  V  V71  1  0.74705391  0.48815869  0.24155405  1
  V  V72  1  0.50606192  0.87035365  0.87673936  1
  V  V73  1  0.86257662  0.25146484  0.62090769  1
  V  V74  1  0.12579138  0.24877329  0.87451543  1
  V  V75  1  -0.00329047  0.49796011  0.00430190  1
  V  V76  1  0.87400548  0.12317302  0.75038384  1
  V  V77  1  0.13154373  0.62301683  -0.00324781  1
  V  V78  1  0.87401909  -0.00305950  0.87638707  1
  V  V79  1  0.75923586  0.62637295  0.36390443  1
  V  V80  1  0.68096575  0.43282548  0.80412799  1
  V  V81  1  0.86970803  0.88078415  0.51010003  1
  V  V82  1  0.74957814  -0.00083899  0.25454560  1
  V  V83  1  0.73871082  0.73614674  0.00095399  1
  V  V84  1  0.62705653  0.00163266  0.12105156  1
  Zn  Zn85  1  0.00376067  0.25770580  0.24854433  1
  Zn  Zn86  1  0.25678436  0.24433649  0.49269699  1
  Zn  Zn87  1  0.86937241  0.74950677  0.63173079  1
  Zn  Zn88  1  0.67266412  0.69490290  0.83756182  1
  Zn  Zn89  1  0.74077557  0.37299811  0.12668505  1
  Zn  Zn90  1  0.49843444  0.12011077  0.62145350  1
  Zn  Zn91  1  0.81619127  0.57532186  0.80268471  1
  Zn  Zn92  1  0.14179603  0.25514769  0.35595559  1
  Zn  Zn93  1  0.12600862  0.00226183  0.62538813  1
  Zn  Zn94  1  0.75093005  0.24395687  0.48455146  1
  Zn  Zn95  1  0.37464449  0.00909589  0.38397077  1
  Zn  Zn96  1  0.87298090  0.73948924  0.13507501  1
  Zn  Zn97  1  0.37705152  0.37313832  0.49503234  1
  Zn  Zn98  1  0.12955189  0.75400822  0.38447099  1
  Zn  Zn99  1  0.49819528  0.62265379  0.62396141  1
  Zn  Zn100  1  0.00225993  0.86909186  0.87675210  1
  Zn  Zn101  1  0.88371224  0.50773280  0.36812572  1
  Zn  Zn102  1  0.13023946  0.73800388  0.87140184  1
  Zn  Zn103  1  0.25674109  0.73928444  -0.00303117  1
  Zn  Zn104  1  -0.04394243  0.58923871  0.65248063  1
  Zn  Zn105  1  -0.00037959  0.24806006  0.75001524  1
  Zn  Zn106  1  0.62936629  0.24983629  0.36282148  1
  Zn  Zn107  1  0.19131808  0.18698903  0.18606017  1
  Zn  Zn108  1  0.18789878  0.18814987  0.68525571  1
  Zn  Zn109  1  0.18267028  0.68233289  0.19554403  1
  Zn  Zn110  1  0.18381549  0.68698205  0.68529372  1
  Zn  Zn111  1  0.69234263  0.18012895  0.18093844  1
  Zn  Zn112  1  0.68705628  0.17888667  0.68823804  1
  Zn  Zn113  1  0.67761907  0.68295564  0.18453459  1
  Zn  Zn114  1  0.68798846  0.68154500  0.67301703  1
  Zn  Zn115  1  0.32077680  0.31401270  0.31637356  1
  Zn  Zn116  1  0.31157106  0.31295124  0.80890665  1
  Zn  Zn117  1  0.31080701  0.81767781  0.31715453  1
  Zn  Zn118  1  0.31033660  0.80901409  0.81677545  1
  Zn  Zn119  1  0.81189692  0.31170142  0.31516676  1
  Zn  Zn120  1  0.81608793  0.30460917  0.81589363  1
  Zn  Zn121  1  0.81466324  0.81336658  0.31929333  1
  Zn  Zn122  1  0.81577612  0.80656261  0.81580911  1
  Zn  Zn123  1  0.19129152  0.43756145  0.43688584  1
  Zn  Zn124  1  0.18344815  0.43990059  0.93792967  1
  Zn  Zn125  1  0.18784186  0.94164776  0.44093944  1
  Zn  Zn126  1  0.19143958  0.93027905  0.93859728  1
  Zn  Zn127  1  0.69477893  0.43741244  0.43494381  1
  Zn  Zn128  1  0.67841590  0.55699685  0.95136712  1
  Zn  Zn129  1  0.68532025  0.94087650  0.43589946  1
  Zn  Zn130  1  0.68881823  0.93230973  0.93630158  1
  Zn  Zn131  1  0.31570032  0.05929854  0.06694018  1
  Zn  Zn132  1  0.31256625  0.06155644  0.56722350  1
  Zn  Zn133  1  0.31672143  0.56638325  0.07318414  1
  Zn  Zn134  1  0.30941375  0.56259156  0.55752839  1
  Zn  Zn135  1  0.81520744  0.05706692  0.06509298  1
  Zn  Zn136  1  0.80764658  0.06457190  0.56416532  1
  Zn  Zn137  1  0.81979846  0.55946200  0.07102223  1
  Zn  Zn138  1  0.80637615  0.56587843  0.55624550  1
  Zn  Zn139  1  0.42821613  0.44206680  0.18659828  1
  Zn  Zn140  1  0.43710819  0.43905926  0.68447578  1
  Zn  Zn141  1  0.43588866  0.93819975  0.18921767  1
  Zn  Zn142  1  0.43745095  0.93407114  0.69084357  1
  Zn  Zn143  1  0.93218040  0.43995724  0.19403102  1
  Zn  Zn144  1  0.92945055  0.42502640  0.69063658  1
  Zn  Zn145  1  0.93789448  0.93430294  0.18955123  1
  Zn  Zn146  1  0.94202302  0.93680511  0.68807978  1
  Zn  Zn147  1  0.06325590  0.06812668  0.31015429  1
  Zn  Zn148  1  0.06072432  0.05884991  0.81277238  1
  Zn  Zn149  1  0.06850082  0.55966666  0.32069498  1
  Zn  Zn150  1  -0.02324781  0.56178915  0.82027503  1
  Zn  Zn151  1  0.55879399  0.06101094  0.30792693  1
  Zn  Zn152  1  0.56476590  0.06212851  0.81015353  1
  Zn  Zn153  1  0.56582675  0.56479020  0.30969619  1
  Zn  Zn154  1  0.55264371  0.56219296  0.80840813  1
  Zn  Zn155  1  0.44844096  0.18944739  0.43970775  1
  Zn  Zn156  1  0.44171217  0.18933484  0.94030172  1
  Zn  Zn157  1  0.43652664  0.69169243  0.43606916  1
  Zn  Zn158  1  0.44116598  0.68429717  0.93580495  1
  Zn  Zn159  1  0.94252789  0.19330867  0.43600183  1
  Zn  Zn160  1  0.93598317  0.18604345  0.93919790  1
  Zn  Zn161  1  0.92769854  0.67706004  0.47037008  1
  Zn  Zn162  1  0.94024584  0.68749710  0.93924715  1
  Zn  Zn163  1  0.06110601  0.30919453  0.06387076  1
  Zn  Zn164  1  0.05769349  0.31193278  0.55679306  1
  Zn  Zn165  1  0.06415970  0.80548978  0.06818393  1
  Zn  Zn166  1  0.06327402  0.81197331  0.56443216  1
  Zn  Zn167  1  0.61283832  0.36779027  0.00644581  1
  Zn  Zn168  1  0.56418005  0.31034482  0.55731917  1
  Zn  Zn169  1  0.56328102  0.80924539  0.06668373  1
  Zn  Zn170  1  0.55991185  0.81325666  0.56507302  1
  O  O171  1  0.11726816  0.11573828  0.11671941  1
  O  O172  1  0.11600042  0.12358805  0.62015596  1
  O  O173  1  0.11673950  0.61410642  0.12414218  1
  O  O174  1  0.13357535  0.61428022  0.61173126  1
  O  O175  1  0.61665929  0.11496962  0.12515368  1
  O  O176  1  0.62127672  0.10878172  0.62373931  1
  O  O177  1  0.59691216  0.63713727  0.11952348  1
  O  O178  1  0.61819073  0.61469339  0.61259312  1
  O  O179  1  0.39260085  0.38693727  0.37375597  1
  O  O180  1  0.37734909  0.38316106  0.87677217  1
  O  O181  1  0.37981765  0.87565334  0.38832682  1
  O  O182  1  0.38765508  0.88130218  0.88052410  1
  O  O183  1  0.88199643  0.37763001  0.38408018  1
  O  O184  1  0.88505556  0.36509834  0.88599752  1
  O  O185  1  0.88204509  0.88949157  0.38126846  1
  O  O186  1  0.87744473  0.87885914  0.88667195  1
  O  O187  1  0.25427350  -0.00545163  0.36176446  1
  O  O188  1  0.25778588  0.00326966  0.87112506  1
  O  O189  1  0.25984893  0.50482949  0.36885789  1
  O  O190  1  0.25413860  0.49277005  0.85956425  1
  O  O191  1  0.75742061  -0.00416426  0.36206637  1
  O  O192  1  0.75434083  0.00142948  0.86622125  1
  O  O193  1  0.75244343  0.51627545  0.36937666  1
  O  O194  1  0.73534282  0.49595780  0.86319990  1
  O  O195  1  0.24575127  0.50586464  0.14334876  1
  O  O196  1  0.25102609  0.49076955  0.63318099  1
  O  O197  1  0.24509473  0.99134943  0.13390776  1
  O  O198  1  0.25051781  0.99121597  0.63638927  1
  O  O199  1  0.75019275  0.49518957  0.13604235  1
  O  O200  1  0.73632715  0.50438925  0.62301908  1
  O  O201  1  0.74829397  0.99013601  0.13423978  1
  O  O202  1  0.74075544  0.99980831  0.63875986  1
  O  O203  1  -0.00506369  0.37452775  0.26631195  1
  O  O204  1  0.00529304  0.37028436  0.76153082  1
  O  O205  1  0.00670045  0.87217689  0.26002327  1
  O  O206  1  0.01100544  0.87061230  0.75258506  1
  O  O207  1  0.50356424  0.37271183  0.24825905  1
  O  O208  1  0.49052508  0.36695364  0.75955085  1
  O  O209  1  0.50221556  0.86627276  0.25544811  1
  O  O210  1  0.50771633  0.86744593  0.75767743  1
  O  O211  1  0.49076211  0.11726176  0.23378807  1
  O  O212  1  0.49298766  0.13361687  0.74955023  1
  O  O213  1  0.49902936  0.63627163  0.24381318  1
  O  O214  1  0.48492273  0.63156731  0.74504301  1
  O  O215  1  0.98609596  0.11435154  0.23587403  1
  O  O216  1  0.99281898  0.12368895  0.74245417  1
  O  O217  1  1.00911341  0.63309939  0.25066114  1
  O  O218  1  1.01522266  0.64047436  0.74232264  1
  O  O219  1  0.37176914  0.25701758  0.00666668  1
  O  O220  1  0.37849309  0.24961304  0.51334556  1
  O  O221  1  0.37785581  0.76255462  -0.00463622  1
  O  O222  1  0.37935745  0.75881627  0.51401855  1
  O  O223  1  0.87962435  0.25574324  0.01243344  1
  O  O224  1  0.87009274  0.24531633  0.51101759  1
  O  O225  1  0.87142025  0.75759493  0.00691958  1
  O  O226  1  0.86328507  0.76940569  0.49128995  1
  O  O227  1  0.12782052  0.23480171  0.50427322  1
  O  O228  1  0.13106952  0.24103081  0.99613544  1
  O  O229  1  0.12533927  0.73647267  0.50314530  1
  O  O230  1  0.12376070  0.73172950  1.00363791  1
  O  O231  1  0.62818560  0.23453479  0.50035385  1
  O  O232  1  0.61912029  0.25714759  0.98009193  1
  O  O233  1  0.62703371  0.74545294  0.49449829  1
  O  O234  1  0.64092835  0.75341455  1.00350994  1
  O  O235  1  0.49478417  0.24482914  0.12783484  1
  O  O236  1  0.49432986  0.25114864  0.63205940  1
  O  O237  1  0.49696284  0.75445576  0.14113776  1
  O  O238  1  0.49053095  0.74974774  0.63693216  1
  O  O239  1  0.99190632  0.23815270  0.12575939  1
  O  O240  1  0.99184038  0.23811728  0.62488205  1
  O  O241  1  1.00132330  0.73981791  0.14059845  1
  O  O242  1  0.99714413  0.75878904  0.64094437  1
  O  O243  1  0.00200178  0.26268615  0.36975931  1
  O  O244  1  0.00773661  0.25507700  0.87684840  1
  O  O245  1  -0.00086856  0.76457741  0.37694035  1
  O  O246  1  0.00839162  0.75086645  0.86235827  1
  O  O247  1  0.50993481  0.26253257  0.37508548  1
  O  O248  1  0.50371212  0.25675870  0.86677982  1
  O  O249  1  0.50282269  0.75799837  0.36529691  1
  O  O250  1  0.49430070  0.75646067  0.86169932  1
  O  O251  1  0.23571820  0.12265084  0.50716757  1
  O  O252  1  0.24717565  0.12674512  0.99435969  1
  O  O253  1  0.24365073  0.62140995  0.48472078  1
  O  O254  1  0.23658459  0.62176611  1.01101894  1
  O  O255  1  0.72978089  0.12218347  0.50539014  1
  O  O256  1  0.75476209  0.11374684  0.98685944  1
  O  O257  1  0.73669780  0.63381287  0.48856226  1
  O  O258  1  0.74993510  0.63025382  1.00818445  1
  O  O259  1  0.26262798  0.36985463  -0.00785581  1
  O  O260  1  0.25608381  0.37483419  0.51182146  1
  O  O261  1  0.26087945  0.87510659  0.01168902  1
  O  O262  1  0.25592218  0.87990565  0.51432818  1
  O  O263  1  0.76161788  0.38018192  0.00583570  1
  O  O264  1  0.76734507  0.36734002  0.49316460  1
  O  O265  1  0.75710528  0.86871382  0.01005913  1
  O  O266  1  0.75681572  0.87117956  0.49216746  1
  O  O267  1  0.13885042  0.49875581  0.24785664  1
  O  O268  1  0.13526625  0.49134963  0.73586184  1
  O  O269  1  0.13244460  0.99660567  0.24580921  1
  O  O270  1  0.13197593  0.99297026  0.74854311  1
  O  O271  1  0.64857125  0.51293053  0.25271266  1
  O  O272  1  0.62047015  0.49167191  0.73926991  1
  O  O273  1  0.63295967  0.99310827  0.24432627  1
  O  O274  1  0.63128332  0.99074732  0.74315145  1
  O  O275  1  0.36815378  0.00901274  0.25101212  1
  O  O276  1  0.37136181  0.00428422  0.75768298  1
  O  O277  1  0.36699693  0.50430471  0.26119126  1
  O  O278  1  0.36808317  0.50765704  0.75467593  1
  O  O279  1  0.86848203  0.00300386  0.25605902  1
  O  O280  1  0.86766805  0.00018681  0.75468069  1
  O  O281  1  0.85614428  0.50297291  0.25351806  1
  O  O282  1  0.89818003  0.52272987  0.73554628  1
  O  O283  1  0.11230964  0.37142392  0.38558802  1
  O  O284  1  0.12063867  0.36512645  0.87139920  1
  O  O285  1  0.11743548  0.87569334  0.37467131  1
  O  O286  1  0.12422194  0.87779636  0.86225243  1
  O  O287  1  0.61441445  0.38169320  0.37465045  1
  O  O288  1  0.61728621  0.37049747  0.86432564  1
  O  O289  1  0.61645183  0.87083764  0.37074146  1
  O  O290  1  0.61301184  0.87644713  0.86701764  1
  O  O291  1  0.38297753  0.13440022  0.12886003  1
  O  O292  1  0.37773915  0.13208881  0.63269616  1
  O  O293  1  0.39525823  0.63295095  0.12071663  1
  O  O294  1  0.37411559  0.63176958  0.62965077  1
  O  O295  1  0.88064238  0.13153053  0.12769064  1
  O  O296  1  0.88049463  0.13127993  0.62954282  1
  O  O297  1  0.89609863  0.62447125  0.12501043  1
  O  O298  1  0.88583629  0.64202571  0.58352584  1
  O  O299  1  0.25968639  0.24496303  0.11375600  1
  O  O300  1  0.25987895  0.25721679  0.62401072  1
  O  O301  1  0.24357826  0.75994728  0.12675212  1
  O  O302  1  0.25902233  0.75998167  0.63262703  1
  O  O303  1  0.76408874  0.25076154  0.12587056  1
  O  O304  1  0.76202373  0.24282591  0.62617701  1
  O  O305  1  0.75289301  0.75272201  0.11831152  1
  O  O306  1  0.75069891  0.75111217  0.60616436  1
  O  O307  1  0.25199234  0.25636131  0.38094388  1
  O  O308  1  0.24665253  0.24300638  0.88001518  1
  O  O309  1  0.24985202  0.73852117  0.37325678  1
  O  O310  1  0.24201151  0.75570499  0.88443904  1
  O  O311  1  0.74157423  0.24622194  0.37011639  1
  O  O312  1  0.74076461  0.23505329  0.86819971  1
  O  O313  1  0.74325197  0.74446986  0.38158422  1
  O  O314  1  0.75239428  0.75496761  0.89744862  1
  O  O315  1  0.00253605  0.11615765  0.01000565  1
  O  O316  1  0.00739324  0.12156794  0.50656087  1
  O  O317  1  0.01071055  0.61357772  0.01288777  1
  O  O318  1  0.02281432  0.61909480  0.49067513  1
  O  O319  1  0.49401391  0.11448172  0.01168719  1
  O  O320  1  0.51608689  0.12294897  0.50592618  1
  O  O321  1  0.49290192  0.61085560  0.00645685  1
  O  O322  1  0.50982973  0.61996103  0.49660885  1
  O  O323  1  0.49987145  0.38374058  0.49037866  1
  O  O324  1  0.48585296  0.38212446  0.98341476  1
  O  O325  1  0.49075652  0.87020958  0.49192206  1
  O  O326  1  0.49711183  0.87766960  0.99494529  1
  O  O327  1  0.98343315  0.36591121  0.48820030  1
  O  O328  1  0.99452811  0.37762567  0.99667089  1
  O  O329  1  0.99368382  0.88333380  0.49642303  1
  O  O330  1  0.99333046  0.87429171  1.00284123  1
  O  O331  1  0.49667811  0.50078859  0.38086905  1
  O  O332  1  0.48607882  0.49225535  0.87848327  1
  O  O333  1  0.49512850  0.98421963  0.36737996  1
  O  O334  1  0.49835559  0.99364099  0.88165487  1
  O  O335  1  0.99868835  0.48573112  0.37382986  1
  O  O336  1  1.01352977  0.47992202  0.89102162  1
  O  O337  1  0.99401115  0.99248204  0.37904688  1
  O  O338  1  0.99207321  0.99672952  0.88461745  1
  O  O339  1  0.00545715  0.00266069  0.11964812  1
  O  O340  1  -0.00114650  0.01219542  0.61850926  1
  O  O341  1  0.00892146  0.50153234  0.12557023  1
  O  O342  1  0.01346190  0.49068135  0.62409867  1
  O  O343  1  0.50477444  0.00482105  0.11790742  1
  O  O344  1  0.51416731  -0.00164460  0.63329141  1
  O  O345  1  0.49490566  0.50808514  0.11887156  1
  O  O346  1  0.50478681  0.50013895  0.61100760  1
  O  O347  1  0.25700281  0.39159332  0.25504533  1
  O  O348  1  0.24423748  0.37969795  0.73905973  1
  O  O349  1  0.24481054  0.88069168  0.24470921  1
  O  O350  1  0.24506949  0.87972198  0.74323154  1
  O  O351  1  0.74795525  0.38388530  0.24683378  1
  O  O352  1  0.74704822  0.37747348  0.75540990  1
  O  O353  1  0.74645963  0.87797027  0.24448600  1
  O  O354  1  0.73800904  0.87675389  0.75901937  1
  O  O355  1  0.26429220  0.11411567  0.24093178  1
  O  O356  1  0.25620697  0.11949015  0.75629744  1
  O  O357  1  0.24466726  0.61630063  0.26941315  1
  O  O358  1  0.25808177  0.61691719  0.74513984  1
  O  O359  1  0.76405760  0.11317151  0.24240064  1
  O  O360  1  0.75631352  0.11209962  0.75719315  1
  O  O361  1  0.75091140  0.63617253  0.26308132  1
  O  O362  1  0.74419010  0.64805752  0.76092563  1
  O  O363  1  0.38752491  0.12667392  0.36188626  1
  O  O364  1  0.37260155  0.11933556  0.87211581  1
  O  O365  1  0.36444149  0.62021924  0.38108295  1
  O  O366  1  0.37581287  0.61306501  0.86730683  1
  O  O367  1  0.88424810  0.11381811  0.36585189  1
  O  O368  1  0.86990469  0.11775850  0.86982463  1
  O  O369  1  0.86123014  0.62713671  0.38574893  1
  O  O370  1  0.89193467  0.60601146  0.88252375  1
  O  O371  1  0.12409329  0.38578039  0.12124544  1
  O  O372  1  0.13138610  0.37837814  0.62480326  1
  O  O373  1  0.13209528  0.87903269  0.13169438  1
  O  O374  1  0.13293288  0.87803371  0.63370001  1
  O  O375  1  0.61886477  0.35831446  0.12527290  1
  O  O376  1  0.62559316  0.38848388  0.61599964  1
  O  O377  1  0.63628915  0.87932340  0.12995352  1
  O  O378  1  0.62229474  0.88464702  0.63383684  1
  O  O379  1  0.11257481  0.22459005  0.25092179  1
  O  O380  1  0.12366262  0.25558018  0.75573851  1
  O  O381  1  0.11492125  0.75852208  0.25936683  1
  O  O382  1  0.11874315  0.75857771  0.74940437  1
  O  O383  1  0.61634795  0.24517914  0.24132592  1
  O  O384  1  0.61286191  0.24384725  0.75315613  1
  O  O385  1  0.61787775  0.75738725  0.25597022  1
  O  O386  1  0.61571854  0.75530822  0.74557660  1
  O  O387  1  0.37148474  0.24358105  0.23734698  1
  O  O388  1  0.38216372  0.24576197  0.74129112  1
  O  O389  1  0.38491143  0.75507980  0.25423785  1
  O  O390  1  0.37835091  0.74360701  0.74352179  1
  O  O391  1  0.87855553  0.24072586  0.23920282  1
  O  O392  1  0.87786769  0.24349035  0.73764094  1
  O  O393  1  0.89123054  0.75848937  0.25325576  1
  O  O394  1  0.89109975  0.75505936  0.74843551  1
  O  O395  1  0.38510835  0.49999936  0.48975558  1
  O  O396  1  0.37407418  0.49426821  0.99265589  1
  O  O397  1  0.37402930  0.98922175  0.50213681  1
  O  O398  1  0.38724373  0.99009762  0.99716334  1
  O  O399  1  0.87091754  0.48653581  0.49870387  1
  O  O400  1  0.89084963  0.48745680  1.01188120  1
  O  O401  1  0.87736206  0.99988137  0.49283608  1
  O  O402  1  0.88034383  0.98502119  0.99920847  1
  O  O403  1  0.12079214  0.00176795  0.00382649  1
  O  O404  1  0.11861856  0.01085198  0.50402331  1
  O  O405  1  0.11985624  0.50424538  0.01205515  1
  O  O406  1  0.13665864  0.50847840  0.51000243  1
  O  O407  1  0.61294008  -0.00891950  0.00392253  1
  O  O408  1  0.62788036  0.00317590  0.51390304  1
  O  O409  1  0.60692560  0.48146056  -0.00034033  1
  O  O410  1  0.62202953  0.50628699  0.50452604  1
  O  O411  1  0.38006409  0.36500663  0.11475274  1
  O  O412  1  0.36798068  0.36738901  0.62436175  1
  O  O413  1  0.36671715  0.87933464  0.11717694  1
  O  O414  1  0.36952250  0.86884615  0.62183146  1
  O  O415  1  0.87815209  0.36126177  0.12003506  1
  O  O416  1  0.88014482  0.35827522  0.61187108  1
  O  O417  1  0.86441461  0.87218003  0.12172766  1
  O  O418  1  0.87596481  0.87774568  0.61244305  1
  O  O419  1  0.12037621  0.12485545  0.39120724  1
  O  O420  1  0.12977899  0.12849888  0.88009847  1
  O  O421  1  0.13799577  0.62639509  0.38645515  1
  O  O422  1  0.12171056  0.61699178  0.89807772  1
  O  O423  1  0.61821675  0.11873182  0.38650471  1
  O  O424  1  0.63299625  0.13049154  0.87264769  1
  O  O425  1  0.63171651  0.63295900  0.38042696  1
  O  O426  1  0.60856976  0.61866007  0.88594265  1
