# generated using pymatgen
data_V85Zn86O256
_symmetry_space_group_name_H-M   'P 1'
_cell_length_a   16.93513498
_cell_length_b   16.92804362
_cell_length_c   16.93783748
_cell_angle_alpha   90.00675923
_cell_angle_beta   89.92520214
_cell_angle_gamma   89.93538514
_symmetry_Int_Tables_number   1
_chemical_formula_structural   V85Zn86O256
_chemical_formula_sum   'V85 Zn86 O256'
_cell_volume   4855.71003124
_cell_formula_units_Z   1
loop_
 _symmetry_equiv_pos_site_id
 _symmetry_equiv_pos_as_xyz
  1  'x, y, z'
loop_
 _atom_site_type_symbol
 _atom_site_label
 _atom_site_symmetry_multiplicity
 _atom_site_fract_x
 _atom_site_fract_y
 _atom_site_fract_z
 _atom_site_occupancy
  V  V0  1  0.11971374  -0.00441289  0.12264348  1
  V  V1  1  0.86892612  0.62759314  0.26175901  1
  V  V2  1  0.50069934  0.49779116  0.51124778  1
  V  V3  1  -0.00197996  0.38347557  0.87462195  1
  V  V4  1  0.63169405  0.24566219  0.37430898  1
  V  V5  1  0.49832805  0.24725860  0.25120115  1
  V  V6  1  0.63110571  -0.00471661  0.63314956  1
  V  V7  1  0.38013437  0.86942774  0.49878881  1
  V  V8  1  0.25270692  0.87527319  0.62559829  1
  V  V9  1  0.63153064  0.75230015  0.87377087  1
  V  V10  1  -0.00450729  0.12300663  0.62052028  1
  V  V11  1  0.25435018  0.12771282  0.87463864  1
  V  V12  1  0.24592926  0.00026044  0.24928494  1
  V  V13  1  0.38003974  0.00416871  0.87493876  1
  V  V14  1  0.24559931  0.12713607  0.37528354  1
  V  V15  1  0.50063466  0.24266662  0.74945655  1
  V  V16  1  0.12400548  0.62281959  0.00338935  1
  V  V17  1  0.37766932  0.87893402  -0.00253007  1
  V  V18  1  0.51687990  0.62069386  0.62753967  1
  V  V19  1  0.63132552  0.24586928  0.87029437  1
  V  V20  1  0.12012614  0.50178564  0.14109678  1
  V  V21  1  -0.00174735  0.12428334  0.12501606  1
  V  V22  1  0.00041148  -0.01275697  0.49314404  1
  V  V23  1  0.12594378  0.26630604  0.37197035  1
  V  V24  1  0.74349241  0.49957450  0.75711554  1
  V  V25  1  0.36693179  0.24907486  0.11570198  1
  V  V26  1  0.25075436  0.49848714  0.74809504  1
  V  V27  1  0.74327360  0.37090437  0.12074585  1
  V  V28  1  0.76170371  -0.00375592  0.75937013  1
  V  V29  1  0.50562164  -0.00644326  0.49666357  1
  V  V30  1  -0.05854167  0.04523784  -0.06133734  1
  V  V31  1  0.38283248  0.62028659  0.24360908  1
  V  V32  1  0.88104508  0.87386467  0.00780325  1
  V  V33  1  0.49776682  0.12205630  0.62476848  1
  V  V34  1  0.87444002  0.26079987  0.62382191  1
  V  V35  1  0.75511185  0.26068432  0.49780926  1
  V  V36  1  0.63699904  0.12276657  0.49796175  1
  V  V37  1  0.75336450  0.87926523  0.13148695  1
  V  V38  1  0.75027490  0.75230253  0.01134711  1
  V  V39  1  0.12338337  0.86633712  0.26482404  1
  V  V40  1  0.50593668  0.87909531  0.87403400  1
  V  V41  1  0.87342921  0.24996727  0.12778528  1
  V  V42  1  0.37798162  -0.00347561  0.37532812  1
  V  V43  1  -0.00571478  0.87502923  0.87453327  1
  V  V44  1  0.25865080  0.63451971  0.37638163  1
  V  V45  1  0.37581969  0.49834336  0.87596436  1
  V  V46  1  0.38006495  0.74336435  0.11809260  1
  V  V47  1  0.87120805  0.38367940  -0.00347679  1
  V  V48  1  0.13049587  0.37429461  0.74694477  1
  V  V49  1  0.61395909  0.51097211  0.12200882  1
  V  V50  1  0.74926926  0.24250909  -0.00445949  1
  V  V51  1  0.50814972  0.75679057  0.74815655  1
  V  V52  1  0.37265835  0.37181917  0.50692163  1
  V  V53  1  0.62242298  0.37198192  0.24870971  1
  V  V54  1  0.37694302  0.49626262  0.37452692  1
  V  V55  1  0.00266328  0.62793620  0.63117328  1
  V  V56  1  0.00281775  0.25976010  0.25089270  1
  V  V57  1  0.13173835  0.49822190  0.62530979  1
  V  V58  1  0.74927455  0.86717638  0.61584576  1
  V  V59  1  0.25522398  0.00356452  0.74950972  1
  V  V60  1  0.12929234  0.63302840  0.49728853  1
  V  V61  1  0.87813026  0.75148763  0.61491859  1
  V  V62  1  0.37838983  0.62782969  0.74849230  1
  V  V63  1  0.12031018  0.87326232  0.74874329  1
  V  V64  1  0.62199427  -0.00133518  0.12688981  1
  V  V65  1  0.24902589  0.62593040  0.87334814  1
  V  V66  1  0.87707311  0.62654558  0.76059209  1
  V  V67  1  0.87157208  0.12903981  0.26598091  1
  V  V68  1  0.00100681  0.49478904  0.49644454  1
  V  V69  1  0.13136804  0.25289533  0.88003367  1
  V  V70  1  0.11981874  0.74998132  0.87076111  1
  V  V71  1  0.37293885  0.12551484  0.24902618  1
  V  V72  1  0.50088402  0.37286414  0.87734928  1
  V  V73  1  0.37099289  0.24612992  0.63075848  1
  V  V74  1  0.24086992  0.37300286  0.12574036  1
  V  V75  1  0.24994508  0.75134869  -0.00153433  1
  V  V76  1  -0.00015045  0.24977394  0.74729999  1
  V  V77  1  0.62398930  0.11708631  -0.00612514  1
  V  V78  1  0.75325545  0.49807989  0.24536827  1
  V  V79  1  0.87259050  -0.01843802  0.37860779  1
  V  V80  1  0.24845754  0.25320991  0.50415029  1
  V  V81  1  0.49527100  0.76391899  0.25536968  1
  V  V82  1  0.12589714  0.12284016  -0.00198422  1
  V  V83  1  -0.01328335  0.63279333  0.12393801  1
  V  V84  1  0.49711438  0.12082342  0.11859617  1
  Zn  Zn85  1  0.49999831  0.37049784  0.37897395  1
  Zn  Zn86  1  -0.01566735  0.38444529  0.37250258  1
  Zn  Zn87  1  0.24866329  0.75629690  0.49648532  1
  Zn  Zn88  1  0.24491467  0.49776679  0.25465705  1
  Zn  Zn89  1  0.12182574  0.12602927  0.49954993  1
  Zn  Zn90  1  -0.00628977  0.50403453  -0.00231867  1
  Zn  Zn91  1  0.36702274  0.37064009  -0.00244492  1
  Zn  Zn92  1  0.62170892  0.38132760  0.74481159  1
  Zn  Zn93  1  -0.00446105  0.75730792  0.26194794  1
  Zn  Zn94  1  0.61795624  0.63377199  0.00515088  1
  Zn  Zn95  1  0.38029487  0.74954924  0.62302434  1
  Zn  Zn96  1  0.65683803  0.61940190  0.48653784  1
  Zn  Zn97  1  0.74350420  0.38298269  0.62456564  1
  Zn  Zn98  1  0.75524219  0.62105180  0.88421915  1
  Zn  Zn99  1  0.64597621  0.75411812  0.39354444  1
  Zn  Zn100  1  0.74454038  0.00638431  0.25966007  1
  Zn  Zn101  1  0.61513279  0.88072547  0.26575346  1
  Zn  Zn102  1  0.83602668  0.50380807  0.40907090  1
  Zn  Zn103  1  0.24756338  0.87346478  0.12418255  1
  Zn  Zn104  1  0.87204051  0.12358973  0.76057380  1
  Zn  Zn105  1  0.12392113  0.00095426  0.62187965  1
  Zn  Zn106  1  0.49561885  0.50684097  0.00250782  1
  Zn  Zn107  1  0.18432227  0.18908227  0.18715745  1
  Zn  Zn108  1  0.18485325  0.18454591  0.68787621  1
  Zn  Zn109  1  0.19341062  0.68547572  0.18768375  1
  Zn  Zn110  1  0.19039155  0.69068084  0.68584425  1
  Zn  Zn111  1  0.68786684  0.18389613  0.18678816  1
  Zn  Zn112  1  0.69208290  0.18270308  0.68588344  1
  Zn  Zn113  1  0.69850851  0.70463256  0.21851922  1
  Zn  Zn114  1  0.69227664  0.68763263  0.69023956  1
  Zn  Zn115  1  0.31088965  0.31544023  0.30866068  1
  Zn  Zn116  1  0.31286170  0.31161721  0.80991093  1
  Zn  Zn117  1  0.31522422  0.81480529  0.30827299  1
  Zn  Zn118  1  0.31393979  0.81352543  0.81144105  1
  Zn  Zn119  1  0.81308018  0.32234284  0.31841500  1
  Zn  Zn120  1  0.81342103  0.31292377  0.81037874  1
  Zn  Zn121  1  0.80842609  0.80986781  0.31310387  1
  Zn  Zn122  1  0.81328095  0.81231880  0.80686855  1
  Zn  Zn123  1  0.19028832  0.44221201  0.43937849  1
  Zn  Zn124  1  0.18871078  0.43866683  0.94226323  1
  Zn  Zn125  1  0.18836548  0.93972111  0.43925672  1
  Zn  Zn126  1  0.18694105  0.93907229  0.93634910  1
  Zn  Zn127  1  0.68684824  0.44432999  0.44231509  1
  Zn  Zn128  1  0.68678414  0.43869778  0.93369195  1
  Zn  Zn129  1  0.69181882  0.93308586  0.43886499  1
  Zn  Zn130  1  0.68998346  0.93489629  0.93988018  1
  Zn  Zn131  1  0.30754734  0.06183233  0.05803315  1
  Zn  Zn132  1  0.31421760  0.06256381  0.56009029  1
  Zn  Zn133  1  0.30837309  0.55890152  0.06262831  1
  Zn  Zn134  1  0.31676177  0.56394860  0.56268978  1
  Zn  Zn135  1  0.80813347  0.06499412  0.07032377  1
  Zn  Zn136  1  0.81648450  0.06045437  0.56308331  1
  Zn  Zn137  1  0.80244693  0.56262538  0.06597300  1
  Zn  Zn138  1  0.81445487  0.56169926  0.57479436  1
  Zn  Zn139  1  0.43499965  0.43142831  0.18680123  1
  Zn  Zn140  1  0.43758405  0.43174327  0.68954928  1
  Zn  Zn141  1  0.43151228  0.93995547  0.18062665  1
  Zn  Zn142  1  0.43853214  0.93841845  0.68849411  1
  Zn  Zn143  1  0.93696726  0.43973270  0.18256544  1
  Zn  Zn144  1  0.93791390  0.44503048  0.69045344  1
  Zn  Zn145  1  0.94054679  0.93888054  0.19380266  1
  Zn  Zn146  1  0.93566430  0.93569614  0.68491824  1
  Zn  Zn147  1  0.05975219  0.06433145  0.31230531  1
  Zn  Zn148  1  0.06893268  0.06521300  0.80270541  1
  Zn  Zn149  1  0.05178879  0.59576218  0.32578897  1
  Zn  Zn150  1  0.06090133  0.56311239  0.81159238  1
  Zn  Zn151  1  0.56152938  0.06442572  0.31350911  1
  Zn  Zn152  1  0.56571957  0.06196227  0.80956435  1
  Zn  Zn153  1  0.56386878  0.56168430  0.30922242  1
  Zn  Zn154  1  0.56408502  0.56798559  0.82018568  1
  Zn  Zn155  1  0.43935391  0.18324705  0.43924065  1
  Zn  Zn156  1  0.43957993  0.18448301  0.93646056  1
  Zn  Zn157  1  0.48005717  0.66721555  0.42126416  1
  Zn  Zn158  1  0.44218659  0.68799948  0.93596603  1
  Zn  Zn159  1  0.94103589  0.19318775  0.44072355  1
  Zn  Zn160  1  0.94214824  0.20989650  0.93819896  1
  Zn  Zn161  1  0.93920125  0.68445057  0.43776627  1
  Zn  Zn162  1  0.93718574  0.69580128  0.94188250  1
  Zn  Zn163  1  0.06256551  0.31466040  0.06285909  1
  Zn  Zn164  1  0.06511332  0.31357903  0.56333814  1
  Zn  Zn165  1  0.06053855  0.81061714  0.06418285  1
  Zn  Zn166  1  0.06171592  0.81113854  0.56497304  1
  Zn  Zn167  1  0.55865920  0.30902811  0.05969119  1
  Zn  Zn168  1  0.56517836  0.31289730  0.56414184  1
  Zn  Zn169  1  0.56124404  0.81513579  0.06278242  1
  Zn  Zn170  1  0.57106968  0.80577681  0.55801682  1
  O  O171  1  0.11864198  0.12166418  0.11544487  1
  O  O172  1  0.11119013  0.12235698  0.62401808  1
  O  O173  1  0.11877942  0.62079179  0.11897059  1
  O  O174  1  0.12090100  0.62021154  0.62401497  1
  O  O175  1  0.61711713  0.11716256  0.11886670  1
  O  O176  1  0.61645221  0.11827662  0.61709159  1
  O  O177  1  0.62419876  0.61002750  0.12778318  1
  O  O178  1  0.61798466  0.62152982  0.62806652  1
  O  O179  1  0.37485965  0.37765601  0.38560338  1
  O  O180  1  0.37964171  0.38099367  0.87523035  1
  O  O181  1  0.36723950  0.89013688  0.38225823  1
  O  O182  1  0.38300886  0.88230450  0.87819342  1
  O  O183  1  0.87113341  0.39811678  0.37460345  1
  O  O184  1  0.88712616  0.36364469  0.88423572  1
  O  O185  1  0.87797319  0.88259819  0.36816402  1
  O  O186  1  0.88983403  0.87079374  0.87970540  1
  O  O187  1  0.25539975  0.01018427  0.37161347  1
  O  O188  1  0.25658916  0.00657929  0.86742966  1
  O  O189  1  0.26443097  0.50500354  0.37530062  1
  O  O190  1  0.25580839  0.50614083  0.86930839  1
  O  O191  1  0.76824117  -0.00112810  0.37734241  1
  O  O192  1  0.74559094  -0.00887157  0.85781870  1
  O  O193  1  0.73106405  0.49388167  0.34563016  1
  O  O194  1  0.75385808  0.50362303  0.86692571  1
  O  O195  1  0.23664062  0.49540118  0.12875023  1
  O  O196  1  0.24008715  0.50576606  0.63184590  1
  O  O197  1  0.23707199  1.00255517  0.13050421  1
  O  O198  1  0.25098828  0.99317509  0.63108750  1
  O  O199  1  0.73418549  0.48879512  0.12674793  1
  O  O200  1  0.75902381  0.49746391  0.65160518  1
  O  O201  1  0.73903423  0.99666039  0.13033066  1
  O  O202  1  0.74738659  0.99064007  0.62835121  1
  O  O203  1  -0.00649808  0.36369838  0.24899444  1
  O  O204  1  0.00960147  0.37290082  0.75680254  1
  O  O205  1  0.01713662  0.87211121  0.24893550  1
  O  O206  1  0.01272562  0.88240751  0.75680856  1
  O  O207  1  0.50411044  0.36222424  0.25161449  1
  O  O208  1  0.49898492  0.36123204  0.76020004  1
  O  O209  1  0.49216080  0.86843942  0.24490386  1
  O  O210  1  0.49621421  0.86512557  0.75751216  1
  O  O211  1  0.49211264  0.12970976  0.24203714  1
  O  O212  1  0.50223103  0.13438665  0.74152846  1
  O  O213  1  0.48575683  0.63596488  0.24863196  1
  O  O214  1  0.49588536  0.63224484  0.74638881  1
  O  O215  1  0.98992645  0.13610904  0.24701202  1
  O  O216  1  0.99854894  0.13164381  0.74117059  1
  O  O217  1  0.97869236  0.61027529  0.23317442  1
  O  O218  1  0.99307251  0.62195882  0.74050438  1
  O  O219  1  0.37711365  0.24669219  0.01243230  1
  O  O220  1  0.36970192  0.25279196  0.50803555  1
  O  O221  1  0.36910649  0.75606244  -0.00017957  1
  O  O222  1  0.38006585  0.76649105  0.50008508  1
  O  O223  1  0.86498797  0.25672368  0.00737484  1
  O  O224  1  0.86599737  0.24777798  0.50883271  1
  O  O225  1  0.86608334  0.76516792  0.00144364  1
  O  O226  1  0.87268072  0.73484216  0.51543138  1
  O  O227  1  0.13299186  0.24882544  0.49238054  1
  O  O228  1  0.11626719  0.23652943  0.99151675  1
  O  O229  1  0.12982030  0.73761245  0.50776667  1
  O  O230  1  0.12940452  0.74092231  0.99432637  1
  O  O231  1  0.63096012  0.24167655  0.49241472  1
  O  O232  1  0.63085807  0.24108927  0.99177019  1
  O  O233  1  0.63299412  0.73140218  0.50470698  1
  O  O234  1  0.63359250  0.75558547  0.99418784  1
  O  O235  1  0.49271770  0.23843847  0.13024669  1
  O  O236  1  0.49379897  0.24069700  0.63025829  1
  O  O237  1  0.48283910  0.75634547  0.12519860  1
  O  O238  1  0.50091438  0.74175345  0.63421966  1
  O  O239  1  0.99493531  0.24548394  0.13192543  1
  O  O240  1  0.99497524  0.24468906  0.62744805  1
  O  O241  1  1.00604859  0.73412884  0.13391882  1
  O  O242  1  0.98932500  0.74239069  0.62386686  1
  O  O243  1  0.00840605  0.25872836  0.37010399  1
  O  O244  1  0.01476550  0.26125189  0.86684567  1
  O  O245  1  0.01454313  0.70305276  0.35989773  1
  O  O246  1  0.01278228  0.75899322  0.87818044  1
  O  O247  1  0.50579141  0.24660669  0.36769744  1
  O  O248  1  0.50554416  0.25237153  0.86711940  1
  O  O249  1  0.48278911  0.76046563  0.35522332  1
  O  O250  1  0.50795331  0.75955270  0.86682188  1
  O  O251  1  0.24901537  0.13438368  0.49211888  1
  O  O252  1  0.24055772  0.12328196  0.98445570  1
  O  O253  1  0.24969330  0.63030907  0.49583517  1
  O  O254  1  0.24236021  0.63006191  0.99258624  1
  O  O255  1  0.73949492  0.13112893  0.50728327  1
  O  O256  1  0.74221487  0.13607863  1.00423372  1
  O  O257  1  0.74960257  0.55145415  0.48433688  1
  O  O258  1  0.74495703  0.63822759  1.00186358  1
  O  O259  1  0.25059839  0.37833490  0.01637870  1
  O  O260  1  0.25595008  0.36093055  0.49830897  1
  O  O261  1  0.25935689  0.86877238  -0.00473210  1
  O  O262  1  0.25880287  0.87755704  0.50856959  1
  O  O263  1  0.75275822  0.36368898  0.00088444  1
  O  O264  1  0.74557514  0.36382007  0.50304132  1
  O  O265  1  0.75876786  0.87364119  0.01147876  1
  O  O266  1  0.75947147  0.88001034  0.51765004  1
  O  O267  1  0.12093823  0.51395235  0.24169057  1
  O  O268  1  0.13006183  0.49390570  0.74547262  1
  O  O269  1  0.12779391  0.99341551  0.24405544  1
  O  O270  1  0.13867549  0.99126080  0.74706544  1
  O  O271  1  0.62294318  0.49261361  0.23643772  1
  O  O272  1  0.63820167  0.50244246  0.75959992  1
  O  O273  1  0.62501513  0.99983615  0.24279548  1
  O  O274  1  0.63263332  1.00195070  0.73637998  1
  O  O275  1  0.36798416  0.00570378  0.25650172  1
  O  O276  1  0.36346655  -0.00445622  0.75906339  1
  O  O277  1  0.37671172  0.50456655  0.25662611  1
  O  O278  1  0.37139709  0.50411186  0.75923904  1
  O  O279  1  0.87997244  0.01112012  0.26649702  1
  O  O280  1  0.86741940  0.00235557  0.75057806  1
  O  O281  1  0.86268402  0.50664556  0.23730482  1
  O  O282  1  0.87275424  0.51844923  0.75198976  1
  O  O283  1  0.12906693  0.36762740  0.37458368  1
  O  O284  1  0.12170329  0.36935764  0.87248448  1
  O  O285  1  0.13110490  0.87488119  0.36358759  1
  O  O286  1  0.11837402  0.86917219  0.87017661  1
  O  O287  1  0.62161895  0.36142512  0.36877630  1
  O  O288  1  0.61642092  0.36404048  0.87157050  1
  O  O289  1  0.62812775  0.86764786  0.37738610  1
  O  O290  1  0.61259062  0.86995329  0.88163801  1
  O  O291  1  0.37859821  0.12763954  0.12632029  1
  O  O292  1  0.38920090  0.12995551  0.61822754  1
  O  O293  1  0.36768067  0.63111574  0.13076606  1
  O  O294  1  0.37633241  0.62705482  0.64068282  1
  O  O295  1  0.88173913  0.13124137  0.13221483  1
  O  O296  1  0.88618316  0.13291214  0.62495660  1
  O  O297  1  0.88662902  0.62545399  0.11496984  1
  O  O298  1  0.88387738  0.63187901  0.63432970  1
  O  O299  1  0.25559491  0.25667763  0.12873288  1
  O  O300  1  0.25887519  0.23926338  0.61695926  1
  O  O301  1  0.25950423  0.75097465  0.11490177  1
  O  O302  1  0.25741942  0.76451232  0.62482600  1
  O  O303  1  0.75211122  0.25305215  0.11614775  1
  O  O304  1  0.75983070  0.25009476  0.61787851  1
  O  O305  1  0.74135656  0.76323290  0.11873569  1
  O  O306  1  0.75924183  0.76023438  0.62955943  1
  O  O307  1  0.24544513  0.24491463  0.37959462  1
  O  O308  1  0.23921572  0.24446656  0.87015994  1
  O  O309  1  0.26152174  0.73844304  0.37697372  1
  O  O310  1  0.24097128  0.74558943  0.87840867  1
  O  O311  1  0.74230828  0.25160151  0.38263225  1
  O  O312  1  0.73999280  0.25072898  0.87997852  1
  O  O313  1  0.73455686  0.73005916  0.32692130  1
  O  O314  1  0.74386601  0.75821211  0.88630850  1
  O  O315  1  0.00128284  0.11879176  0.00017117  1
  O  O316  1  0.00194367  0.11888431  0.50609622  1
  O  O317  1  0.00555622  0.62742011  0.00843871  1
  O  O318  1  0.01306738  0.61686001  0.51367398  1
  O  O319  1  0.51072381  0.12872413  0.00806319  1
  O  O320  1  0.50878934  0.11397756  0.50679631  1
  O  O321  1  0.50535735  0.62013522  -0.00533572  1
  O  O322  1  0.48117902  0.61092919  0.52012589  1
  O  O323  1  0.48847715  0.37698711  0.50097675  1
  O  O324  1  0.49430142  0.37263242  0.98596593  1
  O  O325  1  0.49624435  0.88715897  0.50871524  1
  O  O326  1  0.48614729  0.87186820  0.98928965  1
  O  O327  1  1.01122761  0.39134800  0.49825173  1
  O  O328  1  0.98946675  0.37453522  0.99258794  1
  O  O329  1  1.00396701  0.88819592  0.50173381  1
  O  O330  1  0.99184613  0.87420976  0.99388175  1
  O  O331  1  0.48703778  0.49432131  0.38231978  1
  O  O332  1  0.49252996  0.48980754  0.87273181  1
  O  O333  1  0.49023865  1.00687063  0.38477403  1
  O  O334  1  0.49140544  0.99280839  0.86544992  1
  O  O335  1  1.01157425  0.50427793  0.39289399  1
  O  O336  1  1.00488251  0.48788957  0.87900180  1
  O  O337  1  0.99168835  1.00408333  0.38610238  1
  O  O338  1  1.00900576  0.99333241  0.87573069  1
  O  O339  1  0.01214784  0.00824136  0.13110200  1
  O  O340  1  -0.00293441  0.00547152  0.61195224  1
  O  O341  1  0.00666943  0.50886232  0.11681723  1
  O  O342  1  0.01441205  0.50664874  0.62212015  1
  O  O343  1  0.50394139  0.01257221  0.12663667  1
  O  O344  1  0.50855288  0.00481934  0.62135875  1
  O  O345  1  0.51044410  0.49110895  0.12190908  1
  O  O346  1  0.49236931  0.50710718  0.62342547  1
  O  O347  1  0.25341518  0.38071988  0.23428566  1
  O  O348  1  0.23817763  0.38116275  0.75521662  1
  O  O349  1  0.24142888  0.88329837  0.24671242  1
  O  O350  1  0.24439529  0.88157493  0.74453769  1
  O  O351  1  0.74225775  0.37675562  0.23725275  1
  O  O352  1  0.74915982  0.38867760  0.75628998  1
  O  O353  1  0.74929791  0.88287596  0.23795203  1
  O  O354  1  0.75808355  0.88745813  0.73595205  1
  O  O355  1  0.25381690  0.12110335  0.25633709  1
  O  O356  1  0.24410494  0.11661706  0.76233658  1
  O  O357  1  0.26266482  0.62213669  0.25902062  1
  O  O358  1  0.25759922  0.62150602  0.75571045  1
  O  O359  1  0.76755321  0.12383231  0.24501196  1
  O  O360  1  0.75449810  0.10502423  0.74368526  1
  O  O361  1  0.76719183  0.61184613  0.22546187  1
  O  O362  1  0.76052507  0.61848540  0.75734095  1
  O  O363  1  0.36460404  0.11804522  0.37216584  1
  O  O364  1  0.36777177  0.11713906  0.87756362  1
  O  O365  1  0.37565564  0.61434269  0.36857369  1
  O  O366  1  0.37171964  0.61866076  0.86457991  1
  O  O367  1  0.87857246  0.12747644  0.36652036  1
  O  O368  1  0.89222603  0.11899953  0.88237983  1
  O  O369  1  0.87024700  0.61153907  0.36273331  1
  O  O370  1  0.87821763  0.63458753  0.86462696  1
  O  O371  1  0.12759471  0.38750982  0.12223996  1
  O  O372  1  0.12331096  0.38344959  0.63629915  1
  O  O373  1  0.12753419  0.88444949  0.12356690  1
  O  O374  1  0.13280031  0.87675746  0.63287254  1
  O  O375  1  0.62742299  0.37095853  0.13021642  1
  O  O376  1  0.62947645  0.36858494  0.63319653  1
  O  O377  1  0.62885301  0.89046834  0.12168491  1
  O  O378  1  0.64015360  0.88050650  0.62136909  1
  O  O379  1  0.11428351  0.24524374  0.25965336  1
  O  O380  1  0.12142098  0.25802228  0.75567415  1
  O  O381  1  0.13229813  0.76578248  0.24471424  1
  O  O382  1  0.13132955  0.76044280  0.75910464  1
  O  O383  1  0.61963894  0.24854778  0.25627370  1
  O  O384  1  0.61899225  0.24423917  0.75784692  1
  O  O385  1  0.59755062  0.75873304  0.23388201  1
  O  O386  1  0.61877468  0.74927061  0.75854110  1
  O  O387  1  0.37901100  0.24326681  0.24125266  1
  O  O388  1  0.38111405  0.25106078  0.73771224  1
  O  O389  1  0.37818376  0.74535054  0.23680065  1
  O  O390  1  0.38573087  0.74258369  0.75188899  1
  O  O391  1  0.87882958  0.24365723  0.24858484  1
  O  O392  1  0.88152037  0.24417099  0.74435612  1
  O  O393  1  0.87872022  0.73104952  0.25114492  1
  O  O394  1  0.87022696  0.73383632  0.73932960  1
  O  O395  1  0.37649005  0.48766062  0.49627652  1
  O  O396  1  0.37326927  0.49885749  0.98574338  1
  O  O397  1  0.38429803  0.99421993  0.49353203  1
  O  O398  1  0.36910447  0.99261455  0.98602377  1
  O  O399  1  0.90035701  0.50505783  0.51246588  1
  O  O400  1  0.87021326  0.48677489  1.00432206  1
  O  O401  1  0.88602725  1.00261435  0.48642847  1
  O  O402  1  0.87207616  0.99438618  0.99999894  1
  O  O403  1  0.12829030  0.01208031  0.00643508  1
  O  O404  1  0.11322331  0.00362777  0.49987033  1
  O  O405  1  0.12338991  0.51518071  0.00276900  1
  O  O406  1  0.12526499  0.50870601  0.51073216  1
  O  O407  1  0.63116137  0.01155147  0.00623528  1
  O  O408  1  0.62165415  0.00559717  0.50716425  1
  O  O409  1  0.62333407  0.49709950  0.01320802  1
  O  O410  1  0.60089989  0.49717925  0.49731397  1
  O  O411  1  0.36747239  0.36441264  0.12086951  1
  O  O412  1  0.37597642  0.36267380  0.61576873  1
  O  O413  1  0.36861608  0.87099584  0.11177352  1
  O  O414  1  0.36939487  0.87696581  0.61735182  1
  O  O415  1  0.86608335  0.36765390  0.11634267  1
  O  O416  1  0.87575365  0.36342338  0.63355145  1
  O  O417  1  0.86805774  0.88532626  0.11952906  1
  O  O418  1  0.87219019  0.85764946  0.62762799  1
  O  O419  1  0.13601511  0.13199906  0.37433903  1
  O  O420  1  0.12968713  0.13266154  0.87966947  1
  O  O421  1  0.14786208  0.61295201  0.38959552  1
  O  O422  1  0.12657235  0.63265681  0.88020666  1
  O  O423  1  0.62258627  0.13452192  0.38372969  1
  O  O424  1  0.61911467  0.13243831  0.88343301  1
  O  O425  1  0.59120401  0.63602261  0.38727056  1
  O  O426  1  0.63085467  0.64221740  0.87844659  1
