# generated using pymatgen
data_V85Zn86O256
_symmetry_space_group_name_H-M   'P 1'
_cell_length_a   16.91737117
_cell_length_b   16.91551054
_cell_length_c   16.91854701
_cell_angle_alpha   89.93987899
_cell_angle_beta   89.98667101
_cell_angle_gamma   89.94724848
_symmetry_Int_Tables_number   1
_chemical_formula_structural   V85Zn86O256
_chemical_formula_sum   'V85 Zn86 O256'
_cell_volume   4841.50757573
_cell_formula_units_Z   1
loop_
 _symmetry_equiv_pos_site_id
 _symmetry_equiv_pos_as_xyz
  1  'x, y, z'
loop_
 _atom_site_type_symbol
 _atom_site_label
 _atom_site_symmetry_multiplicity
 _atom_site_fract_x
 _atom_site_fract_y
 _atom_site_fract_z
 _atom_site_occupancy
  V  V0  1  0.63016089  0.48750845  0.62383211  1
  V  V1  1  0.00488380  0.00554704  0.49655754  1
  V  V2  1  0.87006849  0.25687745  0.62838928  1
  V  V3  1  0.12656117  0.00399918  0.62254937  1
  V  V4  1  0.37293870  0.88318281  -0.01490663  1
  V  V5  1  0.51042831  0.62621669  0.11722708  1
  V  V6  1  0.38544019  0.62807519  0.24877710  1
  V  V7  1  0.50972884  -0.00584820  -0.00566348  1
  V  V8  1  0.25469848  0.49397013  0.74575935  1
  V  V9  1  -0.00014202  0.87576371  0.37384759  1
  V  V10  1  0.86429897  0.62780212  0.25422691  1
  V  V11  1  0.74367794  0.48649869  0.24457327  1
  V  V12  1  0.24886671  0.12609176  0.38051109  1
  V  V13  1  0.75312936  0.00263437  0.24116727  1
  V  V14  1  0.61736569  0.76381312  0.86974745  1
  V  V15  1  0.73902287  0.12496928  0.87650685  1
  V  V16  1  0.12475529  0.75097666  0.87509513  1
  V  V17  1  -0.00544052  0.88147042  0.87107225  1
  V  V18  1  0.62206626  0.13195791  0.00518163  1
  V  V19  1  0.86830565  0.50212025  0.37572930  1
  V  V20  1  -0.00055841  0.37682289  0.87655851  1
  V  V21  1  0.50642110  0.36688923  0.88526137  1
  V  V22  1  0.12965384  0.37372539  0.74688140  1
  V  V23  1  0.00231796  0.12881255  0.62110435  1
  V  V24  1  0.87199046  0.88001515  -0.00615218  1
  V  V25  1  0.50095236  0.49730028  0.49969623  1
  V  V26  1  -0.00213536  0.50227660  0.50097520  1
  V  V27  1  0.12649313  0.62662442  0.00202495  1
  V  V28  1  0.51010051  0.24966685  0.75157110  1
  V  V29  1  0.37681061  0.13936934  0.24767957  1
  V  V30  1  0.62088895  0.25029809  0.36478674  1
  V  V31  1  0.62677645  0.12102676  0.50588581  1
  V  V32  1  0.87553555  0.51367199  0.87075443  1
  V  V33  1  0.37914875  0.76084127  0.12947477  1
  V  V34  1  0.12217438  0.87508352  0.74749171  1
  V  V35  1  0.86730333  0.37776546  0.00442336  1
  V  V36  1  0.61809042  0.87897449  0.24326639  1
  V  V37  1  0.12350505  0.24762344  0.38002206  1
  V  V38  1  0.63145239  0.62196582  0.49533206  1
  V  V39  1  0.26426401  0.25146488  0.00425244  1
  V  V40  1  -0.00213614  0.73743275  0.74511714  1
  V  V41  1  0.00008394  0.25275448  0.75100143  1
  V  V42  1  0.37720051  0.49108574  0.88583628  1
  V  V43  1  0.12456885  0.37458227  0.24801352  1
  V  V44  1  -0.00128301  0.62701138  0.12687232  1
  V  V45  1  0.73487503  0.62310111  0.87063431  1
  V  V46  1  0.12419396  -0.00299950  0.12455159  1
  V  V47  1  0.86681657  0.25322840  0.12740962  1
  V  V48  1  0.37659388  -0.00019164  0.37351125  1
  V  V49  1  0.24645279  0.25074511  0.50707359  1
  V  V50  1  0.37943098  0.62242812  0.75055975  1
  V  V51  1  0.37380813  0.87469259  0.49817575  1
  V  V52  1  0.75515580  0.12328907  0.37240629  1
  V  V53  1  0.87147499  0.75300063  0.12380848  1
  V  V54  1  0.26267843  0.37165419  0.12264686  1
  V  V55  1  0.74318598  0.74549776  -0.00351864  1
  V  V56  1  0.62034692  0.74948818  0.37095381  1
  V  V57  1  0.12305954  0.62532996  0.50558423  1
  V  V58  1  0.12612144  0.49880074  0.12498786  1
  V  V59  1  0.37631543  0.74876176  0.62525046  1
  V  V60  1  0.25139988  0.62116444  0.37205465  1
  V  V61  1  0.50475781  -0.00242114  0.50403484  1
  V  V62  1  0.25143424  0.75575939  0.00693406  1
  V  V63  1  0.87455342  0.87781985  0.50177529  1
  V  V64  1  0.87710138  0.73562449  0.62708231  1
  V  V65  1  0.12795380  0.87433320  0.24713225  1
  V  V66  1  0.24982205  0.74893672  0.50030918  1
  V  V67  1  0.50105270  0.37100944  0.36269539  1
  V  V68  1  0.75471633  0.49634093  0.74540649  1
  V  V69  1  -0.00749232  0.12375754  0.12873045  1
  V  V70  1  0.37614453  0.25192724  0.62818404  1
  V  V71  1  0.37467073  0.11960794  0.75271727  1
  V  V72  1  0.25277296  0.11839442  0.87734258  1
  V  V73  1  0.25221245  0.00002145  0.24564261  1
  V  V74  1  0.12356369  0.74883331  0.37429366  1
  V  V75  1  0.49845450  0.12893253  0.13024301  1
  V  V76  1  0.74678120  0.25790529  0.50383924  1
  V  V77  1  0.25297536  0.62367724  0.87752049  1
  V  V78  1  0.75099969  0.74775553  0.49482611  1
  V  V79  1  -0.00550978  0.24699081  0.25129442  1
  V  V80  1  -0.00050187  0.50193819  0.00131690  1
  V  V81  1  0.37152968  0.37428044  0.50214104  1
  V  V82  1  0.88059871  0.11660046  0.76249810  1
  V  V83  1  0.12206417  0.50027113  0.62651563  1
  V  V84  1  0.12336852  0.12898514  0.00163011  1
  Zn  Zn85  1  0.74622045  -0.00081664  0.74736775  1
  Zn  Zn86  1  0.63210199  0.36812221  0.75109781  1
  Zn  Zn87  1  0.49693140  0.87048906  0.36962573  1
  Zn  Zn88  1  0.61324527  0.89712455  0.73449305  1
  Zn  Zn89  1  0.87700325  0.00495563  0.36982678  1
  Zn  Zn90  1  0.74316784  0.88327567  0.62544500  1
  Zn  Zn91  1  -0.00551853  0.00296591  -0.00441140  1
  Zn  Zn92  1  0.74190606  0.25591250  -0.00078650  1
  Zn  Zn93  1  0.50583208  0.11898451  0.63110929  1
  Zn  Zn94  1  0.63596960  0.47281597  0.11593626  1
  Zn  Zn95  1  0.87154757  0.37837357  0.50457638  1
  Zn  Zn96  1  0.25188067  0.50042277  0.24743846  1
  Zn  Zn97  1  0.74153726  0.87905689  0.11816356  1
  Zn  Zn98  1  0.49951521  0.75822962  0.75244397  1
  Zn  Zn99  1  0.25153992  -0.00285631  0.75497816  1
  Zn  Zn100  1  0.50443383  0.62169208  0.62650866  1
  Zn  Zn101  1  0.51226350  0.50148855  -0.00042989  1
  Zn  Zn102  1  0.12693058  0.25152201  0.87757808  1
  Zn  Zn103  1  0.24875567  0.87608740  0.62496802  1
  Zn  Zn104  1  -0.00304624  0.75012586  0.25016375  1
  Zn  Zn105  1  0.37720112  0.49879038  0.37250758  1
  Zn  Zn106  1  -0.00188121  0.37548243  0.37696390  1
  Zn  Zn107  1  0.18718076  0.18713896  0.18773237  1
  Zn  Zn108  1  0.18740783  0.18739473  0.68879458  1
  Zn  Zn109  1  0.19103270  0.68854070  0.18746814  1
  Zn  Zn110  1  0.19035869  0.68554322  0.68853701  1
  Zn  Zn111  1  0.68241887  0.18746176  0.18411206  1
  Zn  Zn112  1  0.69124239  0.17804758  0.68865052  1
  Zn  Zn113  1  0.68843452  0.69187196  0.19014633  1
  Zn  Zn114  1  0.68926201  0.68690280  0.68523792  1
  Zn  Zn115  1  0.31075165  0.31593356  0.31541157  1
  Zn  Zn116  1  0.31584714  0.30838102  0.81773133  1
  Zn  Zn117  1  0.31086680  0.81176666  0.31097269  1
  Zn  Zn118  1  0.31036800  0.81124963  0.81114442  1
  Zn  Zn119  1  0.81315062  0.31308175  0.31832914  1
  Zn  Zn120  1  0.81282028  0.31222495  0.81730367  1
  Zn  Zn121  1  0.80696532  0.81726710  0.31312885  1
  Zn  Zn122  1  0.80766997  0.81344030  0.80705044  1
  Zn  Zn123  1  0.18754208  0.43524551  0.43759428  1
  Zn  Zn124  1  0.18989881  0.43553659  0.93792729  1
  Zn  Zn125  1  0.18741723  0.93800696  0.43644781  1
  Zn  Zn126  1  0.18565212  0.93713178  0.93940265  1
  Zn  Zn127  1  0.68744000  0.43546948  0.43020597  1
  Zn  Zn128  1  0.68348599  0.44024130  0.93706816  1
  Zn  Zn129  1  0.68778490  0.93555320  0.43403065  1
  Zn  Zn130  1  0.69130537  0.94233737  0.92942187  1
  Zn  Zn131  1  0.31445321  0.06261395  0.06510844  1
  Zn  Zn132  1  0.31501184  0.06493738  0.56333328  1
  Zn  Zn133  1  0.31569699  0.56414960  0.06677176  1
  Zn  Zn134  1  0.31121320  0.55999472  0.56386368  1
  Zn  Zn135  1  0.81117062  0.06429232  0.06092631  1
  Zn  Zn136  1  0.81574398  0.06747754  0.56225675  1
  Zn  Zn137  1  0.80745340  0.56523756  0.06188544  1
  Zn  Zn138  1  0.80925732  0.56317994  0.56316634  1
  Zn  Zn139  1  0.44071015  0.44423181  0.18576090  1
  Zn  Zn140  1  0.44168320  0.43254719  0.68854984  1
  Zn  Zn141  1  0.44020134  0.94388080  0.18049237  1
  Zn  Zn142  1  0.43782083  0.93518498  0.68845461  1
  Zn  Zn143  1  0.93540567  0.43795103  0.18998786  1
  Zn  Zn144  1  0.93896936  0.44137852  0.68810880  1
  Zn  Zn145  1  0.93532184  0.93678339  0.18623506  1
  Zn  Zn146  1  0.93105259  0.93765162  0.68133529  1
  Zn  Zn147  1  0.06361884  0.06566792  0.31178779  1
  Zn  Zn148  1  0.06512618  0.06304284  0.81247743  1
  Zn  Zn149  1  0.05834996  0.56255451  0.31294357  1
  Zn  Zn150  1  0.06556350  0.56171777  0.81452694  1
  Zn  Zn151  1  0.56503492  0.06125126  0.31383292  1
  Zn  Zn152  1  0.55925805  0.05868879  0.81781622  1
  Zn  Zn153  1  0.56444198  0.56178303  0.31274330  1
  Zn  Zn154  1  0.56222190  0.55616560  0.81123699  1
  Zn  Zn155  1  0.43901196  0.18550527  0.43788601  1
  Zn  Zn156  1  0.44024488  0.18282056  0.93648494  1
  Zn  Zn157  1  0.44028077  0.68499534  0.43773105  1
  Zn  Zn158  1  0.43680162  0.68889973  0.93978531  1
  Zn  Zn159  1  0.93417077  0.18931433  0.43956633  1
  Zn  Zn160  1  0.93792920  0.19257312  0.94122076  1
  Zn  Zn161  1  0.93756668  0.68600598  0.43724424  1
  Zn  Zn162  1  0.93680247  0.69315628  0.93674644  1
  Zn  Zn163  1  0.06075839  0.31180579  0.06478708  1
  Zn  Zn164  1  0.06224637  0.31650596  0.56390574  1
  Zn  Zn165  1  0.05884048  0.81457580  0.06173096  1
  Zn  Zn166  1  0.05864484  0.81309056  0.56355278  1
  Zn  Zn167  1  0.55741715  0.31042234  0.07226893  1
  Zn  Zn168  1  0.55991582  0.30897411  0.55959257  1
  Zn  Zn169  1  0.55923893  0.81000090  0.05949738  1
  Zn  Zn170  1  0.55948032  0.81161219  0.56150525  1
  O  O171  1  0.11579371  0.11739124  0.12160189  1
  O  O172  1  0.11177154  0.11914425  0.63156866  1
  O  O173  1  0.12062188  0.62052675  0.12083946  1
  O  O174  1  0.13130452  0.61846241  0.61303804  1
  O  O175  1  0.61069961  0.12295924  0.12032747  1
  O  O176  1  0.62513311  0.12599757  0.61013580  1
  O  O177  1  0.60935065  0.63347970  0.13180732  1
  O  O178  1  0.62418515  0.61662577  0.61168104  1
  O  O179  1  0.38167870  0.37559120  0.38463442  1
  O  O180  1  0.38782043  0.38244375  0.86920069  1
  O  O181  1  0.37453829  0.88020731  0.37947082  1
  O  O182  1  0.37257805  0.87252118  0.88644865  1
  O  O183  1  0.87878101  0.38523534  0.38157091  1
  O  O184  1  0.88693633  0.38402671  0.88146020  1
  O  O185  1  0.88268117  0.87473574  0.38463197  1
  O  O186  1  0.88334912  0.86525632  0.88142572  1
  O  O187  1  0.25233285  0.00905582  0.36760240  1
  O  O188  1  0.24331842  0.01384080  0.87498225  1
  O  O189  1  0.25063422  0.51149571  0.37528930  1
  O  O190  1  0.25756893  0.50200114  0.86685329  1
  O  O191  1  0.75287334  0.00752206  0.36730726  1
  O  O192  1  0.75656357  0.01996903  0.87319687  1
  O  O193  1  0.76128106  0.49865724  0.36642707  1
  O  O194  1  0.75800326  0.50779385  0.86992416  1
  O  O195  1  0.24229615  0.49161561  0.12323097  1
  O  O196  1  0.24067058  0.50200330  0.63811904  1
  O  O197  1  0.24011199  1.00733911  0.13822507  1
  O  O198  1  0.23528935  1.00250405  0.62229165  1
  O  O199  1  0.75301961  0.50278741  0.13984495  1
  O  O200  1  0.74414330  0.50030329  0.63250500  1
  O  O201  1  0.75072737  0.99956080  0.13694343  1
  O  O202  1  0.77783720  0.99342432  0.63405690  1
  O  O203  1  0.01086013  0.36837533  0.25127163  1
  O  O204  1  0.00758806  0.37355896  0.75809280  1
  O  O205  1  0.00997020  0.87602661  0.25597536  1
  O  O206  1  0.00697595  0.86909859  0.75265713  1
  O  O207  1  0.49057559  0.37748263  0.26393648  1
  O  O208  1  0.50393129  0.36446773  0.75794487  1
  O  O209  1  0.51332580  0.88438668  0.25072733  1
  O  O210  1  0.50136105  0.87130688  0.75015279  1
  O  O211  1  0.49251259  0.11545451  0.23906172  1
  O  O212  1  0.49067644  0.13274106  0.75193477  1
  O  O213  1  0.48942674  0.62299913  0.24511340  1
  O  O214  1  0.48778261  0.62393750  0.74902954  1
  O  O215  1  1.00322966  0.13489013  0.24186620  1
  O  O216  1  0.99521295  0.13275005  0.74681895  1
  O  O217  1  0.98977849  0.62667216  0.24193372  1
  O  O218  1  1.00641510  0.63824822  0.75427477  1
  O  O219  1  0.36234241  0.24535073  0.00010618  1
  O  O220  1  0.36956584  0.25495917  0.50634770  1
  O  O221  1  0.36921408  0.76062216  0.00480178  1
  O  O222  1  0.37013760  0.75271091  0.50517162  1
  O  O223  1  0.87797726  0.26140386  0.01100399  1
  O  O224  1  0.86586663  0.25131308  0.50975578  1
  O  O225  1  0.86818325  0.75861242  0.00610471  1
  O  O226  1  0.87093081  0.75402910  0.50488945  1
  O  O227  1  0.13334888  0.25794225  0.49281477  1
  O  O228  1  0.12734409  0.23798967  1.00242905  1
  O  O229  1  0.12785898  0.74230913  0.49689947  1
  O  O230  1  0.13279018  0.74826103  0.99785391  1
  O  O231  1  0.63114591  0.24128629  0.49493480  1
  O  O232  1  0.62420860  0.23604410  1.00304605  1
  O  O233  1  0.63278275  0.74069276  0.49445717  1
  O  O234  1  0.63296669  0.75555896  0.98612458  1
  O  O235  1  0.48933978  0.22775622  0.11641964  1
  O  O236  1  0.49216288  0.24616634  0.63258627  1
  O  O237  1  0.48992078  0.73966022  0.12105198  1
  O  O238  1  0.48502096  0.74166664  0.62223345  1
  O  O239  1  0.99370380  0.24335993  0.13365276  1
  O  O240  1  0.99719765  0.24460371  0.62979220  1
  O  O241  1  0.99082239  0.74514075  0.12642604  1
  O  O242  1  0.98959295  0.75014901  0.63107306  1
  O  O243  1  0.00585848  0.25042303  0.36997720  1
  O  O244  1  0.00330798  0.26154657  0.87121881  1
  O  O245  1  0.00716472  0.75612608  0.37273846  1
  O  O246  1  0.00630286  0.75819175  0.86648180  1
  O  O247  1  0.51258837  0.25469587  0.38114477  1
  O  O248  1  0.49399256  0.26031938  0.86785252  1
  O  O249  1  0.51472324  0.75121066  0.38021920  1
  O  O250  1  0.51504351  0.74466794  0.87652294  1
  O  O251  1  0.25481721  0.13332173  0.48766780  1
  O  O252  1  0.24462243  0.13292787  0.99802536  1
  O  O253  1  0.24407538  0.62804472  0.49235076  1
  O  O254  1  0.24668694  0.63235328  0.99598734  1
  O  O255  1  0.74489995  0.13096656  0.49238508  1
  O  O256  1  0.74047368  0.12455418  0.99355866  1
  O  O257  1  0.74258452  0.63257511  0.49891642  1
  O  O258  1  0.75692719  0.63903643  0.98871303  1
  O  O259  1  0.24472984  0.35973026  0.00653628  1
  O  O260  1  0.26266691  0.36692751  0.49544935  1
  O  O261  1  0.26004821  0.86837816  -0.00280768  1
  O  O262  1  0.25522096  0.86715381  0.49957141  1
  O  O263  1  0.76440729  0.37319009  -0.01078401  1
  O  O264  1  0.74937837  0.36153893  0.49722948  1
  O  O265  1  0.75541909  0.86741326  -0.00275890  1
  O  O266  1  0.76000069  0.86854188  0.49989282  1
  O  O267  1  0.12598736  0.49171227  0.24560360  1
  O  O268  1  0.13229647  0.49577014  0.74464403  1
  O  O269  1  0.13085505  0.99532196  0.24460828  1
  O  O270  1  0.12491998  0.99251855  0.74041862  1
  O  O271  1  0.64251850  0.50468125  0.25136939  1
  O  O272  1  0.63247481  0.49737415  0.73866865  1
  O  O273  1  0.63561843  0.98629947  0.25681815  1
  O  O274  1  0.63001858  1.01065233  0.74969179  1
  O  O275  1  0.36599555  0.00182167  0.25558889  1
  O  O276  1  0.36827874  0.01557178  0.73837775  1
  O  O277  1  0.37057681  0.51237291  0.25268196  1
  O  O278  1  0.36974044  0.50351154  0.75331072  1
  O  O279  1  0.85870965  -0.00606300  0.25210141  1
  O  O280  1  0.88747362  0.01615970  0.75293919  1
  O  O281  1  0.86926904  0.50730321  0.25712064  1
  O  O282  1  0.86999537  0.49828555  0.75928026  1
  O  O283  1  0.12507169  0.36445365  0.36684843  1
  O  O284  1  0.11469629  0.37847484  0.86728243  1
  O  O285  1  0.11989767  0.86966059  0.36775077  1
  O  O286  1  0.11919485  0.86905418  0.86759996  1
  O  O287  1  0.61671620  0.35947731  0.37926864  1
  O  O288  1  0.61045289  0.37573446  0.87089780  1
  O  O289  1  0.62205849  0.86676886  0.36610620  1
  O  O290  1  0.62710338  0.86455438  0.87052866  1
  O  O291  1  0.38125091  0.11982271  0.13773010  1
  O  O292  1  0.37596096  0.13729167  0.63100559  1
  O  O293  1  0.38101948  0.63419041  0.13271064  1
  O  O294  1  0.37385294  0.62897735  0.63382305  1
  O  O295  1  0.88689673  0.13297612  0.11901424  1
  O  O296  1  0.88785663  0.13614452  0.63558136  1
  O  O297  1  0.87815434  0.63663250  0.12907397  1
  O  O298  1  0.87946178  0.63702630  0.61839274  1
  O  O299  1  0.24523843  0.25510479  0.11299359  1
  O  O300  1  0.25447318  0.24476253  0.61276805  1
  O  O301  1  0.25852015  0.74597314  0.11237813  1
  O  O302  1  0.25920782  0.74894132  0.61848528  1
  O  O303  1  0.76419908  0.24136615  0.12309729  1
  O  O304  1  0.75918532  0.24233050  0.61776377  1
  O  O305  1  0.75522319  0.75233028  0.11435330  1
  O  O306  1  0.76419304  0.74778983  0.61477197  1
  O  O307  1  0.24335405  0.24520497  0.38432657  1
  O  O308  1  0.24657249  0.24342216  0.88926077  1
  O  O309  1  0.24371234  0.73926892  0.37986078  1
  O  O310  1  0.24438829  0.74434371  0.88434704  1
  O  O311  1  0.74060644  0.24445863  0.38140874  1
  O  O312  1  0.76261441  0.23081066  0.88199284  1
  O  O313  1  0.74172382  0.75493406  0.38798623  1
  O  O314  1  0.74121776  0.74189031  0.87749828  1
  O  O315  1  0.00716940  0.12328681  0.00722235  1
  O  O316  1  -0.00392132  0.11846514  0.50868940  1
  O  O317  1  0.00562251  0.62296956  0.00595504  1
  O  O318  1  0.01085599  0.61346276  0.49494527  1
  O  O319  1  0.50541807  0.11761562  0.00603312  1
  O  O320  1  0.50961755  0.11710888  0.50015200  1
  O  O321  1  0.49534845  0.62329333  0.01384061  1
  O  O322  1  0.50496321  0.60923434  0.50010382  1
  O  O323  1  0.49068649  0.38110201  0.49450014  1
  O  O324  1  0.50009983  0.37284642  0.98766187  1
  O  O325  1  0.49025770  0.88029086  0.49525496  1
  O  O326  1  0.48970223  0.88657566  1.00194847  1
  O  O327  1  1.00066685  0.39028964  0.49935181  1
  O  O328  1  0.99614696  0.38197920  0.99339242  1
  O  O329  1  0.99650951  0.88269645  0.49197388  1
  O  O330  1  0.99182952  0.87463529  0.98864043  1
  O  O331  1  0.50119882  0.49027177  0.38305503  1
  O  O332  1  0.49338039  0.48778994  0.87651338  1
  O  O333  1  0.49065699  0.99987937  0.38369469  1
  O  O334  1  0.48991942  1.01105479  0.89672121  1
  O  O335  1  0.99067085  0.49860331  0.38282782  1
  O  O336  1  0.99427713  0.49689920  0.87996375  1
  O  O337  1  0.99986600  0.99757114  0.38004473  1
  O  O338  1  1.00714061  0.98535067  0.87619033  1
  O  O339  1  0.00553214  0.00778802  0.12479116  1
  O  O340  1  0.00710405  0.00727905  0.61741645  1
  O  O341  1  0.00490691  0.50662601  0.12053785  1
  O  O342  1  0.01337783  0.50056510  0.61987919  1
  O  O343  1  0.49162580  0.01295699  0.10569660  1
  O  O344  1  0.48943184  0.00276196  0.60735673  1
  O  O345  1  0.50171744  0.51565735  0.12258229  1
  O  O346  1  0.50833544  0.49882706  0.61666116  1
  O  O347  1  0.23912270  0.37417763  0.24329662  1
  O  O348  1  0.24174654  0.38154416  0.75906562  1
  O  O349  1  0.23635810  0.88464300  0.25550500  1
  O  O350  1  0.23639654  0.87613889  0.74792395  1
  O  O351  1  0.75522500  0.38805534  0.25268233  1
  O  O352  1  0.74878850  0.38885482  0.75980404  1
  O  O353  1  0.74097738  0.88656914  0.24670817  1
  O  O354  1  0.74406552  0.88044846  0.74636361  1
  O  O355  1  0.25516061  0.12017724  0.25914874  1
  O  O356  1  0.25463502  0.12716894  0.76109230  1
  O  O357  1  0.25633225  0.62397046  0.25812195  1
  O  O358  1  0.25888459  0.61616004  0.75718661  1
  O  O359  1  0.74012513  0.11017781  0.25611980  1
  O  O360  1  0.76556399  0.12643205  0.76113659  1
  O  O361  1  0.76179199  0.62109270  0.24760085  1
  O  O362  1  0.74801021  0.61163417  0.75838455  1
  O  O363  1  0.36845284  0.11929557  0.36899554  1
  O  O364  1  0.36449743  0.13101216  0.86559587  1
  O  O365  1  0.36822802  0.62588543  0.36768376  1
  O  O366  1  0.37165817  0.61775806  0.86824935  1
  O  O367  1  0.85986781  0.12767376  0.37574635  1
  O  O368  1  0.88144608  0.12692286  0.86479609  1
  O  O369  1  0.88018093  0.61694715  0.36528729  1
  O  O370  1  0.87131315  0.61628716  0.87886608  1
  O  O371  1  0.12938844  0.37914813  0.13207353  1
  O  O372  1  0.12336623  0.38310007  0.63884765  1
  O  O373  1  0.11889567  0.88788708  0.13098612  1
  O  O374  1  0.12411473  0.88323216  0.63106057  1
  O  O375  1  0.62309113  0.36494125  0.13809855  1
  O  O376  1  0.62204695  0.38446758  0.62413108  1
  O  O377  1  0.62381939  0.86815071  0.13895683  1
  O  O378  1  0.63163105  0.86104220  0.62612947  1
  O  O379  1  0.11666312  0.25596688  0.25553719  1
  O  O380  1  0.12040556  0.25912833  0.75287970  1
  O  O381  1  0.12462040  0.75882406  0.25291046  1
  O  O382  1  0.11945094  0.75640101  0.75144159  1
  O  O383  1  0.62565808  0.24318494  0.26655161  1
  O  O384  1  0.61390447  0.24639533  0.74333846  1
  O  O385  1  0.63398217  0.76488564  0.26033110  1
  O  O386  1  0.62288804  0.74168653  0.76466329  1
  O  O387  1  0.37000977  0.23805944  0.25636894  1
  O  O388  1  0.37954831  0.24332710  0.74283283  1
  O  O389  1  0.36804048  0.74322376  0.24002467  1
  O  O390  1  0.37316220  0.74028060  0.74275581  1
  O  O391  1  0.88694253  0.25845977  0.24488500  1
  O  O392  1  0.88195851  0.24477764  0.74597645  1
  O  O393  1  0.87198811  0.74649347  0.24277172  1
  O  O394  1  0.88168856  0.75212057  0.73442045  1
  O  O395  1  0.38172286  0.49165055  0.50034073  1
  O  O396  1  0.37523758  0.50303377  0.98746889  1
  O  O397  1  0.37645932  0.99418969  0.49192791  1
  O  O398  1  0.37230554  0.98538739  1.00265507  1
  O  O399  1  0.88124286  0.50177434  0.49521614  1
  O  O400  1  0.88045682  0.49608207  0.99495480  1
  O  O401  1  0.88844510  0.99379731  0.49577219  1
  O  O402  1  0.87568737  0.98430399  1.00664478  1
  O  O403  1  0.12442267  0.00979116  0.00958637  1
  O  O404  1  0.11341160  -0.00340532  0.50556416  1
  O  O405  1  0.11978745  0.50578027  0.00392953  1
  O  O406  1  0.12193605  0.50449892  0.50733657  1
  O  O407  1  0.61499357  0.00495479  -0.00489819  1
  O  O408  1  0.61618125  0.00720507  0.49094942  1
  O  O409  1  0.62734183  0.50414661  0.00729123  1
  O  O410  1  0.62148837  0.50234012  0.50257369  1
  O  O411  1  0.36156659  0.38008063  0.13094234  1
  O  O412  1  0.37825361  0.36191194  0.61837155  1
  O  O413  1  0.37875971  0.86419192  0.11940933  1
  O  O414  1  0.36934056  0.86548445  0.61733884  1
  O  O415  1  0.88235394  0.36756774  0.11548649  1
  O  O416  1  0.88238140  0.36140667  0.62532269  1
  O  O417  1  0.87387398  0.86357886  0.11806776  1
  O  O418  1  0.88207577  0.86294955  0.60876952  1
  O  O419  1  0.13341501  0.13897270  0.37054946  1
  O  O420  1  0.12962501  0.12802102  0.88525296  1
  O  O421  1  0.13119786  0.62840669  0.38232619  1
  O  O422  1  0.13210608  0.63042133  0.88266765  1
  O  O423  1  0.63178689  0.13355665  0.38306083  1
  O  O424  1  0.63482442  0.12805420  0.88328579  1
  O  O425  1  0.62105393  0.63160880  0.38630194  1
  O  O426  1  0.63302960  0.62492789  0.87494259  1
