# generated using pymatgen
data_V85Zn86O256
_symmetry_space_group_name_H-M   'P 1'
_cell_length_a   16.95188865
_cell_length_b   16.94008567
_cell_length_c   16.94505926
_cell_angle_alpha   90.06565159
_cell_angle_beta   89.93709001
_cell_angle_gamma   90.02196696
_symmetry_Int_Tables_number   1
_chemical_formula_structural   V85Zn86O256
_chemical_formula_sum   'V85 Zn86 O256'
_cell_volume   4866.04595885
_cell_formula_units_Z   1
loop_
 _symmetry_equiv_pos_site_id
 _symmetry_equiv_pos_as_xyz
  1  'x, y, z'
loop_
 _atom_site_type_symbol
 _atom_site_label
 _atom_site_symmetry_multiplicity
 _atom_site_fract_x
 _atom_site_fract_y
 _atom_site_fract_z
 _atom_site_occupancy
  V  V0  1  0.16600377  0.93630082  0.17446314  1
  V  V1  1  0.25177136  0.37055936  0.12395023  1
  V  V2  1  0.12553034  -0.00266873  0.62505335  1
  V  V3  1  -0.00126786  0.50081823  0.00029921  1
  V  V4  1  0.75319866  0.24955081  0.49898111  1
  V  V5  1  0.37909547  0.49904150  0.87281885  1
  V  V6  1  0.75395419  -0.00022409  0.75283906  1
  V  V7  1  0.37035524  0.87324181  0.49440840  1
  V  V8  1  0.87788469  0.86152102  0.49646479  1
  V  V9  1  0.74775365  0.50153438  0.75416462  1
  V  V10  1  0.25661521  0.49946793  0.24977528  1
  V  V11  1  0.62957070  0.63167033  0.49884720  1
  V  V12  1  0.50065517  0.00180059  0.49828748  1
  V  V13  1  0.74798966  0.49636812  0.25047402  1
  V  V14  1  0.12374398  0.49578599  0.62508006  1
  V  V15  1  -0.00336604  0.63039480  0.62420216  1
  V  V16  1  0.87271904  0.24869578  0.62343618  1
  V  V17  1  0.13252601  0.12305187  0.49590534  1
  V  V18  1  0.74787483  0.62681684  0.87724296  1
  V  V19  1  0.87684715  0.24921583  0.14848972  1
  V  V20  1  0.24396559  0.49650349  0.74910198  1
  V  V21  1  0.75532965  0.00474536  0.25043373  1
  V  V22  1  0.62715638  0.12640894  0.50018822  1
  V  V23  1  0.00055957  0.12402779  0.62329111  1
  V  V24  1  0.87306323  0.63397567  0.74642581  1
  V  V25  1  0.25014070  0.87282280  0.62534760  1
  V  V26  1  0.87390019  0.50168431  0.87696340  1
  V  V27  1  0.36979946  0.12341354  0.74851507  1
  V  V28  1  0.62390860  0.25725701  0.37333876  1
  V  V29  1  0.87251016  0.88100104  -0.00180070  1
  V  V30  1  0.00482939  0.25456734  0.74688245  1
  V  V31  1  0.35695922  0.00831311  0.37550429  1
  V  V32  1  0.87332600  0.12000234  0.75894082  1
  V  V33  1  0.74701022  0.75596073  0.00209130  1
  V  V34  1  0.75483832  0.86058329  0.61839676  1
  V  V35  1  0.87459474  0.75240893  0.12782970  1
  V  V36  1  0.37513560  0.49809695  0.37537936  1
  V  V37  1  0.63464553  0.75319671  0.37521428  1
  V  V38  1  0.24892327  0.24406882  -0.00000581  1
  V  V39  1  0.12225970  0.36935014  0.24818088  1
  V  V40  1  0.62295704  0.62370512  0.00837740  1
  V  V41  1  0.49982044  0.87956533  0.37564791  1
  V  V42  1  0.37017662  0.75065277  0.61822651  1
  V  V43  1  0.62954284  -0.00123451  0.62425199  1
  V  V44  1  -0.00210854  0.62250614  0.13441919  1
  V  V45  1  0.24744094  -0.00060513  0.76363853  1
  V  V46  1  0.48749167  0.62838377  0.13120212  1
  V  V47  1  0.37312296  -0.00165074  0.87932052  1
  V  V48  1  0.00344871  0.13080365  0.13932223  1
  V  V49  1  0.37308405  0.62707559  0.74712285  1
  V  V50  1  0.11902684  0.75518494  0.37059932  1
  V  V51  1  0.62171203  0.75138171  0.87721030  1
  V  V52  1  0.75091327  0.37669325  0.62666595  1
  V  V53  1  0.37651423  0.37304887  0.00227524  1
  V  V54  1  0.26143216  0.74710506  0.01314904  1
  V  V55  1  0.62506887  0.87592297  0.24721022  1
  V  V56  1  0.36083692  0.12872418  0.25067128  1
  V  V57  1  0.12916515  0.62738271  0.49868446  1
  V  V58  1  0.12354219  0.12427737  -0.00458791  1
  V  V59  1  0.24805430  0.37229065  0.62488922  1
  V  V60  1  0.87045313  0.36326373  0.00186417  1
  V  V61  1  0.62370430  0.49455702  0.13242653  1
  V  V62  1  -0.00017585  -0.00525921  0.49433062  1
  V  V63  1  0.50242447  0.24603323  0.24401187  1
  V  V64  1  0.50101763  0.36214510  0.87031917  1
  V  V65  1  0.62164286  0.50318253  0.62358273  1
  V  V66  1  0.50577936  0.12819004  0.63226395  1
  V  V67  1  0.50081911  0.87535343  0.88577804  1
  V  V68  1  0.25664974  0.63520670  0.37474764  1
  V  V69  1  0.61790350  0.01447673  0.12392506  1
  V  V70  1  0.37954743  0.24969078  0.62664895  1
  V  V71  1  0.62007270  0.36701189  0.74950951  1
  V  V72  1  0.49753269  0.75327731  0.74980373  1
  V  V73  1  0.13208883  0.24734500  0.37260833  1
  V  V74  1  -0.00567545  0.87890088  0.87635387  1
  V  V75  1  -0.00006403  0.36881803  0.37302189  1
  V  V76  1  0.48136172  0.75153790  0.24902295  1
  V  V77  1  0.12366714  0.87261085  0.75488655  1
  V  V78  1  0.00644247  0.37737433  0.87198743  1
  V  V79  1  0.24765213  0.62636020  0.87502191  1
  V  V80  1  0.87674660  0.50111839  0.37499326  1
  V  V81  1  0.12151896  0.62809234  0.00253597  1
  V  V82  1  -0.00382058  0.00643051  -0.00007820  1
  V  V83  1  0.13113678  0.24889660  0.86885651  1
  V  V84  1  0.87915857  0.00310277  0.37268329  1
  Zn  Zn85  1  0.50073235  0.37496780  0.37439676  1
  Zn  Zn86  1  0.50067157  0.50005199  0.49634662  1
  Zn  Zn87  1  0.00392845  0.78135451  0.25477458  1
  Zn  Zn88  1  0.62814053  0.87410661  0.74972602  1
  Zn  Zn89  1  0.49677181  0.02443704  0.00618922  1
  Zn  Zn90  1  0.49807558  0.62743945  0.61986348  1
  Zn  Zn91  1  0.50157880  0.49821206  0.00243874  1
  Zn  Zn92  1  0.75364242  0.62790804  0.37696658  1
  Zn  Zn93  1  0.74990300  0.87847778  0.12599378  1
  Zn  Zn94  1  0.37900547  0.37395189  0.50058759  1
  Zn  Zn95  1  0.12489675  0.49675799  0.12578632  1
  Zn  Zn96  1  -0.00031760  0.49920459  0.49962789  1
  Zn  Zn97  1  0.12233816  0.75124710  0.87903815  1
  Zn  Zn98  1  0.25336910  0.24586963  0.49870902  1
  Zn  Zn99  1  0.75814945  0.12858741  0.37285601  1
  Zn  Zn100  1  0.87411043  0.63189035  0.25452812  1
  Zn  Zn101  1  0.73279790  0.35754714  0.11894113  1
  Zn  Zn102  1  0.70132344  0.17137735  0.94847666  1
  Zn  Zn103  1  0.41104106  0.20016129  0.08746922  1
  Zn  Zn104  1  0.87828055  0.37637179  0.50064479  1
  Zn  Zn105  1  0.37325069  0.88155287  0.01864076  1
  Zn  Zn106  1  -0.00519380  0.75380533  0.74960853  1
  Zn  Zn107  1  0.18702480  0.18485695  0.18512112  1
  Zn  Zn108  1  0.18831674  0.18514906  0.68563293  1
  Zn  Zn109  1  0.18533229  0.68143372  0.19242105  1
  Zn  Zn110  1  0.18559936  0.68814597  0.68676350  1
  Zn  Zn111  1  0.69303021  0.18777934  0.19520606  1
  Zn  Zn112  1  0.68440561  0.18924183  0.78988107  1
  Zn  Zn113  1  0.68776067  0.68563929  0.19196510  1
  Zn  Zn114  1  0.68467614  0.68794517  0.68774002  1
  Zn  Zn115  1  0.31407169  0.31213412  0.31189526  1
  Zn  Zn116  1  0.31231330  0.31218607  0.80751080  1
  Zn  Zn117  1  0.30629260  0.82142416  0.18891512  1
  Zn  Zn118  1  0.31163156  0.81319031  0.81693501  1
  Zn  Zn119  1  0.80757354  0.32098143  0.31220179  1
  Zn  Zn120  1  0.81923708  0.31389745  0.81093607  1
  Zn  Zn121  1  0.81500402  0.81896620  0.31208711  1
  Zn  Zn122  1  0.80848497  0.81770792  0.81370142  1
  Zn  Zn123  1  0.18969920  0.43752420  0.43840755  1
  Zn  Zn124  1  0.18716282  0.43748392  0.93849335  1
  Zn  Zn125  1  0.18808679  0.93199235  0.43678257  1
  Zn  Zn126  1  0.17263905  0.92032147  0.96783877  1
  Zn  Zn127  1  0.68904787  0.43796050  0.43946741  1
  Zn  Zn128  1  0.68515405  0.33646606  0.93805911  1
  Zn  Zn129  1  0.69265215  0.93686201  0.43707004  1
  Zn  Zn130  1  0.71244659  0.98414696  0.95831232  1
  Zn  Zn131  1  0.30140319  0.05428980  0.06481897  1
  Zn  Zn132  1  0.31181508  0.05857546  0.56653779  1
  Zn  Zn133  1  0.31098068  0.55856666  0.06207091  1
  Zn  Zn134  1  0.31183659  0.56285010  0.55794430  1
  Zn  Zn135  1  0.81768507  0.06840350  0.07482914  1
  Zn  Zn136  1  0.81418678  0.06123532  0.56360537  1
  Zn  Zn137  1  0.81035763  0.56257146  0.06321773  1
  Zn  Zn138  1  0.81068411  0.56543053  0.56056436  1
  Zn  Zn139  1  0.44204895  0.43097932  0.18923402  1
  Zn  Zn140  1  0.43636604  0.43810140  0.68647111  1
  Zn  Zn141  1  0.43733179  0.94806159  0.19386035  1
  Zn  Zn142  1  0.43818451  0.93691075  0.68730044  1
  Zn  Zn143  1  0.93594353  0.43606186  0.18947053  1
  Zn  Zn144  1  0.93691543  0.44089895  0.68845886  1
  Zn  Zn145  1  0.94747250  0.94256604  0.18660197  1
  Zn  Zn146  1  0.93632002  0.93572648  0.68183133  1
  Zn  Zn147  1  0.06722329  0.05824331  0.31504914  1
  Zn  Zn148  1  0.05873084  0.06224373  0.81531474  1
  Zn  Zn149  1  0.06739397  0.55664326  0.31372601  1
  Zn  Zn150  1  0.06166560  0.56439851  0.81088645  1
  Zn  Zn151  1  0.56343304  0.06981223  0.31209259  1
  Zn  Zn152  1  0.56187258  0.05766747  0.81509675  1
  Zn  Zn153  1  0.56030588  0.56892732  0.31147474  1
  Zn  Zn154  1  0.56223060  0.56474438  0.81157273  1
  Zn  Zn155  1  0.43922797  0.18699947  0.43943230  1
  Zn  Zn156  1  0.43646309  0.18553867  0.92149656  1
  Zn  Zn157  1  0.44216502  0.68762650  0.43450902  1
  Zn  Zn158  1  0.43901945  0.68223162  0.93758470  1
  Zn  Zn159  1  0.94398716  0.18581950  0.43501541  1
  Zn  Zn160  1  0.93824142  0.19017340  0.93428905  1
  Zn  Zn161  1  0.94424997  0.68444167  0.43546463  1
  Zn  Zn162  1  0.93666368  0.69267807  0.93820061  1
  Zn  Zn163  1  0.06012581  0.31048132  0.06223279  1
  Zn  Zn164  1  0.06349044  0.31336726  0.55806185  1
  Zn  Zn165  1  0.05322523  0.82312767  0.08639182  1
  Zn  Zn166  1  0.06292340  0.80907508  0.56006291  1
  Zn  Zn167  1  0.57283069  0.20045468  0.05825336  1
  Zn  Zn168  1  0.56179685  0.31436001  0.56103092  1
  Zn  Zn169  1  0.55819070  0.81409372  0.06897557  1
  Zn  Zn170  1  0.56110395  0.81355415  0.56165995  1
  O  O171  1  0.10960754  0.13900550  0.11189581  1
  O  O172  1  0.11889533  0.11654915  0.61997007  1
  O  O173  1  0.11551765  0.61980344  0.11897814  1
  O  O174  1  0.12184681  0.61641967  0.61946408  1
  O  O175  1  0.62940102  0.11747701  0.12774438  1
  O  O176  1  0.61665336  0.11493639  0.61855280  1
  O  O177  1  0.61438484  0.62528724  0.12232665  1
  O  O178  1  0.62245525  0.62055075  0.61826223  1
  O  O179  1  0.37234159  0.38479304  0.38040636  1
  O  O180  1  0.38104757  0.38076226  0.87492442  1
  O  O181  1  0.38267111  0.89324781  0.38376825  1
  O  O182  1  0.38218103  0.88649541  0.87311778  1
  O  O183  1  0.88382986  0.38131472  0.37582248  1
  O  O184  1  0.88468348  0.38085665  0.88416731  1
  O  O185  1  0.87190072  0.88439148  0.39057133  1
  O  O186  1  0.88227271  0.87056331  0.88478930  1
  O  O187  1  0.25889380  0.00097059  0.37853339  1
  O  O188  1  0.25468473  -0.00774273  0.86609195  1
  O  O189  1  0.25879545  0.50422549  0.36949112  1
  O  O190  1  0.25596061  0.50586350  0.86834850  1
  O  O191  1  0.76042332  0.00183691  0.36979437  1
  O  O192  1  0.74531120  -0.02265908  0.84927702  1
  O  O193  1  0.75717073  0.49879128  0.36774058  1
  O  O194  1  0.75289639  0.50887771  0.86219920  1
  O  O195  1  0.24774302  0.49192963  0.13238749  1
  O  O196  1  0.24450018  0.49572509  0.63145971  1
  O  O197  1  0.24175853  0.99031954  0.13293611  1
  O  O198  1  0.24352601  0.99127540  0.63612532  1
  O  O199  1  0.73553907  0.50713677  0.13141668  1
  O  O200  1  0.74124862  0.49924871  0.63432771  1
  O  O201  1  0.74132095  0.99822141  0.13545727  1
  O  O202  1  0.74410165  0.99312312  0.62889295  1
  O  O203  1  0.01191044  0.38094371  0.25836709  1
  O  O204  1  -0.00695025  0.36618971  0.75916783  1
  O  O205  1  0.03539012  0.87355097  0.19569756  1
  O  O206  1  0.00461165  0.87649243  0.75673277  1
  O  O207  1  0.49006883  0.35285981  0.25797382  1
  O  O208  1  0.50618167  0.38559190  0.76151263  1
  O  O209  1  0.50701731  0.86907831  0.25683400  1
  O  O210  1  0.49823406  0.86411563  0.75693890  1
  O  O211  1  0.48838779  0.13885333  0.25768752  1
  O  O212  1  0.48651429  0.11189580  0.73666650  1
  O  O213  1  0.49868651  0.64351222  0.24675628  1
  O  O214  1  0.49212724  0.63760781  0.74875793  1
  O  O215  1  1.00530471  0.12464132  0.23708917  1
  O  O216  1  0.99235826  0.13010691  0.74282536  1
  O  O217  1  0.99866096  0.61542219  0.23777844  1
  O  O218  1  0.99007951  0.62641481  0.74458910  1
  O  O219  1  0.36451031  0.25526486  -0.00697922  1
  O  O220  1  0.37192855  0.24817388  0.51353800  1
  O  O221  1  0.36183828  0.73788618  0.00150797  1
  O  O222  1  0.38230872  0.76054387  0.50671418  1
  O  O223  1  0.87572734  0.26170846  -0.00174525  1
  O  O224  1  0.87158505  0.25016319  0.50571206  1
  O  O225  1  0.86726872  0.75920274  0.00676781  1
  O  O226  1  0.88017706  0.76265368  0.49360396  1
  O  O227  1  0.12661109  0.23950490  0.49434633  1
  O  O228  1  0.12973747  0.24548872  0.98918223  1
  O  O229  1  0.12000842  0.73498093  0.49096439  1
  O  O230  1  0.13583125  0.73509828  1.00017924  1
  O  O231  1  0.63502410  0.24540830  0.49724506  1
  O  O232  1  0.65336720  0.25591120  1.01071515  1
  O  O233  1  0.61729549  0.74540575  0.48805855  1
  O  O234  1  0.62820492  0.74416494  0.99957967  1
  O  O235  1  0.50123143  0.25124794  0.13983485  1
  O  O236  1  0.49290857  0.23938304  0.62258615  1
  O  O237  1  0.50050091  0.74469768  0.14152514  1
  O  O238  1  0.48860119  0.75216066  0.63309154  1
  O  O239  1  0.98928954  0.24064805  0.12134710  1
  O  O240  1  0.99301248  0.24887531  0.62978556  1
  O  O241  1  0.98914630  0.73590116  0.12068976  1
  O  O242  1  1.00627891  0.73461790  0.62990730  1
  O  O243  1  0.01083852  0.26246606  0.37946718  1
  O  O244  1  0.00776081  0.25857860  0.86589127  1
  O  O245  1  0.01233014  0.74838916  0.36914211  1
  O  O246  1  0.00227211  0.76310915  0.87329636  1
  O  O247  1  0.50972717  0.24966340  0.37219350  1
  O  O248  1  0.49632156  0.26369779  0.86443002  1
  O  O249  1  0.50588429  0.75850415  0.36360601  1
  O  O250  1  0.50018602  0.75417864  0.86856323  1
  O  O251  1  0.23568175  0.12260691  0.50834615  1
  O  O252  1  0.24114859  0.13568441  1.00329065  1
  O  O253  1  0.24171618  0.62032589  0.48639110  1
  O  O254  1  0.24347688  0.62754755  0.99405950  1
  O  O255  1  0.74761537  0.13710612  0.50190668  1
  O  O256  1  0.75882210  0.08545931  0.98403441  1
  O  O257  1  0.73551672  0.62409307  0.49683442  1
  O  O258  1  0.74192108  0.63307029  0.99621900  1
  O  O259  1  0.25616647  0.36679948  0.00192693  1
  O  O260  1  0.25211402  0.37492450  0.51506601  1
  O  O261  1  0.26170497  0.84916544  -0.01172041  1
  O  O262  1  0.26370231  0.87961398  0.50774474  1
  O  O263  1  0.76850969  0.38639534  0.00686244  1
  O  O264  1  0.75238554  0.36404716  0.50778143  1
  O  O265  1  0.75740878  0.87646079  0.00293352  1
  O  O266  1  0.76267903  0.87785225  0.50983313  1
  O  O267  1  0.13813792  0.48661511  0.25090638  1
  O  O268  1  0.13699389  0.50613002  0.74290326  1
  O  O269  1  0.12378452  1.00764454  0.23477609  1
  O  O270  1  0.12937346  0.99089834  0.74877222  1
  O  O271  1  0.63032389  0.50803229  0.24038720  1
  O  O272  1  0.63182057  0.49922228  0.74327408  1
  O  O273  1  0.63054721  0.99614647  0.24439176  1
  O  O274  1  0.63012354  0.99569261  0.73541582  1
  O  O275  1  0.37964570  0.01487274  0.26917010  1
  O  O276  1  0.36560503  0.00223890  0.75365375  1
  O  O277  1  0.36301460  0.49140144  0.25547677  1
  O  O278  1  0.36404323  0.50685577  0.75317670  1
  O  O279  1  0.86999878  -0.01282195  0.25966075  1
  O  O280  1  0.87106723  0.01285168  0.74041548  1
  O  O281  1  0.86837119  0.50146808  0.25961329  1
  O  O282  1  0.86655506  0.50873986  0.75639682  1
  O  O283  1  0.11968347  0.37033626  0.36948798  1
  O  O284  1  0.11251361  0.37022924  0.87856964  1
  O  O285  1  0.12802033  0.85361565  0.38362273  1
  O  O286  1  0.11668562  0.87420202  0.87099074  1
  O  O287  1  0.62726667  0.36115345  0.37889729  1
  O  O288  1  0.60846189  0.38255377  0.86583793  1
  O  O289  1  0.62030527  0.87225191  0.36893530  1
  O  O290  1  0.61062473  0.86562117  0.87035059  1
  O  O291  1  0.36501223  0.11478901  0.14504300  1
  O  O292  1  0.38158413  0.12893934  0.62964542  1
  O  O293  1  0.38887001  0.61571173  0.12244639  1
  O  O294  1  0.37498790  0.63354775  0.62734059  1
  O  O295  1  0.88773546  0.14093485  0.12782760  1
  O  O296  1  0.88221260  0.13349808  0.62877407  1
  O  O297  1  0.87986631  0.63598221  0.12542088  1
  O  O298  1  0.88381039  0.61751335  0.63390166  1
  O  O299  1  0.24837722  0.25620794  0.11197298  1
  O  O300  1  0.25539201  0.25794784  0.62496045  1
  O  O301  1  0.25088931  0.74042020  0.11707456  1
  O  O302  1  0.26248946  0.75526423  0.62983891  1
  O  O303  1  0.77036372  0.24916128  0.13628778  1
  O  O304  1  0.76538241  0.25527160  0.61809154  1
  O  O305  1  0.75755301  0.75300675  0.12133891  1
  O  O306  1  0.74582224  0.76226289  0.62386595  1
  O  O307  1  0.23595940  0.25844203  0.38150837  1
  O  O308  1  0.23677459  0.25883406  0.87830180  1
  O  O309  1  0.24120673  0.73331354  0.37304497  1
  O  O310  1  0.24935833  0.73517857  0.87966891  1
  O  O311  1  0.74730617  0.24987114  0.38223404  1
  O  O312  1  0.74126815  0.25832177  0.86771726  1
  O  O313  1  0.73802141  0.75221392  0.36956310  1
  O  O314  1  0.74113265  0.74713563  0.88135103  1
  O  O315  1  0.00360339  0.12077289  -0.00207818  1
  O  O316  1  0.00925415  0.11538009  0.50588397  1
  O  O317  1  0.00554740  0.62094370  0.00494255  1
  O  O318  1  0.00728474  0.61911695  0.50854216  1
  O  O319  1  0.48674106  0.14041164  0.01194623  1
  O  O320  1  0.50573088  0.11874694  0.51089712  1
  O  O321  1  0.50676258  0.62382379  0.01005803  1
  O  O322  1  0.51253830  0.62144065  0.50037416  1
  O  O323  1  0.49823382  0.38096141  0.49462578  1
  O  O324  1  0.48950069  0.37999587  0.97990495  1
  O  O325  1  0.49027269  0.88295500  0.49732713  1
  O  O326  1  0.49221060  0.86717340  0.99062595  1
  O  O327  1  0.99894435  0.37996554  0.49023754  1
  O  O328  1  0.99223178  0.38085107  0.99313690  1
  O  O329  1  0.98676202  0.88099145  0.50948779  1
  O  O330  1  0.99243280  0.88355426  0.99458405  1
  O  O331  1  0.48576349  0.50177314  0.36832602  1
  O  O332  1  0.48591917  0.50291251  0.87397614  1
  O  O333  1  0.50418272  0.99683357  0.38472268  1
  O  O334  1  0.49247924  0.99140721  0.88243336  1
  O  O335  1  0.99317878  0.49082819  0.37550442  1
  O  O336  1  0.99608607  0.49428195  0.87850259  1
  O  O337  1  0.99719704  0.99780146  0.38639332  1
  O  O338  1  0.99946813  0.98981063  0.88494541  1
  O  O339  1  -0.00648029  0.02181799  0.11015939  1
  O  O340  1  0.00703748  0.00254713  0.61519044  1
  O  O341  1  -0.00142090  0.50573498  0.11675908  1
  O  O342  1  0.00939973  0.50797084  0.62700037  1
  O  O343  1  0.51473773  0.00657789  0.13059829  1
  O  O344  1  0.50845172  0.00188448  0.61793272  1
  O  O345  1  0.50932985  0.50761976  0.12962057  1
  O  O346  1  0.51222327  0.50411204  0.62744193  1
  O  O347  1  0.24565339  0.37765614  0.24166323  1
  O  O348  1  0.25256238  0.38465119  0.73799640  1
  O  O349  1  0.21467116  0.86879325  0.23306558  1
  O  O350  1  0.24190800  0.87998218  0.74776767  1
  O  O351  1  0.75221883  0.39088186  0.23882036  1
  O  O352  1  0.74442554  0.38585271  0.74517655  1
  O  O353  1  0.74087983  0.88542708  0.25020234  1
  O  O354  1  0.75225404  0.87827632  0.73210512  1
  O  O355  1  0.26175032  0.13606525  0.25829878  1
  O  O356  1  0.26024470  0.11311214  0.74279024  1
  O  O357  1  0.24541130  0.61272213  0.26453231  1
  O  O358  1  0.25317734  0.61971520  0.75731583  1
  O  O359  1  0.75213260  0.10975381  0.25523679  1
  O  O360  1  0.76601716  0.11685692  0.74431697  1
  O  O361  1  0.75458169  0.61494778  0.25449757  1
  O  O362  1  0.75423470  0.62072237  0.75368082  1
  O  O363  1  0.37432968  0.11407810  0.37548757  1
  O  O364  1  0.37674127  0.10926843  0.86168355  1
  O  O365  1  0.36208424  0.62056125  0.38056567  1
  O  O366  1  0.36666036  0.61677192  0.86970189  1
  O  O367  1  0.87803062  0.10875422  0.38077671  1
  O  O368  1  0.88157981  0.12749639  0.85711751  1
  O  O369  1  0.87509099  0.61663932  0.37368462  1
  O  O370  1  0.86857238  0.62093037  0.87049576  1
  O  O371  1  0.12870716  0.37458524  0.13151771  1
  O  O372  1  0.13017415  0.38769495  0.62186628  1
  O  O373  1  0.13898392  0.89231326  0.07821557  1
  O  O374  1  0.12867837  0.87774047  0.63266565  1
  O  O375  1  0.62169238  0.39628237  0.12170066  1
  O  O376  1  0.63037927  0.38623840  0.62938376  1
  O  O377  1  0.62409354  0.88200670  0.13831188  1
  O  O378  1  0.63677265  0.88056289  0.62188009  1
  O  O379  1  0.12980894  0.26050131  0.25704411  1
  O  O380  1  0.11335606  0.24510716  0.75277412  1
  O  O381  1  0.11959973  0.73739756  0.26725701  1
  O  O382  1  0.12446803  0.76292236  0.75315563  1
  O  O383  1  0.61328594  0.24314460  0.25897083  1
  O  O384  1  0.62568970  0.26909833  0.73285854  1
  O  O385  1  0.62202995  0.76124062  0.25675788  1
  O  O386  1  0.61432885  0.75067654  0.75606161  1
  O  O387  1  0.38248212  0.23603273  0.25727296  1
  O  O388  1  0.36889194  0.23756074  0.73841870  1
  O  O389  1  0.38372793  0.75749668  0.25661058  1
  O  O390  1  0.37890816  0.74643084  0.74427068  1
  O  O391  1  0.88156642  0.25713684  0.24642159  1
  O  O392  1  0.88443140  0.24129357  0.74212512  1
  O  O393  1  0.88439620  0.75477376  0.24336456  1
  O  O394  1  0.87232978  0.73712194  0.75476516  1
  O  O395  1  0.37802100  0.49881259  0.49039677  1
  O  O396  1  0.37284608  0.49098606  0.98788455  1
  O  O397  1  0.37982745  0.99788114  0.49277355  1
  O  O398  1  0.37589731  1.00049296  0.99284654  1
  O  O399  1  0.87348353  0.49824105  0.48761646  1
  O  O400  1  0.88153310  0.49651762  0.99488584  1
  O  O401  1  0.88405908  0.99354014  0.49614184  1
  O  O402  1  0.88302434  0.98766584  1.00668785  1
  O  O403  1  0.11618326  0.01943184  -0.01215171  1
  O  O404  1  0.11873147  0.00210642  0.50233252  1
  O  O405  1  0.11880836  0.51031726  0.00024832  1
  O  O406  1  0.12530222  0.50907408  0.50856327  1
  O  O407  1  0.61471835  -0.00755508  0.02114365  1
  O  O408  1  0.62340326  0.00413527  0.50751306  1
  O  O409  1  0.62232385  0.51692227  0.01547250  1
  O  O410  1  0.62538516  0.50730893  0.50864932  1
  O  O411  1  0.37367957  0.37894409  0.10772286  1
  O  O412  1  0.36887400  0.36590717  0.62641338  1
  O  O413  1  0.38185040  0.87702336  0.13028228  1
  O  O414  1  0.37094634  0.86947865  0.61762426  1
  O  O415  1  0.88238659  0.36058265  0.11689876  1
  O  O416  1  0.86969323  0.36900695  0.62519220  1
  O  O417  1  0.87617313  0.86480894  0.11785683  1
  O  O418  1  0.86379220  0.87522570  0.61314244  1
  O  O419  1  0.11790684  0.13469949  0.38424363  1
  O  O420  1  0.11901356  0.13898586  0.87931413  1
  O  O421  1  0.13216415  0.62493321  0.38345464  1
  O  O422  1  0.13165615  0.62536782  0.88166460  1
  O  O423  1  0.63087273  0.13546861  0.38485467  1
  O  O424  1  0.62832129  0.12802698  0.86598436  1
  O  O425  1  0.62608290  0.63633873  0.38059081  1
  O  O426  1  0.62729642  0.63071151  0.88547628  1
