# generated using pymatgen
data_V85Zn86O256
_symmetry_space_group_name_H-M   'P 1'
_cell_length_a   16.96022913
_cell_length_b   16.96867911
_cell_length_c   16.95736375
_cell_angle_alpha   90.00956482
_cell_angle_beta   89.91373234
_cell_angle_gamma   90.01340757
_symmetry_Int_Tables_number   1
_chemical_formula_structural   V85Zn86O256
_chemical_formula_sum   'V85 Zn86 O256'
_cell_volume   4880.19952125
_cell_formula_units_Z   1
loop_
 _symmetry_equiv_pos_site_id
 _symmetry_equiv_pos_as_xyz
  1  'x, y, z'
loop_
 _atom_site_type_symbol
 _atom_site_label
 _atom_site_symmetry_multiplicity
 _atom_site_fract_x
 _atom_site_fract_y
 _atom_site_fract_z
 _atom_site_occupancy
  V  V0  1  0.63420860  0.87448491  0.74713272  1
  V  V1  1  0.63123102  0.50179390  0.62507932  1
  V  V2  1  0.12406323  0.62795833  0.00069467  1
  V  V3  1  0.50178529  0.49185135  0.49758139  1
  V  V4  1  0.50177659  0.12507047  0.62896360  1
  V  V5  1  0.49737958  0.87350369  0.37527161  1
  V  V6  1  0.24750132  0.75170723  0.50038577  1
  V  V7  1  0.12230916  0.49035096  0.13033133  1
  V  V8  1  0.13100511  0.87504871  0.25260692  1
  V  V9  1  0.37355829  0.49692308  0.87447469  1
  V  V10  1  0.24529924  0.11801479  0.87348056  1
  V  V11  1  0.62028285  0.50883197  0.12892936  1
  V  V12  1  0.62567841  0.87762486  0.24729347  1
  V  V13  1  0.50187012  0.62383428  0.62341540  1
  V  V14  1  0.49925957  -0.00113455  0.50212567  1
  V  V15  1  -0.00265652  0.49076093  0.50230291  1
  V  V16  1  0.62899923  0.74918140  0.37436724  1
  V  V17  1  0.62823445  0.74348316  0.87422853  1
  V  V18  1  0.75238239  0.37754116  0.12490820  1
  V  V19  1  0.50158219  0.87643401  0.87417480  1
  V  V20  1  0.50018108  0.24854282  0.75231113  1
  V  V21  1  0.87745205  0.48719821  0.37863381  1
  V  V22  1  0.86914047  0.87887251  0.50740901  1
  V  V23  1  0.24840891  0.62171708  0.37711996  1
  V  V24  1  -0.00394157  0.26836759  0.25531920  1
  V  V25  1  0.50129991  0.74975561  0.74977694  1
  V  V26  1  0.87057030  0.61818815  0.76137487  1
  V  V27  1  0.49881673  0.00770834  0.00157176  1
  V  V28  1  0.37316179  -0.00023418  0.86960565  1
  V  V29  1  0.00606271  0.85937512  0.86840987  1
  V  V30  1  0.62009219  0.00525150  0.12598575  1
  V  V31  1  0.24748316  0.24843251  0.00248489  1
  V  V32  1  0.74872953  0.49829635  0.25136586  1
  V  V33  1  0.37593450  0.75001209  0.62295028  1
  V  V34  1  -0.00025830  0.62519476  0.12783779  1
  V  V35  1  0.12038313  0.61962161  0.50837492  1
  V  V36  1  -0.00416660  0.49327732  0.00146230  1
  V  V37  1  0.81363448  0.20157711  0.06620815  1
  V  V38  1  0.37252197  0.62080670  0.75049701  1
  V  V39  1  0.00559065  0.00149265  0.49977334  1
  V  V40  1  0.11296206  0.12136178  0.00229450  1
  V  V41  1  0.87555786  0.74983035  0.12709890  1
  V  V42  1  0.37865141  0.74552731  0.12196362  1
  V  V43  1  0.49878795  0.74599794  0.24650124  1
  V  V44  1  0.75225594  0.62930971  0.37752612  1
  V  V45  1  0.36366138  0.12324483  0.74951519  1
  V  V46  1  0.74768755  0.87529024  0.12392604  1
  V  V47  1  0.37394380  0.87435859  -0.00164387  1
  V  V48  1  0.25479612  0.01358154  0.25145609  1
  V  V49  1  0.00961508  0.25323151  0.74775303  1
  V  V50  1  0.74972176  0.74410578  -0.00367605  1
  V  V51  1  0.49529777  0.50957871  0.00826227  1
  V  V52  1  0.36497500  0.25489274  0.62117892  1
  V  V53  1  0.37702891  0.62197669  0.24626965  1
  V  V54  1  0.63593807  -0.00248027  0.62597604  1
  V  V55  1  0.75447601  0.11679910  0.36691961  1
  V  V56  1  0.37498044  0.37240327  0.00542220  1
  V  V57  1  0.24660501  0.74977909  -0.00505336  1
  V  V58  1  0.88324595  0.87496694  -0.00356920  1
  V  V59  1  0.23352440  0.38424818  0.62666613  1
  V  V60  1  0.87358173  0.12713388  0.74813104  1
  V  V61  1  0.12139093  0.25072296  0.87417259  1
  V  V62  1  0.61901011  0.25570112  0.37757519  1
  V  V63  1  0.13400226  0.00850233  0.63382691  1
  V  V64  1  0.11993440  0.00050983  0.12262658  1
  V  V65  1  0.00229289  0.75077455  0.25241197  1
  V  V66  1  0.61145926  0.37517777  0.25072005  1
  V  V67  1  0.62774246  0.37429266  0.75071303  1
  V  V68  1  0.06091792  0.42786828  0.81795428  1
  V  V69  1  0.62665875  0.12664420  0.50080012  1
  V  V70  1  0.37630457  0.23403328  0.12819632  1
  V  V71  1  0.87455923  0.74948719  0.63407214  1
  V  V72  1  0.24427618  0.49148079  0.25275718  1
  V  V73  1  0.87570112  0.25900564  0.62103626  1
  V  V74  1  0.63376653  0.24833316  0.88232488  1
  V  V75  1  0.75527482  0.25642551  0.49722191  1
  V  V76  1  0.37844667  0.49142182  0.37610954  1
  V  V77  1  0.87561795  0.63027639  0.25392851  1
  V  V78  1  0.00142892  0.12607147  0.61777660  1
  V  V79  1  0.12816285  0.85696171  0.74849505  1
  V  V80  1  0.12966677  0.25742732  0.37967190  1
  V  V81  1  0.88584399  -0.00032747  0.87302692  1
  V  V82  1  0.49299038  0.23175590  0.25215620  1
  V  V83  1  0.87177512  0.37787246  -0.00888568  1
  V  V84  1  -0.00038306  0.88116769  0.37808320  1
  Zn  Zn85  1  0.37288515  0.37035250  0.49778306  1
  Zn  Zn86  1  -0.00102792  0.62699709  0.62653931  1
  Zn  Zn87  1  0.25019930  0.87442935  0.12510305  1
  Zn  Zn88  1  0.62486118  0.62684283  0.50019938  1
  Zn  Zn89  1  0.75529348  -0.00226986  0.75021585  1
  Zn  Zn90  1  0.23624611  0.49662536  0.75095143  1
  Zn  Zn91  1  0.37929947  0.00992223  0.36585416  1
  Zn  Zn92  1  0.25163672  0.87748268  0.62892463  1
  Zn  Zn93  1  0.90751159  0.05480322  0.30352930  1
  Zn  Zn94  1  0.63368215  0.61449280  -0.00791724  1
  Zn  Zn95  1  0.62056892  0.13201257  0.00514574  1
  Zn  Zn96  1  0.75205231  0.12236120  0.87996309  1
  Zn  Zn97  1  0.25405616  0.13386324  0.39331850  1
  Zn  Zn98  1  0.24642779  0.36811613  0.13159790  1
  Zn  Zn99  1  0.37254441  0.87425963  0.49854110  1
  Zn  Zn100  1  0.75289991  0.37959541  0.62244490  1
  Zn  Zn101  1  0.24557946  0.62666920  0.87260106  1
  Zn  Zn102  1  0.49931889  0.37277742  0.87866321  1
  Zn  Zn103  1  0.74575346  0.50434000  0.77265574  1
  Zn  Zn104  1  0.74763274  0.75656330  0.50560356  1
  Zn  Zn105  1  -0.00782424  0.12666058  0.13961168  1
  Zn  Zn106  1  0.12407527  0.74915595  0.37770634  1
  Zn  Zn107  1  0.17803016  0.19275723  0.19176314  1
  Zn  Zn108  1  0.18446683  0.19012964  0.55846008  1
  Zn  Zn109  1  0.18992692  0.68541331  0.18539635  1
  Zn  Zn110  1  0.19111406  0.68295658  0.68428837  1
  Zn  Zn111  1  0.67948685  0.18422921  0.19571089  1
  Zn  Zn112  1  0.69049743  0.18820561  0.68737945  1
  Zn  Zn113  1  0.68950805  0.68800549  0.18822690  1
  Zn  Zn114  1  0.69483387  0.68824262  0.68632513  1
  Zn  Zn115  1  0.31292902  0.30842312  0.31397847  1
  Zn  Zn116  1  0.30649158  0.31250915  0.80913007  1
  Zn  Zn117  1  0.31354507  0.81137685  0.31390412  1
  Zn  Zn118  1  0.31054621  0.81106700  0.81184914  1
  Zn  Zn119  1  0.80896053  0.30651885  0.30795533  1
  Zn  Zn120  1  0.81157099  0.31228745  0.80900167  1
  Zn  Zn121  1  0.83178576  0.86101053  0.29622600  1
  Zn  Zn122  1  0.81292671  0.81070399  0.81184594  1
  Zn  Zn123  1  0.18639396  0.43114535  0.44411680  1
  Zn  Zn124  1  0.19317130  0.44186006  0.94644966  1
  Zn  Zn125  1  0.18713946  0.94265651  0.43961907  1
  Zn  Zn126  1  0.18407485  0.93632396  0.93539299  1
  Zn  Zn127  1  0.68827552  0.43719096  0.43662780  1
  Zn  Zn128  1  0.68209815  0.42839287  0.94461852  1
  Zn  Zn129  1  0.68437327  0.93723890  0.43726890  1
  Zn  Zn130  1  0.69046130  0.93757531  0.93618202  1
  Zn  Zn131  1  0.30463739  0.05917162  0.06013222  1
  Zn  Zn132  1  0.31863460  0.05865213  0.56683675  1
  Zn  Zn133  1  0.30845542  0.56198673  0.06555109  1
  Zn  Zn134  1  0.31055216  0.55754535  0.56305036  1
  Zn  Zn135  1  0.81426881  0.04138574  0.06375923  1
  Zn  Zn136  1  0.81634202  0.06784112  0.55592193  1
  Zn  Zn137  1  0.81246542  0.56164223  -0.06157686  1
  Zn  Zn138  1  0.81386839  0.56809964  0.56074828  1
  Zn  Zn139  1  0.43352507  0.43357883  0.18676505  1
  Zn  Zn140  1  0.44182171  0.43606493  0.68796716  1
  Zn  Zn141  1  0.43621099  0.93509607  0.18449475  1
  Zn  Zn142  1  0.44113275  0.93704649  0.68784515  1
  Zn  Zn143  1  0.93144507  0.43705590  0.18764290  1
  Zn  Zn144  1  0.93151634  0.44637946  0.68348650  1
  Zn  Zn145  1  0.94497978  0.93560912  0.18209099  1
  Zn  Zn146  1  0.94240571  0.93683897  0.68721759  1
  Zn  Zn147  1  0.07777135  0.07466823  0.31574781  1
  Zn  Zn148  1  0.06074702  0.06273671  0.80718668  1
  Zn  Zn149  1  0.06200622  0.55922103  0.31812899  1
  Zn  Zn150  1  0.05500165  0.59691669  0.81599671  1
  Zn  Zn151  1  0.56774942  0.06094972  0.31643263  1
  Zn  Zn152  1  0.56496605  0.06424632  0.81493365  1
  Zn  Zn153  1  0.56021514  0.56315513  0.31390653  1
  Zn  Zn154  1  0.55973573  0.55901390  0.81335871  1
  Zn  Zn155  1  0.43458778  0.18366190  0.43710326  1
  Zn  Zn156  1  0.43558384  0.18781514  0.93647957  1
  Zn  Zn157  1  0.43787382  0.68228558  0.43709005  1
  Zn  Zn158  1  0.43808108  0.68601125  0.93527930  1
  Zn  Zn159  1  0.94059208  0.19335697  0.43277371  1
  Zn  Zn160  1  0.94217314  0.18754434  0.93160479  1
  Zn  Zn161  1  0.93699048  0.69407888  0.44090216  1
  Zn  Zn162  1  0.94188318  0.69046951  0.94084831  1
  Zn  Zn163  1  0.05435239  0.30779373  0.06843685  1
  Zn  Zn164  1  0.05756341  0.31817024  0.55750789  1
  Zn  Zn165  1  0.06330267  0.81517557  0.06273108  1
  Zn  Zn166  1  0.06098466  0.81167729  0.56649484  1
  Zn  Zn167  1  0.55793649  0.31364289  0.06792331  1
  Zn  Zn168  1  0.56165736  0.31373227  0.56539992  1
  Zn  Zn169  1  0.56027033  0.81143118  0.05903042  1
  Zn  Zn170  1  0.56463537  0.81348655  0.56258528  1
  O  O171  1  0.12671491  0.11713270  0.11639863  1
  O  O172  1  0.11682997  0.11547302  0.62716227  1
  O  O173  1  0.11942998  0.61591428  0.11850640  1
  O  O174  1  0.12293113  0.62441548  0.61215357  1
  O  O175  1  0.62992240  0.10957028  0.12341676  1
  O  O176  1  0.62019998  0.11921905  0.62162231  1
  O  O177  1  0.62897883  0.61117157  0.12541033  1
  O  O178  1  0.62075805  0.61869559  0.62535367  1
  O  O179  1  0.37115294  0.38799053  0.37736238  1
  O  O180  1  0.37472562  0.38004721  0.88243191  1
  O  O181  1  0.38868018  0.87588410  0.37513691  1
  O  O182  1  0.38017846  0.88052457  0.87645777  1
  O  O183  1  0.86375836  0.39034796  0.37307153  1
  O  O184  1  0.86493856  0.36996005  0.89154358  1
  O  O185  1  0.89226683  0.87065866  0.39321550  1
  O  O186  1  0.88774165  0.87663803  0.87603884  1
  O  O187  1  0.25073855  -0.00324948  0.35918439  1
  O  O188  1  0.25272932  0.01205399  0.87729828  1
  O  O189  1  0.25436758  0.50553085  0.37142573  1
  O  O190  1  0.26253724  0.50154995  0.87354340  1
  O  O191  1  0.73835214  0.01809391  0.37880675  1
  O  O192  1  0.76606933  0.00131691  0.87385437  1
  O  O193  1  0.75721813  0.50926388  0.37227326  1
  O  O194  1  0.73130942  0.50836690  0.88525239  1
  O  O195  1  0.23986005  0.49905019  0.13537226  1
  O  O196  1  0.24938455  0.49011991  0.63241147  1
  O  O197  1  0.24181180  0.99544664  0.13505281  1
  O  O198  1  0.23677347  0.99593404  0.62574629  1
  O  O199  1  0.73640583  0.48936469  0.13771374  1
  O  O200  1  0.73792001  0.50067327  0.62002980  1
  O  O201  1  0.73743863  0.98207788  0.12053782  1
  O  O202  1  0.73826104  1.00734641  0.62419477  1
  O  O203  1  -0.00069473  0.36852178  0.24762569  1
  O  O204  1  -0.00200486  0.37543429  0.75320081  1
  O  O205  1  0.01370949  0.87120746  0.25816857  1
  O  O206  1  0.01022709  0.87455040  0.76033004  1
  O  O207  1  0.50950783  0.37171889  0.24956310  1
  O  O208  1  0.51101678  0.36689592  0.75264042  1
  O  O209  1  0.50649788  0.86727177  0.25571978  1
  O  O210  1  0.50953118  0.86809165  0.75534447  1
  O  O211  1  0.50254457  0.13362640  0.25219816  1
  O  O212  1  0.49427154  0.13192600  0.74788812  1
  O  O213  1  0.48476909  0.63009229  0.25641822  1
  O  O214  1  0.49256673  0.63044200  0.74381771  1
  O  O215  1  0.99187178  0.11335548  0.25469074  1
  O  O216  1  0.99228431  0.13433515  0.74040809  1
  O  O217  1  0.99637300  0.63226225  0.24950753  1
  O  O218  1  0.97887524  0.62446822  0.74294514  1
  O  O219  1  0.37107872  0.25566350  0.00644100  1
  O  O220  1  0.38827526  0.25261183  0.51926272  1
  O  O221  1  0.37158702  0.75199180  0.00580857  1
  O  O222  1  0.36952201  0.74880773  0.50762299  1
  O  O223  1  0.87749901  0.25457005  0.00477815  1
  O  O224  1  0.86729041  0.24606409  0.50838622  1
  O  O225  1  0.86942460  0.75799973  0.00398995  1
  O  O226  1  0.87057692  0.76277309  0.50793562  1
  O  O227  1  0.11585259  0.24991743  0.49052736  1
  O  O228  1  0.12751364  0.24450408  0.99335714  1
  O  O229  1  0.13302082  0.74254973  0.50014402  1
  O  O230  1  0.13525621  0.74117657  1.01110973  1
  O  O231  1  0.62684440  0.24715811  0.49346249  1
  O  O232  1  0.61281035  0.24914025  0.98921194  1
  O  O233  1  0.62816783  0.75022428  0.49033854  1
  O  O234  1  0.63181162  0.74855125  0.99168851  1
  O  O235  1  0.49216146  0.25041827  0.14145824  1
  O  O236  1  0.49772429  0.24483605  0.63784455  1
  O  O237  1  0.48691853  0.75248260  0.12833597  1
  O  O238  1  0.49437161  0.74455256  0.62914863  1
  O  O239  1  1.00885994  0.24226687  0.14810844  1
  O  O240  1  0.99492998  0.24595780  0.62947526  1
  O  O241  1  0.99679532  0.74679871  0.13267519  1
  O  O242  1  0.98073892  0.74637039  0.61663209  1
  O  O243  1  0.01184204  0.24727439  0.36591042  1
  O  O244  1  0.01305041  0.25060507  0.86798195  1
  O  O245  1  0.00368747  0.75886795  0.36792500  1
  O  O246  1  0.00292259  0.76034603  0.87240425  1
  O  O247  1  0.50587151  0.24751814  0.36387557  1
  O  O248  1  0.50406323  0.24840514  0.86311670  1
  O  O249  1  0.50818215  0.75469418  0.37085133  1
  O  O250  1  0.50523056  0.75717371  0.86915254  1
  O  O251  1  0.25235876  0.12080674  0.50728530  1
  O  O252  1  0.24121535  0.13170957  0.99012777  1
  O  O253  1  0.24385454  0.62784727  0.49417916  1
  O  O254  1  0.24105487  0.63050444  1.00130882  1
  O  O255  1  0.74293216  0.13618763  0.49511956  1
  O  O256  1  0.75752749  0.13569436  1.00736550  1
  O  O257  1  0.74720140  0.62976613  0.48677153  1
  O  O258  1  0.75124475  0.64033631  1.00264320  1
  O  O259  1  0.26049514  0.36756565  0.00306219  1
  O  O260  1  0.25783206  0.38279078  0.52008458  1
  O  O261  1  0.25474167  0.86705302  -0.00030292  1
  O  O262  1  0.25196105  0.86556796  0.50300897  1
  O  O263  1  0.75539103  0.37325331  0.01404836  1
  O  O264  1  0.74377716  0.36058609  0.50218517  1
  O  O265  1  0.75736466  0.86558570  0.00537151  1
  O  O266  1  0.76638754  0.87970557  0.49390851  1
  O  O267  1  0.13261155  0.50714862  0.24303827  1
  O  O268  1  0.11439054  0.49742387  0.76599427  1
  O  O269  1  0.13647736  0.99257620  0.24412222  1
  O  O270  1  0.12086411  0.99488938  0.73559411  1
  O  O271  1  0.62627231  0.49293448  0.24827085  1
  O  O272  1  0.62441267  0.49247077  0.74303029  1
  O  O273  1  0.61577004  0.98785269  0.24059041  1
  O  O274  1  0.62695912  0.99311429  0.74334508  1
  O  O275  1  0.35840474  -0.00842577  0.24668602  1
  O  O276  1  0.38242862  0.01064404  0.75636208  1
  O  O277  1  0.36948540  0.50595259  0.25618396  1
  O  O278  1  0.38100456  0.50884216  0.75753513  1
  O  O279  1  0.86594034  -0.03517978  0.25425885  1
  O  O280  1  0.87639142  0.00807545  0.75323306  1
  O  O281  1  0.86915786  0.50805963  0.26174165  1
  O  O282  1  0.86583132  0.51276481  0.75097803  1
  O  O283  1  0.12703179  0.35985364  0.38081485  1
  O  O284  1  0.12725410  0.37117774  0.87587363  1
  O  O285  1  0.11722869  0.87347735  0.37039964  1
  O  O286  1  0.11497757  0.87872818  0.86208192  1
  O  O287  1  0.62984205  0.36298445  0.36678862  1
  O  O288  1  0.61995624  0.36441353  0.86860437  1
  O  O289  1  0.61711535  0.86941240  0.36706756  1
  O  O290  1  0.61940892  0.86797694  0.86811781  1
  O  O291  1  0.37112348  0.13548683  0.11569465  1
  O  O292  1  0.38131749  0.13515420  0.63432268  1
  O  O293  1  0.37034464  0.63069633  0.13562536  1
  O  O294  1  0.37874355  0.63234291  0.63115432  1
  O  O295  1  0.86907010  0.13116613  0.11619799  1
  O  O296  1  0.88225731  0.13419295  0.63114304  1
  O  O297  1  0.88424058  0.63593755  0.13778931  1
  O  O298  1  0.87373245  0.63591366  0.63180236  1
  O  O299  1  0.25480284  0.24945452  0.12137934  1
  O  O300  1  0.26184532  0.25987576  0.62555283  1
  O  O301  1  0.26196318  0.74972573  0.11597535  1
  O  O302  1  0.25859480  0.74878419  0.61451845  1
  O  O303  1  0.74993617  0.25357232  0.12964569  1
  O  O304  1  0.75894075  0.25033049  0.61700913  1
  O  O305  1  0.75319097  0.75858646  0.11826589  1
  O  O306  1  0.76589295  0.75118049  0.62119283  1
  O  O307  1  0.23789979  0.25169540  0.37298523  1
  O  O308  1  0.23806746  0.24218783  0.87790024  1
  O  O309  1  0.25221944  0.74144138  0.38672976  1
  O  O310  1  0.25795790  0.74538150  0.89079484  1
  O  O311  1  0.74105397  0.24285172  0.38140165  1
  O  O312  1  0.73700194  0.24557910  0.87026035  1
  O  O313  1  0.73609228  0.74565226  0.37258606  1
  O  O314  1  0.73966824  0.75758493  0.88356482  1
  O  O315  1  0.01119867  0.12982036  0.00457398  1
  O  O316  1  -0.00771192  0.11735831  0.51138985  1
  O  O317  1  0.00513272  0.61822939  0.00704301  1
  O  O318  1  0.00822476  0.62074862  0.49621139  1
  O  O319  1  0.49835588  0.11061275  -0.00470987  1
  O  O320  1  0.50745054  0.11646651  0.50690511  1
  O  O321  1  0.50018182  0.61174122  -0.00116696  1
  O  O322  1  0.50255136  0.61592040  0.50779670  1
  O  O323  1  0.49723370  0.38853885  0.50497344  1
  O  O324  1  0.48681206  0.38176747  1.00052326  1
  O  O325  1  0.50142081  0.88077916  0.49112785  1
  O  O326  1  0.49306447  0.88103285  0.99120408  1
  O  O327  1  0.99271300  0.39197007  0.50057546  1
  O  O328  1  0.98759923  0.38216337  1.00892565  1
  O  O329  1  0.99646146  0.88127996  0.49524694  1
  O  O330  1  0.99485101  0.86866377  0.98500266  1
  O  O331  1  0.49027475  0.50637918  0.38498337  1
  O  O332  1  0.48819265  0.49646492  0.88437057  1
  O  O333  1  0.50107569  0.99141550  0.38339957  1
  O  O334  1  0.49580548  0.99379920  0.88093462  1
  O  O335  1  0.98357175  0.50361293  0.38120821  1
  O  O336  1  1.00926910  0.49062113  0.88074066  1
  O  O337  1  1.00499422  0.99501970  0.38503685  1
  O  O338  1  0.99018872  0.99224019  0.86964318  1
  O  O339  1  0.01497375  0.00325730  0.12437948  1
  O  O340  1  0.00792296  0.00938304  0.62192433  1
  O  O341  1  0.00391189  0.50538995  0.11991963  1
  O  O342  1  -0.00989077  0.50737187  0.60625019  1
  O  O343  1  0.50808440  -0.00964099  0.11360048  1
  O  O344  1  0.50910066  0.00554202  0.62004689  1
  O  O345  1  0.50579850  0.49492692  0.11993501  1
  O  O346  1  0.51049660  0.50480169  0.61980161  1
  O  O347  1  0.25542229  0.38902159  0.24957558  1
  O  O348  1  0.25335005  0.37938569  0.73420494  1
  O  O349  1  0.23855879  0.87171399  0.25031432  1
  O  O350  1  0.23370195  0.86947620  0.74974991  1
  O  O351  1  0.73921611  0.37736999  0.24464758  1
  O  O352  1  0.73778587  0.37850831  0.74791563  1
  O  O353  1  0.73233452  0.86330588  0.23914485  1
  O  O354  1  0.73786885  0.87753938  0.75323874  1
  O  O355  1  0.24775191  0.11257163  0.24657508  1
  O  O356  1  0.26256926  0.12997202  0.75955925  1
  O  O357  1  0.25806177  0.61816437  0.25818481  1
  O  O358  1  0.25774142  0.61865153  0.75225880  1
  O  O359  1  0.74862350  0.12880896  0.26719989  1
  O  O360  1  0.76506432  0.12440919  0.75033254  1
  O  O361  1  0.75470860  0.62089345  0.25972867  1
  O  O362  1  0.76455716  0.62417944  0.75077098  1
  O  O363  1  0.36750178  0.12107921  0.37733194  1
  O  O364  1  0.36569820  0.12053585  0.87024736  1
  O  O365  1  0.36414024  0.61682257  0.36991345  1
  O  O366  1  0.37428670  0.61670697  0.86615390  1
  O  O367  1  0.85943993  0.12194384  0.38422365  1
  O  O368  1  0.87676744  0.11763366  0.86756462  1
  O  O369  1  0.86639868  0.62774386  0.37061493  1
  O  O370  1  0.87828240  0.62858967  0.86695675  1
  O  O371  1  0.12672927  0.38783223  0.11797181  1
  O  O372  1  0.13503632  0.37304994  0.62434419  1
  O  O373  1  0.12656098  0.88220670  0.13381714  1
  O  O374  1  0.12310524  0.88101824  0.63864094  1
  O  O375  1  0.63023694  0.37990978  0.13384007  1
  O  O376  1  0.62630523  0.38308030  0.63390987  1
  O  O377  1  0.62933043  0.87736194  0.12940703  1
  O  O378  1  0.61990006  0.88467459  0.63489970  1
  O  O379  1  0.11278299  0.24799080  0.26492904  1
  O  O380  1  0.11071315  0.25151333  0.75721073  1
  O  O381  1  0.12048341  0.75606804  0.25025028  1
  O  O382  1  0.12417578  0.75755835  0.74384592  1
  O  O383  1  0.61144136  0.25493677  0.25645518  1
  O  O384  1  0.61911664  0.25502527  0.75540090  1
  O  O385  1  0.61656361  0.75358877  0.25447789  1
  O  O386  1  0.62256967  0.75600869  0.75442763  1
  O  O387  1  0.38673886  0.25222855  0.24446616  1
  O  O388  1  0.38171292  0.24397787  0.74357562  1
  O  O389  1  0.37749083  0.74216416  0.24280545  1
  O  O390  1  0.37857380  0.73932200  0.74453738  1
  O  O391  1  0.89459971  0.25162893  0.26123876  1
  O  O392  1  0.88453309  0.24467905  0.74540649  1
  O  O393  1  0.88364139  0.75620625  0.24544192  1
  O  O394  1  0.87133299  0.74354008  0.74036579  1
  O  O395  1  0.38364636  0.50135531  0.49224823  1
  O  O396  1  0.37693070  0.49341511  0.99698088  1
  O  O397  1  0.39127118  0.99242263  0.50621234  1
  O  O398  1  0.37925264  0.99392082  0.99273424  1
  O  O399  1  0.88174517  0.50786108  0.48616812  1
  O  O400  1  0.88855219  0.49528849  0.99678986  1
  O  O401  1  0.88869181  0.98758149  0.51203958  1
  O  O402  1  0.87684574  0.98286804  0.99049518  1
  O  O403  1  0.13314143  0.00907545  0.00946226  1
  O  O404  1  0.11280480  -0.00914219  0.51689719  1
  O  O405  1  0.11555312  0.50566603  0.00858689  1
  O  O406  1  0.10670989  0.50685285  0.48896963  1
  O  O407  1  0.61612802  -0.00056167  0.00631877  1
  O  O408  1  0.61662979  0.00208404  0.50807518  1
  O  O409  1  0.61193912  0.49748737  0.01248360  1
  O  O410  1  0.61876431  0.50175532  0.50562184  1
  O  O411  1  0.37040406  0.36527752  0.11768347  1
  O  O412  1  0.37793800  0.36097879  0.62856778  1
  O  O413  1  0.37199991  0.86484163  0.11576576  1
  O  O414  1  0.37486550  0.86062819  0.62778733  1
  O  O415  1  0.85930056  0.38070911  0.11802795  1
  O  O416  1  0.87166758  0.36272414  0.63176216  1
  O  O417  1  0.86956737  0.86965041  0.11331952  1
  O  O418  1  0.88056951  0.86694456  0.61633687  1
  O  O419  1  0.13805735  0.13930091  0.38109737  1
  O  O420  1  0.12816292  0.13030861  0.87873137  1
  O  O421  1  0.13769898  0.62646191  0.38055951  1
  O  O422  1  0.12784626  0.62487792  0.89376231  1
  O  O423  1  0.62998920  0.13616925  0.38173237  1
  O  O424  1  0.63137415  0.13089153  0.88199394  1
  O  O425  1  0.63177504  0.63312606  0.37384639  1
  O  O426  1  0.61504879  0.63999524  0.87481280  1
