# generated using pymatgen
data_V85Zn86O256
_symmetry_space_group_name_H-M   'P 1'
_cell_length_a   16.97300916
_cell_length_b   16.97902033
_cell_length_c   16.96836986
_cell_angle_alpha   89.96895368
_cell_angle_beta   90.10307859
_cell_angle_gamma   90.05701076
_symmetry_Int_Tables_number   1
_chemical_formula_structural   V85Zn86O256
_chemical_formula_sum   'V85 Zn86 O256'
_cell_volume   4890.01976973
_cell_formula_units_Z   1
loop_
 _symmetry_equiv_pos_site_id
 _symmetry_equiv_pos_as_xyz
  1  'x, y, z'
loop_
 _atom_site_type_symbol
 _atom_site_label
 _atom_site_symmetry_multiplicity
 _atom_site_fract_x
 _atom_site_fract_y
 _atom_site_fract_z
 _atom_site_occupancy
  V  V0  1  0.37161567  0.37649086  0.00002329  1
  V  V1  1  0.86901290  0.86927845  0.50475053  1
  V  V2  1  -0.00381105  0.24216113  0.25045442  1
  V  V3  1  0.11917846  0.37266209  0.24491596  1
  V  V4  1  0.86569043  0.37449115  0.50113377  1
  V  V5  1  0.51487863  0.75087578  0.24980427  1
  V  V6  1  -0.00666612  0.63614341  0.62272478  1
  V  V7  1  0.50647407  0.25265569  0.75650205  1
  V  V8  1  0.63521084  0.74607199  0.38332985  1
  V  V9  1  0.37949724  0.87799220  0.49895119  1
  V  V10  1  0.24910180  0.50009171  0.74998412  1
  V  V11  1  0.37567575  0.87334846  0.00002062  1
  V  V12  1  0.75001743  -0.00547299  0.75035906  1
  V  V13  1  0.74983985  -0.01713985  0.24451853  1
  V  V14  1  0.12360939  0.86943993  0.75620716  1
  V  V15  1  0.00214359  0.12571742  0.62141764  1
  V  V16  1  0.75476499  0.75547284  0.01752444  1
  V  V17  1  0.37651564  0.75148081  0.62593723  1
  V  V18  1  0.12482822  0.75232995  0.37441733  1
  V  V19  1  0.87001024  0.61565804  0.74685565  1
  V  V20  1  0.63790845  0.37985022  0.74966877  1
  V  V21  1  0.24955438  0.62665872  0.37558042  1
  V  V22  1  0.24993605  0.87609118  0.62591180  1
  V  V23  1  0.51279052  0.37765374  0.87709899  1
  V  V24  1  0.74900428  0.13035957  0.87888133  1
  V  V25  1  0.87316608  0.00514509  0.37014686  1
  V  V26  1  0.50056325  0.50488759  0.00718892  1
  V  V27  1  0.26156339  0.00583273  0.24716277  1
  V  V28  1  -0.00288893  0.74794822  0.75981350  1
  V  V29  1  0.25275004  0.12479025  0.87698231  1
  V  V30  1  -0.00404483  0.12644374  0.12273777  1
  V  V31  1  0.12508061  0.37556372  0.74907459  1
  V  V32  1  0.49281656  0.49635480  0.50791231  1
  V  V33  1  0.81734797  0.18351004  0.19013067  1
  V  V34  1  0.00154217  0.00367712  0.49648420  1
  V  V35  1  -0.00627969  0.74736452  0.23699254  1
  V  V36  1  0.63028766  0.13943206  0.00235946  1
  V  V37  1  0.88065321  0.87345919  0.01454379  1
  V  V38  1  0.12122945  0.12175105  -0.00066272  1
  V  V39  1  0.75473424  0.61039596  0.87282881  1
  V  V40  1  0.25020328  -0.00055123  0.75111507  1
  V  V41  1  0.87246245  0.35737539  0.00501002  1
  V  V42  1  0.37319202  0.50230017  0.87498311  1
  V  V43  1  0.64613146  0.50039161  0.62726544  1
  V  V44  1  0.12170894  0.00134326  0.11990276  1
  V  V45  1  -0.00495486  0.37829240  0.87635128  1
  V  V46  1  0.25175089  0.87542127  0.12415774  1
  V  V47  1  0.12419696  0.24890425  0.87355341  1
  V  V48  1  0.37789354  0.12593471  0.75546909  1
  V  V49  1  -0.00723612  0.51004950  -0.00201929  1
  V  V50  1  0.63630950  0.74863711  0.87466767  1
  V  V51  1  0.62396580  0.37328410  0.25718987  1
  V  V52  1  0.50073596  0.74664946  0.75258817  1
  V  V53  1  0.23756731  0.74676361  -0.00198764  1
  V  V54  1  0.24106712  0.24299014  0.50219236  1
  V  V55  1  0.37264871  0.25199156  0.62506726  1
  V  V56  1  0.50357923  0.87280761  0.87653799  1
  V  V57  1  0.86677815  0.25223815  0.62193120  1
  V  V58  1  -0.00009306  0.25084524  0.74768044  1
  V  V59  1  0.12366017  0.50236578  0.62248946  1
  V  V60  1  0.24821874  0.25081584  0.00187777  1
  V  V61  1  0.24509510  0.12308095  0.37593519  1
  V  V62  1  0.74556220  0.13186213  0.39275206  1
  V  V63  1  0.25096993  0.75255385  0.50011085  1
  V  V64  1  -0.00672634  0.37548924  0.37503325  1
  V  V65  1  0.24311638  0.50150907  0.25037870  1
  V  V66  1  0.23579595  0.62847046  0.87822878  1
  V  V67  1  0.12674408  0.87790042  0.25149858  1
  V  V68  1  0.76957997  0.60574894  0.38033771  1
  V  V69  1  0.88284419  -0.00798769  0.87676625  1
  V  V70  1  0.87639513  0.12285584  0.75025858  1
  V  V71  1  0.37658704  0.62493091  0.24960794  1
  V  V72  1  0.11998816  0.51404660  0.11752320  1
  V  V73  1  0.62818684  -0.01825046  0.12284011  1
  V  V74  1  -0.01019715  0.50117315  0.49745637  1
  V  V75  1  0.12561843  0.00425987  0.62057292  1
  V  V76  1  0.37457824  0.49250209  0.37840619  1
  V  V77  1  0.37622516  0.74883335  0.12621357  1
  V  V78  1  0.37265347  0.62616168  0.75216471  1
  V  V79  1  0.50374489  0.12331552  0.62170465  1
  V  V80  1  0.25142548  0.37667811  0.61494829  1
  V  V81  1  0.37796213  0.00083770  0.87743624  1
  V  V82  1  0.12475756  0.62627812  0.49958940  1
  V  V83  1  0.50645614  0.87399129  0.37178471  1
  V  V84  1  0.62878052  0.00079234  0.61715455  1
  Zn  Zn85  1  0.38000010  0.00228637  0.37290593  1
  Zn  Zn86  1  0.65156478  0.50500352  0.14734869  1
  Zn  Zn87  1  0.50778699  -0.00220688  -0.00134270  1
  Zn  Zn88  1  0.69827834  0.31755624  0.56883665  1
  Zn  Zn89  1  0.50639046  0.00266616  0.49605453  1
  Zn  Zn90  1  0.86126098  0.61258571  0.23336541  1
  Zn  Zn91  1  0.74840314  0.86147446  0.62240006  1
  Zn  Zn92  1  0.50225045  0.62516906  0.62409394  1
  Zn  Zn93  1  0.63066793  0.62348446  0.00414286  1
  Zn  Zn94  1  -0.00186719  0.87789405  0.37481865  1
  Zn  Zn95  1  0.62769999  0.87399204  0.74808119  1
  Zn  Zn96  1  0.49831643  0.12249450  0.12516627  1
  Zn  Zn97  1  0.49203427  0.36654496  0.36770536  1
  Zn  Zn98  1  0.40752091  0.15200914  0.26041966  1
  Zn  Zn99  1  0.62089242  0.24875167  0.39064080  1
  Zn  Zn100  1  0.62870888  0.62644102  0.50371906  1
  Zn  Zn101  1  0.12043303  0.24488958  0.37970270  1
  Zn  Zn102  1  0.37984785  0.24844041  0.12987240  1
  Zn  Zn103  1  0.00406269  0.87254993  0.88205227  1
  Zn  Zn104  1  0.51042440  0.62310233  0.13060498  1
  Zn  Zn105  1  0.24758222  0.37483120  0.12614753  1
  Zn  Zn106  1  0.75099630  0.36647543  0.13142717  1
  Zn  Zn107  1  0.18776944  0.18824301  0.18806941  1
  Zn  Zn108  1  0.18728810  0.18544826  0.68866087  1
  Zn  Zn109  1  0.18579246  0.68916737  0.18781061  1
  Zn  Zn110  1  0.18514036  0.68897300  0.68882937  1
  Zn  Zn111  1  0.63772956  0.17261574  0.21076358  1
  Zn  Zn112  1  0.68492461  0.18302818  0.69407105  1
  Zn  Zn113  1  0.71201255  0.67243732  0.17903155  1
  Zn  Zn114  1  0.68600384  0.68305004  0.69136789  1
  Zn  Zn115  1  0.30605532  0.31183732  0.31247351  1
  Zn  Zn116  1  0.31472296  0.31427622  0.81362003  1
  Zn  Zn117  1  0.31652000  0.81430897  0.31165998  1
  Zn  Zn118  1  0.31107747  0.81145512  0.81562512  1
  Zn  Zn119  1  0.80362179  0.32033140  0.31706067  1
  Zn  Zn120  1  0.81587729  0.31194994  0.81557620  1
  Zn  Zn121  1  0.81808563  0.81229179  0.31472828  1
  Zn  Zn122  1  0.81999537  0.81026513  0.80619655  1
  Zn  Zn123  1  0.17944265  0.43708544  0.43312086  1
  Zn  Zn124  1  0.18296231  0.43941975  0.93659165  1
  Zn  Zn125  1  0.19014071  0.94090778  0.43722178  1
  Zn  Zn126  1  0.18840670  0.93609877  0.93842070  1
  Zn  Zn127  1  0.67993237  0.44422542  0.43553343  1
  Zn  Zn128  1  0.69879835  0.44212200  0.96664481  1
  Zn  Zn129  1  0.68927504  0.93836617  0.43264323  1
  Zn  Zn130  1  0.69453540  0.93466256  0.93714561  1
  Zn  Zn131  1  0.31846910  0.06529008  0.06574373  1
  Zn  Zn132  1  0.31571303  0.06384263  0.56302568  1
  Zn  Zn133  1  0.30803009  0.56289964  0.06423869  1
  Zn  Zn134  1  0.31417765  0.56535029  0.56395791  1
  Zn  Zn135  1  0.80967792  0.05258526  0.05850241  1
  Zn  Zn136  1  0.81726517  0.05696450  0.56456189  1
  Zn  Zn137  1  0.81360119  0.55687975  0.05766528  1
  Zn  Zn138  1  0.81028311  0.68879389  0.55835839  1
  Zn  Zn139  1  0.43687868  0.43150395  0.19039900  1
  Zn  Zn140  1  0.43820026  0.43482416  0.68881765  1
  Zn  Zn141  1  0.44522025  0.93675159  0.18565843  1
  Zn  Zn142  1  0.44078804  0.93736425  0.68956289  1
  Zn  Zn143  1  0.93231217  0.43403271  0.17897091  1
  Zn  Zn144  1  0.93590408  0.43968280  0.68152134  1
  Zn  Zn145  1  0.94010282  0.94067037  0.19178754  1
  Zn  Zn146  1  0.93866820  0.93512946  0.68655219  1
  Zn  Zn147  1  0.06553034  0.06296300  0.31061687  1
  Zn  Zn148  1  0.06318285  0.06014252  0.80988648  1
  Zn  Zn149  1  0.02055924  0.54425745  0.28839995  1
  Zn  Zn150  1  0.05665511  0.56150059  0.81086531  1
  Zn  Zn151  1  0.56881359  0.05669685  0.31306045  1
  Zn  Zn152  1  0.56692022  0.06232516  0.81287447  1
  Zn  Zn153  1  0.56299474  0.56077424  0.31622366  1
  Zn  Zn154  1  0.56649367  0.56066396  0.81427037  1
  Zn  Zn155  1  0.42521133  0.18485502  0.44033450  1
  Zn  Zn156  1  0.45800400  0.20481610  0.96323387  1
  Zn  Zn157  1  0.44289519  0.68455439  0.43711007  1
  Zn  Zn158  1  0.43352328  0.68740729  0.93788902  1
  Zn  Zn159  1  0.93156104  0.18691573  0.43648615  1
  Zn  Zn160  1  0.93990945  0.18111029  0.93443640  1
  Zn  Zn161  1  0.94298065  0.69013036  0.43046864  1
  Zn  Zn162  1  0.93024123  0.68977821  0.93665857  1
  Zn  Zn163  1  0.05803728  0.31068348  0.06263375  1
  Zn  Zn164  1  0.06003319  0.31364551  0.56235335  1
  Zn  Zn165  1  0.06085115  0.81369065  0.06418602  1
  Zn  Zn166  1  0.06069288  0.81832343  0.56250242  1
  Zn  Zn167  1  0.56352922  0.31422242  0.07350092  1
  Zn  Zn168  1  0.53178344  0.29070370  0.52813237  1
  Zn  Zn169  1  0.56475175  0.80516985  0.06053658  1
  Zn  Zn170  1  0.56532008  0.81469489  0.56377890  1
  O  O171  1  0.11853504  0.11866458  0.11977736  1
  O  O172  1  0.12072588  0.11127756  0.63009324  1
  O  O173  1  0.12715161  0.61226273  0.12490290  1
  O  O174  1  0.12069030  0.62057812  0.61815527  1
  O  O175  1  0.62761075  0.11748879  0.10838904  1
  O  O176  1  0.61376316  0.11504859  0.63425161  1
  O  O177  1  0.62688087  0.61714656  0.12198858  1
  O  O178  1  0.62091581  0.61050923  0.62736579  1
  O  O179  1  0.36894897  0.39063909  0.37366293  1
  O  O180  1  0.37865977  0.38430577  0.88348319  1
  O  O181  1  0.38496054  0.87516101  0.38399822  1
  O  O182  1  0.38258527  0.87874355  0.88083671  1
  O  O183  1  0.88662280  0.36796495  0.38459460  1
  O  O184  1  0.89191766  0.37050654  0.87783567  1
  O  O185  1  0.87683368  0.88728082  0.38432277  1
  O  O186  1  0.88052206  0.87974310  0.87782883  1
  O  O187  1  0.25382548  0.00628631  0.36627516  1
  O  O188  1  0.25675752  0.00450025  0.87040716  1
  O  O189  1  0.25192710  0.50736936  0.37023315  1
  O  O190  1  0.25442705  0.50646102  0.87038113  1
  O  O191  1  0.75352970  0.00782968  0.36138926  1
  O  O192  1  0.76137437  0.00301078  0.86711762  1
  O  O193  1  0.75601720  0.50757620  0.38027953  1
  O  O194  1  0.74677240  0.51332574  0.88470422  1
  O  O195  1  0.23601100  0.49764826  0.13066259  1
  O  O196  1  0.24577425  0.49327994  0.62812749  1
  O  O197  1  0.24350422  0.99587448  0.13086740  1
  O  O198  1  0.24453881  0.99552695  0.62966372  1
  O  O199  1  0.73596333  0.47494859  0.07758806  1
  O  O200  1  0.74057187  0.50552630  0.62338495  1
  O  O201  1  0.74339969  0.99679531  0.13578769  1
  O  O202  1  0.74332525  1.00116842  0.63405913  1
  O  O203  1  0.00042442  0.36137483  0.25481057  1
  O  O204  1  0.00603791  0.37196108  0.75481549  1
  O  O205  1  0.01059116  0.86772161  0.25264206  1
  O  O206  1  0.00702603  0.86519805  0.74843611  1
  O  O207  1  0.51140555  0.37653127  0.25265485  1
  O  O208  1  0.50497377  0.36960768  0.75877415  1
  O  O209  1  0.49386516  0.86303879  0.26054045  1
  O  O210  1  0.49773573  0.86267277  0.76181376  1
  O  O211  1  0.52108532  0.13039302  0.24172552  1
  O  O212  1  0.49636355  0.13348462  0.74818350  1
  O  O213  1  0.49096171  0.63185616  0.25127957  1
  O  O214  1  0.49315514  0.63553335  0.75402854  1
  O  O215  1  1.00316289  0.13581249  0.24540274  1
  O  O216  1  0.99511528  0.12984929  0.74343293  1
  O  O217  1  1.02289678  0.65277070  0.25557055  1
  O  O218  1  0.99667839  0.63230351  0.74171022  1
  O  O219  1  0.35971793  0.26207334  -0.00929680  1
  O  O220  1  0.35911625  0.24613452  0.51921344  1
  O  O221  1  0.36988978  0.75675163  0.00746773  1
  O  O222  1  0.37226111  0.75950106  0.50480022  1
  O  O223  1  0.89096429  0.25974951  -0.00086504  1
  O  O224  1  0.88063756  0.25950889  0.51139934  1
  O  O225  1  0.86482334  0.76016745  0.00135671  1
  O  O226  1  0.88164938  0.76541103  0.49564936  1
  O  O227  1  0.13666516  0.25070855  0.50343141  1
  O  O228  1  0.13056024  0.24461464  0.99288653  1
  O  O229  1  0.13105526  0.75061344  0.49351767  1
  O  O230  1  0.13868024  0.75725409  1.00336457  1
  O  O231  1  0.63362663  0.25315556  0.50672674  1
  O  O232  1  0.62888661  0.23724350  0.99959668  1
  O  O233  1  0.61788536  0.74773895  0.48682072  1
  O  O234  1  0.63742200  0.74761309  0.99154506  1
  O  O235  1  0.48611297  0.23536763  0.08081963  1
  O  O236  1  0.48811614  0.24295718  0.63123588  1
  O  O237  1  0.49501610  0.74604742  0.13266648  1
  O  O238  1  0.49548805  0.74987128  0.63612752  1
  O  O239  1  1.00337342  0.23511705  0.13321782  1
  O  O240  1  0.99622132  0.24343640  0.63038290  1
  O  O241  1  1.00070459  0.75255890  0.13766967  1
  O  O242  1  1.00963155  0.73898494  0.62935294  1
  O  O243  1  0.00077547  0.25271189  0.36862481  1
  O  O244  1  0.00718112  0.25379968  0.86603753  1
  O  O245  1  0.01698060  0.75848630  0.37411943  1
  O  O246  1  0.00079536  0.74901021  0.86352208  1
  O  O247  1  0.50101359  0.26015836  0.41161308  1
  O  O248  1  0.49443619  0.26441098  0.86750080  1
  O  O249  1  0.50565256  0.75548741  0.36759019  1
  O  O250  1  0.50792535  0.75382909  0.87168296  1
  O  O251  1  0.25429796  0.13120363  0.49191835  1
  O  O252  1  0.24435069  0.13190238  0.99518928  1
  O  O253  1  0.24585368  0.63454834  0.49681702  1
  O  O254  1  0.25468537  0.63467796  0.99069662  1
  O  O255  1  0.75376003  0.11700344  0.49050672  1
  O  O256  1  0.74378849  0.11920794  0.98790175  1
  O  O257  1  0.74609275  0.63068022  0.48286776  1
  O  O258  1  0.75278483  0.64166266  0.98323852  1
  O  O259  1  0.25409091  0.36848215  -0.00231565  1
  O  O260  1  0.24319590  0.37028222  0.51154282  1
  O  O261  1  0.25694091  0.86906889  0.00493424  1
  O  O262  1  0.25770108  0.87098633  0.50563097  1
  O  O263  1  0.77356738  0.35652068  -0.01874192  1
  O  O264  1  0.76315194  0.38316660  0.49689672  1
  O  O265  1  0.76346187  0.86026112  -0.00784925  1
  O  O266  1  0.76614951  0.88234825  0.49983667  1
  O  O267  1  0.11844925  0.49245234  0.23588507  1
  O  O268  1  0.12971554  0.49642222  0.74114661  1
  O  O269  1  0.13315156  0.99160963  0.24254916  1
  O  O270  1  0.13185336  0.99339039  0.74181685  1
  O  O271  1  0.62127607  0.48704462  0.25449182  1
  O  O272  1  0.61689925  0.49194134  0.73659677  1
  O  O273  1  0.64046675  1.00116675  0.23613216  1
  O  O274  1  0.63528589  0.99649511  0.74459352  1
  O  O275  1  0.36486355  -0.00610462  0.24911749  1
  O  O276  1  0.36938681  0.00431993  0.75627540  1
  O  O277  1  0.36745760  0.50721578  0.25652246  1
  O  O278  1  0.36779926  0.50565234  0.75506646  1
  O  O279  1  0.86238421  -0.00316499  0.25645565  1
  O  O280  1  0.87006999  0.00453513  0.75353736  1
  O  O281  1  0.91669866  0.51705383  0.24823609  1
  O  O282  1  0.88617423  0.51652930  0.74760277  1
  O  O283  1  0.11354535  0.37024913  0.36296550  1
  O  O284  1  0.11813549  0.36809520  0.86812202  1
  O  O285  1  0.12749944  0.87202884  0.36664111  1
  O  O286  1  0.12178431  0.88471190  0.86072138  1
  O  O287  1  0.61868143  0.37595990  0.37028856  1
  O  O288  1  0.61408368  0.38652106  0.87204918  1
  O  O289  1  0.61334818  0.86573627  0.38060363  1
  O  O290  1  0.61864970  0.86754812  0.87288984  1
  O  O291  1  0.38054539  0.12594473  0.13564808  1
  O  O292  1  0.37835347  0.13024746  0.63888266  1
  O  O293  1  0.37260993  0.62797693  0.13878496  1
  O  O294  1  0.37398377  0.63546409  0.63531958  1
  O  O295  1  0.87715117  0.12335634  0.12462955  1
  O  O296  1  0.88197782  0.13095253  0.63069638  1
  O  O297  1  0.81634290  0.63584628  0.13335518  1
  O  O298  1  0.88545048  0.62863520  0.62890336  1
  O  O299  1  0.24715659  0.25222253  0.11022378  1
  O  O300  1  0.25239120  0.25623781  0.62366135  1
  O  O301  1  0.25595806  0.75626314  0.11970580  1
  O  O302  1  0.25530124  0.75808856  0.62088533  1
  O  O303  1  0.75677187  0.24116272  0.13736399  1
  O  O304  1  0.76361126  0.24682224  0.63639975  1
  O  O305  1  0.73598285  0.76813124  0.11242205  1
  O  O306  1  0.74655270  0.74908052  0.62674749  1
  O  O307  1  0.24692402  0.24314303  0.38677399  1
  O  O308  1  0.24326843  0.24520167  0.88069136  1
  O  O309  1  0.24302490  0.74960026  0.37944938  1
  O  O310  1  0.25360344  0.74097577  0.88523586  1
  O  O311  1  0.75726957  0.23267810  0.37849849  1
  O  O312  1  0.75666110  0.22776256  0.86669407  1
  O  O313  1  0.73363729  0.75977586  0.37370605  1
  O  O314  1  0.73974128  0.75102364  0.86866831  1
  O  O315  1  0.00940361  0.12599180  0.00874978  1
  O  O316  1  -0.00542696  0.11182936  0.50525496  1
  O  O317  1  -0.00882520  0.60925428  -0.00792463  1
  O  O318  1  0.00500531  0.62022651  0.50475328  1
  O  O319  1  0.52559030  0.11360928  -0.01544183  1
  O  O320  1  0.48606247  0.11840504  0.51919512  1
  O  O321  1  0.49604420  0.61386379  0.00154562  1
  O  O322  1  0.50354197  0.61415165  0.50345554  1
  O  O323  1  0.49064980  0.39510623  0.50445147  1
  O  O324  1  0.49128830  0.38676668  0.99367894  1
  O  O325  1  0.49281682  0.87679420  0.49396882  1
  O  O326  1  0.49618910  0.87191154  0.98882407  1
  O  O327  1  0.99820603  0.38107429  0.49206065  1
  O  O328  1  0.99664702  0.37894442  0.99168149  1
  O  O329  1  0.99219049  0.88757495  0.49875851  1
  O  O330  1  0.98585540  0.86896601  0.99814527  1
  O  O331  1  0.48826598  0.50036338  0.38682062  1
  O  O332  1  0.48942187  0.49632951  0.88045573  1
  O  O333  1  0.50018406  0.99051501  0.37653162  1
  O  O334  1  0.49700772  0.98774630  0.87239428  1
  O  O335  1  1.01140015  0.48641391  0.38756334  1
  O  O336  1  1.01213159  0.48939590  0.88840667  1
  O  O337  1  0.99361373  1.00154865  0.37933511  1
  O  O338  1  0.98640973  0.99890755  0.86911892  1
  O  O339  1  0.01001141  0.01458085  0.13539225  1
  O  O340  1  0.00781055  0.00469658  0.61841947  1
  O  O341  1  0.01178370  0.49533126  0.10843786  1
  O  O342  1  0.00806742  0.51028558  0.61699526  1
  O  O343  1  0.51634993  0.00011204  0.12075211  1
  O  O344  1  0.50988769  0.00669643  0.62921438  1
  O  O345  1  0.49145736  0.50208526  0.11071939  1
  O  O346  1  0.48970939  0.50546033  0.61551896  1
  O  O347  1  0.23497497  0.38445398  0.25043677  1
  O  O348  1  0.24329700  0.38097097  0.74403460  1
  O  O349  1  0.24540112  0.88233915  0.24366578  1
  O  O350  1  0.24361215  0.87867482  0.74559123  1
  O  O351  1  0.73687150  0.37863727  0.24880792  1
  O  O352  1  0.73625480  0.37133215  0.76197595  1
  O  O353  1  0.75083268  0.88533260  0.25380273  1
  O  O354  1  0.75349563  0.88591496  0.74730804  1
  O  O355  1  0.24560758  0.11488731  0.25606925  1
  O  O356  1  0.25647016  0.11946597  0.75754260  1
  O  O357  1  0.25430151  0.62089263  0.25599235  1
  O  O358  1  0.25445547  0.62061944  0.75520209  1
  O  O359  1  0.75164061  0.12572338  0.24529071  1
  O  O360  1  0.75538148  0.11308706  0.75957902  1
  O  O361  1  0.75111732  0.63170693  0.27977576  1
  O  O362  1  0.75631559  0.62357612  0.76323501  1
  O  O363  1  0.36486736  0.12097645  0.36767344  1
  O  O364  1  0.37130872  0.11894899  0.87089116  1
  O  O365  1  0.36833590  0.62231543  0.36511187  1
  O  O366  1  0.36714573  0.62014956  0.86753389  1
  O  O367  1  0.86491576  0.11121496  0.37816172  1
  O  O368  1  0.86813053  0.11453895  0.87158541  1
  O  O369  1  0.87156819  0.62128560  0.37817018  1
  O  O370  1  0.86118049  0.62864298  0.86505455  1
  O  O371  1  0.12290828  0.37648297  0.13539367  1
  O  O372  1  0.13100995  0.38182006  0.63043685  1
  O  O373  1  0.12995230  0.88357256  0.13148349  1
  O  O374  1  0.13001371  0.88527934  0.63351053  1
  O  O375  1  0.62774990  0.37402066  0.14000180  1
  O  O376  1  0.63144699  0.38877141  0.63517704  1
  O  O377  1  0.62008843  0.88372245  0.12465112  1
  O  O378  1  0.62768258  0.88493642  0.62966481  1
  O  O379  1  0.11545695  0.25659272  0.25153157  1
  O  O380  1  0.11934698  0.25473345  0.75333738  1
  O  O381  1  0.12903762  0.76539746  0.25604799  1
  O  O382  1  0.11662846  0.76105765  0.74518604  1
  O  O383  1  0.62618365  0.26656995  0.26926606  1
  O  O384  1  0.61140325  0.25963521  0.74380222  1
  O  O385  1  0.61520220  0.74436488  0.25829996  1
  O  O386  1  0.61473146  0.75135057  0.75811594  1
  O  O387  1  0.37087651  0.25777888  0.24275714  1
  O  O388  1  0.38206068  0.24539571  0.74505862  1
  O  O389  1  0.37954998  0.74192135  0.24485892  1
  O  O390  1  0.38115207  0.74618436  0.74758899  1
  O  O391  1  0.87743266  0.24586483  0.25020501  1
  O  O392  1  0.88384102  0.24440158  0.74436280  1
  O  O393  1  0.89230863  0.74677211  0.25842192  1
  O  O394  1  0.88883011  0.73913650  0.74819194  1
  O  O395  1  0.38186029  0.51016482  0.49113162  1
  O  O396  1  0.37834368  0.49624189  0.99414769  1
  O  O397  1  0.37613419  0.98646577  0.50040429  1
  O  O398  1  0.37891935  0.99168344  0.99416934  1
  O  O399  1  0.89073418  0.48875466  0.50641447  1
  O  O400  1  0.89095242  0.48669800  1.00108588  1
  O  O401  1  0.88351711  0.99259994  0.49236294  1
  O  O402  1  0.86848146  0.98205088  0.99036746  1
  O  O403  1  0.12986546  0.00301180  0.01323761  1
  O  O404  1  0.11678939  -0.00669159  0.50955535  1
  O  O405  1  0.11830307  0.49615267  0.01207548  1
  O  O406  1  0.12050675  0.50678718  0.50660566  1
  O  O407  1  0.63291444  -0.00422101  0.01350900  1
  O  O408  1  0.62558651  -0.00416639  0.51323843  1
  O  O409  1  0.60260165  0.50376765  -0.00951435  1
  O  O410  1  0.61314003  0.50049412  0.51520573  1
  O  O411  1  0.36958702  0.37714079  0.10934021  1
  O  O412  1  0.36183784  0.36436343  0.63531369  1
  O  O413  1  0.37155640  0.87076635  0.11870316  1
  O  O414  1  0.37133418  0.87065754  0.61993256  1
  O  O415  1  0.87088429  0.36883747  0.11092243  1
  O  O416  1  0.88214310  0.36414343  0.61531419  1
  O  O417  1  0.87911970  0.88222336  0.11286080  1
  O  O418  1  0.87324300  0.88199234  0.60819160  1
  O  O419  1  0.13956639  0.12548189  0.37311288  1
  O  O420  1  0.13073164  0.12713289  0.87975071  1
  O  O421  1  0.13408464  0.63831734  0.38422781  1
  O  O422  1  0.13748329  0.62124328  0.86785844  1
  O  O423  1  0.64268526  0.12428150  0.37420048  1
  O  O424  1  0.64235918  0.11631960  0.88314986  1
  O  O425  1  0.62525007  0.63869591  0.37843213  1
  O  O426  1  0.63640032  0.63178808  0.87568911  1
