# generated using pymatgen
data_V85Zn86O256
_symmetry_space_group_name_H-M   'P 1'
_cell_length_a   16.96793748
_cell_length_b   16.98278902
_cell_length_c   16.95129433
_cell_angle_alpha   90.06241631
_cell_angle_beta   89.98752472
_cell_angle_gamma   89.93134362
_symmetry_Int_Tables_number   1
_chemical_formula_structural   V85Zn86O256
_chemical_formula_sum   'V85 Zn86 O256'
_cell_volume   4884.72764844
_cell_formula_units_Z   1
loop_
 _symmetry_equiv_pos_site_id
 _symmetry_equiv_pos_as_xyz
  1  'x, y, z'
loop_
 _atom_site_type_symbol
 _atom_site_label
 _atom_site_symmetry_multiplicity
 _atom_site_fract_x
 _atom_site_fract_y
 _atom_site_fract_z
 _atom_site_occupancy
  V  V0  1  0.01093136  0.00234426  0.51260530  1
  V  V1  1  0.12557187  0.37184212  0.25657237  1
  V  V2  1  0.74878924  0.61761965  0.87470221  1
  V  V3  1  0.37419616  0.50056342  0.37809978  1
  V  V4  1  0.75304714  0.86852277  0.12321842  1
  V  V5  1  0.37022871  0.12711070  0.25108405  1
  V  V6  1  0.25295181  0.49761020  0.75150724  1
  V  V7  1  -0.00402052  0.75142335  0.74159921  1
  V  V8  1  -0.00205309  0.00154481  -0.00315893  1
  V  V9  1  0.00304434  0.23936760  0.74474692  1
  V  V10  1  0.62804555  0.62533996  0.50257277  1
  V  V11  1  0.38447095  0.63407684  0.75224026  1
  V  V12  1  0.75067611  0.76298298  0.50006479  1
  V  V13  1  0.49934235  0.25602191  0.25584636  1
  V  V14  1  0.50107257  0.50415379  0.00461965  1
  V  V15  1  0.25417955  -0.00183737  0.74066225  1
  V  V16  1  0.61645182  0.86272400  0.24447010  1
  V  V17  1  0.61464210  0.37324975  0.75748939  1
  V  V18  1  0.12157014  0.50535545  0.62806369  1
  V  V19  1  0.74694582  0.74933528  -0.01098276  1
  V  V20  1  0.12490818  -0.00103237  0.12445444  1
  V  V21  1  0.51414052  0.86207001  0.87223116  1
  V  V22  1  0.12518604  0.13508049  0.50930920  1
  V  V23  1  -0.00442292  0.87562186  0.38062164  1
  V  V24  1  0.86780599  0.76115484  0.62184823  1
  V  V25  1  0.08025333  0.41084117  0.78994284  1
  V  V26  1  -0.00124846  0.62163089  0.11965211  1
  V  V27  1  0.87595198  0.49415108  0.38210183  1
  V  V28  1  0.75325805  -0.00516055  0.25217687  1
  V  V29  1  0.25837707  0.11510143  0.87454185  1
  V  V30  1  0.25578885  0.87560874  0.12551096  1
  V  V31  1  -0.00044380  0.74878677  0.24950878  1
  V  V32  1  0.38311975  0.37102832  -0.00379113  1
  V  V33  1  0.73695424  0.00388658  0.72996853  1
  V  V34  1  0.24916449  0.00107210  0.25876934  1
  V  V35  1  0.24825179  0.50379094  0.25113572  1
  V  V36  1  0.12220151  0.62393014  -0.00017684  1
  V  V37  1  0.87671859  0.62229609  0.24932934  1
  V  V38  1  0.87597495  0.61720289  0.74667264  1
  V  V39  1  -0.00313036  0.50883022  0.50704364  1
  V  V40  1  0.12483492  0.74650760  0.37905692  1
  V  V41  1  0.00174279  0.37208356  0.38770151  1
  V  V42  1  0.00461951  0.24881310  0.25666544  1
  V  V43  1  0.25274531  0.62607242  0.87734985  1
  V  V44  1  0.00224592  0.12525627  0.12686337  1
  V  V45  1  0.25172915  0.75027529  0.00499184  1
  V  V46  1  0.12331142  0.12550765  -0.00198546  1
  V  V47  1  0.12019809  0.49684085  0.12330642  1
  V  V48  1  0.50050854  0.50264876  0.50505306  1
  V  V49  1  0.62851821  0.49785774  0.62875591  1
  V  V50  1  0.37750091  0.87834201  -0.00582427  1
  V  V51  1  0.37623328  0.23839038  0.63921396  1
  V  V52  1  0.87534168  0.87518647  -0.00350318  1
  V  V53  1  0.87575949  0.12306817  0.25450484  1
  V  V54  1  0.63801184  0.12931234  0.00448986  1
  V  V55  1  0.88081704  0.24813707  0.61093653  1
  V  V56  1  0.61479995  0.74322397  0.37029404  1
  V  V57  1  0.87626147  0.74760635  0.12174629  1
  V  V58  1  0.49823728  0.00196925  -0.00654083  1
  V  V59  1  0.25022226  0.25047233  -0.00295419  1
  V  V60  1  0.87558172  -0.00184853  0.38561454  1
  V  V61  1  0.49741736  0.12677953  0.11995266  1
  V  V62  1  0.37059500  0.37870670  0.51108776  1
  V  V63  1  0.12488988  0.87408487  0.25017715  1
  V  V64  1  0.62682616  0.86791752  0.73147637  1
  V  V65  1  0.62758354  0.23750003  0.86386738  1
  V  V66  1  0.12257259  0.75404512  0.87491939  1
  V  V67  1  0.75380650  0.37159397  0.62249732  1
  V  V68  1  0.62565920  0.50556004  0.12284593  1
  V  V69  1  0.75277060  0.62374933  0.37745223  1
  V  V70  1  0.75348535  0.50071626  0.24718141  1
  V  V71  1  0.37370234  0.25319699  0.12138316  1
  V  V72  1  0.86991231  0.12688943  0.74788219  1
  V  V73  1  0.62468651  -0.00224477  0.12497753  1
  V  V74  1  0.38413460  0.49662725  0.87540710  1
  V  V75  1  0.24498533  0.25407905  0.49532820  1
  V  V76  1  0.39020727  0.62694555  0.24500420  1
  V  V77  1  -0.00371362  0.87772112  0.87239747  1
  V  V78  1  0.12307271  0.88134996  0.74028861  1
  V  V79  1  0.72995063  0.25168253  0.49089181  1
  V  V80  1  0.86118303  0.00672302  0.87253718  1
  V  V81  1  0.37907256  0.87588910  0.49360230  1
  V  V82  1  0.75373515  0.36650002  0.12556445  1
  V  V83  1  0.12119529  0.24584395  0.86803852  1
  V  V84  1  0.88121734  0.37791619  -0.01330889  1
  Zn  Zn85  1  0.87757923  0.25094837  0.12456933  1
  Zn  Zn86  1  0.49479258  0.87378244  0.36888813  1
  Zn  Zn87  1  0.37860746  0.75155763  0.62390867  1
  Zn  Zn88  1  0.50965647  0.63337447  0.63709733  1
  Zn  Zn89  1  0.00194095  0.49124910  -0.02977721  1
  Zn  Zn90  1  0.24825841  0.37557433  0.12395663  1
  Zn  Zn91  1  0.23955504  0.37264930  0.63473103  1
  Zn  Zn92  1  0.75424238  0.24960283  -0.00413219  1
  Zn  Zn93  1  0.12524366  0.62798944  0.50941481  1
  Zn  Zn94  1  0.42261423  0.04331175  0.81776965  1
  Zn  Zn95  1  0.63051379  0.37442047  0.25378667  1
  Zn  Zn96  1  0.41362943  0.03090083  0.40716899  1
  Zn  Zn97  1  0.75539309  0.49117414  0.75724030  1
  Zn  Zn98  1  0.50650785  0.37110554  0.38419628  1
  Zn  Zn99  1  0.25084860  0.87375966  0.61923563  1
  Zn  Zn100  1  0.39534239  0.75201309  0.12989165  1
  Zn  Zn101  1  0.56862307  0.06567337  0.54358323  1
  Zn  Zn102  1  0.70213498  0.10103589  0.40773573  1
  Zn  Zn103  1  0.24790127  0.62536314  0.37935694  1
  Zn  Zn104  1  0.24004772  0.13263032  0.37444918  1
  Zn  Zn105  1  0.61728081  0.63219345  -0.00256171  1
  Zn  Zn106  1  0.25000001  0.74781306  0.50800101  1
  Zn  Zn107  1  0.18648960  0.18995438  0.18642326  1
  Zn  Zn108  1  0.19656289  0.18152947  0.68283218  1
  Zn  Zn109  1  0.18773707  0.68571481  0.18896816  1
  Zn  Zn110  1  0.19115946  0.68839129  0.68895436  1
  Zn  Zn111  1  0.67125634  0.17008544  0.21830085  1
  Zn  Zn112  1  0.69052385  0.18683251  0.67872605  1
  Zn  Zn113  1  0.56897661  0.68042515  0.18568836  1
  Zn  Zn114  1  0.69206658  0.68784950  0.68853193  1
  Zn  Zn115  1  0.31428052  0.31838324  0.31567587  1
  Zn  Zn116  1  0.30908062  0.31247015  0.81744220  1
  Zn  Zn117  1  0.31166607  0.80829852  0.31349977  1
  Zn  Zn118  1  0.31171913  0.81744110  0.81578208  1
  Zn  Zn119  1  0.81723915  0.31298640  0.31402054  1
  Zn  Zn120  1  0.80775055  0.30789665  0.80974904  1
  Zn  Zn121  1  0.81180427  0.80973967  0.31398385  1
  Zn  Zn122  1  0.80519020  0.81609336  0.80710821  1
  Zn  Zn123  1  0.18578118  0.43965626  0.44035618  1
  Zn  Zn124  1  0.19331812  0.43731512  0.93930844  1
  Zn  Zn125  1  0.18852639  0.93558068  0.44233982  1
  Zn  Zn126  1  0.18539592  0.93625854  0.93582925  1
  Zn  Zn127  1  0.68749852  0.43229462  0.43846063  1
  Zn  Zn128  1  0.69196345  0.43633120  0.93969896  1
  Zn  Zn129  1  0.67875878  0.93041584  0.43548156  1
  Zn  Zn130  1  0.68582239  0.94142872  0.93708141  1
  Zn  Zn131  1  0.31204122  0.06194895  0.06219850  1
  Zn  Zn132  1  0.40377562  0.05756759  0.57448618  1
  Zn  Zn133  1  0.31190407  0.56051012  0.06479835  1
  Zn  Zn134  1  0.30808018  0.56747581  0.56750362  1
  Zn  Zn135  1  0.81627476  0.06010620  0.06955825  1
  Zn  Zn136  1  0.81260140  0.07023115  0.56258348  1
  Zn  Zn137  1  0.81599621  0.55616381  0.05669873  1
  Zn  Zn138  1  0.81303517  0.56513125  0.56600913  1
  Zn  Zn139  1  0.43619224  0.43984199  0.18367982  1
  Zn  Zn140  1  0.43918105  0.43981889  0.68906741  1
  Zn  Zn141  1  0.44037729  0.94399879  0.19723759  1
  Zn  Zn142  1  0.44610980  0.92419397  0.68005468  1
  Zn  Zn143  1  0.93794199  0.43319103  0.18752924  1
  Zn  Zn144  1  0.93417345  0.43293233  0.68207856  1
  Zn  Zn145  1  0.93881318  0.93672872  0.18879726  1
  Zn  Zn146  1  0.93081021  0.93906317  0.68806386  1
  Zn  Zn147  1  0.06624926  0.06344174  0.32073485  1
  Zn  Zn148  1  0.06189706  0.06252871  0.80901858  1
  Zn  Zn149  1  0.06032744  0.56101671  0.31390782  1
  Zn  Zn150  1  0.06211242  0.57910295  0.80904924  1
  Zn  Zn151  1  0.56861095  0.05132440  0.33268319  1
  Zn  Zn152  1  0.55074254  0.08630722  0.71171033  1
  Zn  Zn153  1  0.56832295  0.54634411  0.32002365  1
  Zn  Zn154  1  0.56661387  0.55929284  0.81805024  1
  Zn  Zn155  1  0.43279505  0.19771396  0.44279405  1
  Zn  Zn156  1  0.46669217  0.17543787  0.89959110  1
  Zn  Zn157  1  0.43442099  0.68471557  0.44127989  1
  Zn  Zn158  1  0.43650499  0.68893945  0.94166747  1
  Zn  Zn159  1  0.94326109  0.18097026  0.43564916  1
  Zn  Zn160  1  0.93454412  0.19049703  0.93495489  1
  Zn  Zn161  1  0.93702577  0.68672684  0.44038112  1
  Zn  Zn162  1  0.93398966  0.68533688  0.93095769  1
  Zn  Zn163  1  0.06027737  0.31169064  0.06308188  1
  Zn  Zn164  1  0.06636980  0.31936210  0.57480000  1
  Zn  Zn165  1  0.06263908  0.81343199  0.06230643  1
  Zn  Zn166  1  0.05741079  0.81374445  0.56181089  1
  Zn  Zn167  1  0.56486621  0.31529882  0.06341206  1
  Zn  Zn168  1  0.55789093  0.30906355  0.57106869  1
  Zn  Zn169  1  0.56412055  0.81217728  0.05823251  1
  Zn  Zn170  1  0.55280059  0.80932154  0.55886346  1
  O  O171  1  0.12004189  0.12011673  0.11815769  1
  O  O172  1  0.12732717  0.12348240  0.60958028  1
  O  O173  1  0.11920491  0.61761459  0.11848687  1
  O  O174  1  0.12449839  0.61168099  0.63214906  1
  O  O175  1  0.61666732  0.11748292  0.12294590  1
  O  O176  1  0.61415398  0.12668235  0.62728443  1
  O  O177  1  0.63309408  0.60932046  0.11718477  1
  O  O178  1  0.62943101  0.61483014  0.62261761  1
  O  O179  1  0.37563004  0.38843314  0.38872224  1
  O  O180  1  0.36947132  0.38370194  0.88603571  1
  O  O181  1  0.37573409  0.86649644  0.38461400  1
  O  O182  1  0.38412597  0.86953209  0.88990592  1
  O  O183  1  0.88743901  0.38705674  0.37088407  1
  O  O184  1  0.86979061  0.36880477  0.88819599  1
  O  O185  1  0.88781232  0.88137390  0.36866766  1
  O  O186  1  0.87846736  0.88366738  0.87666463  1
  O  O187  1  0.24436120  -0.00061016  0.36077911  1
  O  O188  1  0.24788446  0.01177708  0.87692871  1
  O  O189  1  0.25615979  0.50137665  0.36834022  1
  O  O190  1  0.25989215  0.50816201  0.87333201  1
  O  O191  1  0.76057967  -0.00444361  0.36534801  1
  O  O192  1  0.75994711  0.00010972  0.87251586  1
  O  O193  1  0.76057979  0.50153493  0.37114038  1
  O  O194  1  0.75405200  0.51318908  0.87578023  1
  O  O195  1  0.23682364  0.49890563  0.13162123  1
  O  O196  1  0.24142302  0.49963989  0.63663621  1
  O  O197  1  0.24079628  0.99323980  0.12793969  1
  O  O198  1  0.24878639  0.99510587  0.64289247  1
  O  O199  1  0.74934149  0.49373889  0.13186668  1
  O  O200  1  0.74098384  0.49109011  0.62407385  1
  O  O201  1  0.74903458  0.98438883  0.12857848  1
  O  O202  1  0.75136174  1.00077211  0.63135886  1
  O  O203  1  0.00736718  0.36719196  0.25790053  1
  O  O204  1  -0.00333948  0.35982930  0.75139771  1
  O  O205  1  0.00595378  0.86779692  0.25529469  1
  O  O206  1  0.00387591  0.87215574  0.75378600  1
  O  O207  1  0.48767511  0.36171359  0.24985738  1
  O  O208  1  0.51601047  0.37760910  0.74764227  1
  O  O209  1  0.51484105  0.86315619  0.23567004  1
  O  O210  1  0.51583805  0.87938592  0.76353416  1
  O  O211  1  0.48374162  0.14238150  0.23773789  1
  O  O212  1  0.49098471  0.12715494  0.79543487  1
  O  O213  1  0.49309057  0.61616881  0.25327893  1
  O  O214  1  0.48760752  0.61915733  0.75712060  1
  O  O215  1  0.99834961  0.13064147  0.24825662  1
  O  O216  1  0.99129733  0.13309142  0.75040899  1
  O  O217  1  0.99522996  0.63007178  0.24277413  1
  O  O218  1  0.98471026  0.63824751  0.75298026  1
  O  O219  1  0.37049487  0.25816155  0.00454596  1
  O  O220  1  0.36334983  0.26360339  0.50793990  1
  O  O221  1  0.36574742  0.75562427  0.00684702  1
  O  O222  1  0.37101284  0.75772271  0.49930290  1
  O  O223  1  0.87264832  0.25799887  0.00463665  1
  O  O224  1  0.88245105  0.24449994  0.50995773  1
  O  O225  1  0.87138017  0.75585195  0.00317446  1
  O  O226  1  0.86833951  0.74328194  0.51374702  1
  O  O227  1  0.12788678  0.24520540  0.50874805  1
  O  O228  1  0.12996233  0.24560980  0.99264387  1
  O  O229  1  0.12063940  0.74780308  0.49176691  1
  O  O230  1  0.13005167  0.74601352  0.99464157  1
  O  O231  1  0.63017552  0.25475493  0.49691018  1
  O  O232  1  0.63311761  0.24015812  1.00950102  1
  O  O233  1  0.63270511  0.74391464  0.49162212  1
  O  O234  1  0.64436033  0.74773094  1.00226592  1
  O  O235  1  0.48573675  0.24943357  0.12629239  1
  O  O236  1  0.47576247  0.24961665  0.61889369  1
  O  O237  1  0.50569117  0.73682232  0.11362673  1
  O  O238  1  0.49352928  0.74295781  0.62515333  1
  O  O239  1  1.00093356  0.24312314  0.13857070  1
  O  O240  1  0.99171790  0.25407505  0.63351696  1
  O  O241  1  0.99550781  0.74209455  0.12738952  1
  O  O242  1  0.98793974  0.75404456  0.63481055  1
  O  O243  1  -0.00466004  0.25819082  0.36497846  1
  O  O244  1  0.01502887  0.24309973  0.86780062  1
  O  O245  1  0.00399094  0.75658628  0.37171305  1
  O  O246  1  -0.00001196  0.75856410  0.86365301  1
  O  O247  1  0.49003344  0.25431525  0.36000262  1
  O  O248  1  0.53416941  0.26613158  0.89296064  1
  O  O249  1  0.51298898  0.74425421  0.37690200  1
  O  O250  1  0.50184673  0.76394687  0.88341183  1
  O  O251  1  0.23539826  0.13970527  0.49692207  1
  O  O252  1  0.24306671  0.12912335  0.99200675  1
  O  O253  1  0.24399632  0.62922615  0.49728052  1
  O  O254  1  0.24502488  0.63229972  0.99826500  1
  O  O255  1  0.75264089  0.14514541  0.49820455  1
  O  O256  1  0.74093779  0.12399831  1.01179610  1
  O  O257  1  0.74434157  0.62893580  0.49448973  1
  O  O258  1  0.75878308  0.63166948  0.98666618  1
  O  O259  1  0.25884987  0.36659153  0.00213874  1
  O  O260  1  0.25296344  0.37364699  0.50700354  1
  O  O261  1  0.25733159  0.86981035  0.00398241  1
  O  O262  1  0.25606230  0.86661021  0.49965895  1
  O  O263  1  0.76256197  0.37609043  0.01000297  1
  O  O264  1  0.74492740  0.36544667  0.51296492  1
  O  O265  1  0.75681800  0.86933522  0.00238921  1
  O  O266  1  0.74882525  0.86223470  0.49099308  1
  O  O267  1  0.13053661  0.49477847  0.24430868  1
  O  O268  1  0.13337109  0.50390874  0.75020986  1
  O  O269  1  0.12963562  0.99457265  0.24392723  1
  O  O270  1  0.13442363  0.98953703  0.75829688  1
  O  O271  1  0.63785263  0.50103792  0.24020328  1
  O  O272  1  0.62956496  0.49057664  0.74449549  1
  O  O273  1  0.63869668  0.98168844  0.24189584  1
  O  O274  1  0.63616694  0.99648976  0.74744182  1
  O  O275  1  0.35806223  0.01668697  0.23196799  1
  O  O276  1  0.35775782  -0.02062478  0.75367968  1
  O  O277  1  0.36833172  0.50538834  0.25691478  1
  O  O278  1  0.37148117  0.50659668  0.75968793  1
  O  O279  1  0.87258967  0.00251175  0.25804901  1
  O  O280  1  0.86477197  0.00623532  0.75460495  1
  O  O281  1  0.87327196  0.50318795  0.25775680  1
  O  O282  1  0.87500712  0.51369687  0.74248636  1
  O  O283  1  0.11660890  0.38368372  0.36313215  1
  O  O284  1  0.13632077  0.36231632  0.86660444  1
  O  O285  1  0.11435348  0.86836107  0.36864432  1
  O  O286  1  0.11482239  0.86984473  0.87052474  1
  O  O287  1  0.61507583  0.39494507  0.36392823  1
  O  O288  1  0.63363123  0.37808391  0.85842166  1
  O  O289  1  0.62150174  0.85997123  0.36035688  1
  O  O290  1  0.61549308  0.87492572  0.87681120  1
  O  O291  1  0.37678799  0.13596146  0.12655316  1
  O  O292  1  0.35728490  0.13958972  0.63616358  1
  O  O293  1  0.37193001  0.62004196  0.14319581  1
  O  O294  1  0.37626872  0.62136302  0.64612571  1
  O  O295  1  0.88744791  0.12368917  0.13573096  1
  O  O296  1  0.87243980  0.13551867  0.63724252  1
  O  O297  1  0.88110299  0.62679535  0.12748858  1
  O  O298  1  0.86719859  0.63607352  0.64145041  1
  O  O299  1  0.25876126  0.25066012  0.11741690  1
  O  O300  1  0.25589206  0.25765721  0.61750140  1
  O  O301  1  0.24571258  0.75569163  0.11480670  1
  O  O302  1  0.25772392  0.75472859  0.62871878  1
  O  O303  1  0.75168147  0.26392264  0.13297341  1
  O  O304  1  0.75833696  0.25557730  0.61276431  1
  O  O305  1  0.76130795  0.76168665  0.11431609  1
  O  O306  1  0.75973129  0.74860579  0.61519947  1
  O  O307  1  0.25152101  0.25796369  0.39088973  1
  O  O308  1  0.24067779  0.23662924  0.87643817  1
  O  O309  1  0.23206595  0.74708684  0.36999402  1
  O  O310  1  0.24516365  0.74776006  0.88811517  1
  O  O311  1  0.75318385  0.26275826  0.39297517  1
  O  O312  1  0.73239029  0.25786515  0.88124057  1
  O  O313  1  0.74702284  0.74048632  0.38114683  1
  O  O314  1  0.75906477  0.73983716  0.88104522  1
  O  O315  1  0.00368583  0.12103385  0.00539230  1
  O  O316  1  0.01084862  0.11173431  0.49785795  1
  O  O317  1  0.00508664  0.61702000  -0.00200240  1
  O  O318  1  0.00356109  0.61174735  0.49795342  1
  O  O319  1  0.50776168  0.11704042  0.00157524  1
  O  O320  1  0.46980333  0.10225428  0.48528307  1
  O  O321  1  0.50068162  0.60922573  -0.00702960  1
  O  O322  1  0.50714688  0.61314165  0.50194080  1
  O  O323  1  0.49091383  0.38752144  0.50480858  1
  O  O324  1  0.48816332  0.38541171  1.00730528  1
  O  O325  1  0.48663474  0.87620540  0.49014210  1
  O  O326  1  0.49611458  0.88093208  0.99467601  1
  O  O327  1  1.00938183  0.38191777  0.49008741  1
  O  O328  1  0.98714226  0.37386908  1.00121786  1
  O  O329  1  1.00440247  0.88845352  0.49073043  1
  O  O330  1  0.99368891  0.88071578  0.99360570  1
  O  O331  1  0.48852196  0.49972294  0.38760517  1
  O  O332  1  0.48909068  0.49788685  0.88210221  1
  O  O333  1  0.48228155  0.98470050  0.33023600  1
  O  O334  1  0.49523285  0.98417110  0.89088463  1
  O  O335  1  0.99417579  0.49277712  0.38324210  1
  O  O336  1  1.02782010  0.48008477  0.85536309  1
  O  O337  1  0.99396025  0.99106005  0.38022397  1
  O  O338  1  0.99100232  0.99508731  0.87831199  1
  O  O339  1  0.00573196  0.00469618  0.11918130  1
  O  O340  1  -0.00622962  -0.00555253  0.60976473  1
  O  O341  1  0.01195508  0.50438660  0.13058980  1
  O  O342  1  0.00432863  0.49579312  0.61676382  1
  O  O343  1  0.50710175  0.00480179  0.11817351  1
  O  O344  1  0.49352226  0.01563451  0.63331004  1
  O  O345  1  0.51136746  0.49662716  0.11786883  1
  O  O346  1  0.51250206  0.50489031  0.62200591  1
  O  O347  1  0.24309662  0.38604294  0.24977264  1
  O  O348  1  0.25341333  0.39343784  0.75560283  1
  O  O349  1  0.24651122  0.88155160  0.24399225  1
  O  O350  1  0.23764469  0.88366894  0.75735419  1
  O  O351  1  0.75550692  0.38573496  0.24438489  1
  O  O352  1  0.74390949  0.37438500  0.73714216  1
  O  O353  1  0.74984938  0.87758048  0.24039830  1
  O  O354  1  0.73657743  0.89153541  0.75241727  1
  O  O355  1  0.25101800  0.11914085  0.24998945  1
  O  O356  1  0.24449223  0.10832112  0.76327184  1
  O  O357  1  0.25223480  0.61196509  0.25225597  1
  O  O358  1  0.25894174  0.61641551  0.76025690  1
  O  O359  1  0.76609967  0.10322549  0.23308244  1
  O  O360  1  0.75568180  0.11277789  0.74682202  1
  O  O361  1  0.76081912  0.60909912  0.25828195  1
  O  O362  1  0.75792128  0.62131581  0.75956976  1
  O  O363  1  0.36322480  0.12949235  0.35916209  1
  O  O364  1  0.35956642  0.12512847  0.88542718  1
  O  O365  1  0.37306880  0.61477675  0.36485494  1
  O  O366  1  0.37161740  0.61766160  0.87062310  1
  O  O367  1  0.88026406  0.11447814  0.36201788  1
  O  O368  1  0.87809913  0.11807570  0.86233465  1
  O  O369  1  0.87390160  0.61483748  0.36999635  1
  O  O370  1  0.86590003  0.62837067  0.85769629  1
  O  O371  1  0.12459608  0.38155818  0.13544610  1
  O  O372  1  0.12126509  0.39243059  0.64725982  1
  O  O373  1  0.13216833  0.87882198  0.13072029  1
  O  O374  1  0.12510038  0.87006439  0.63805572  1
  O  O375  1  0.63774931  0.38634720  0.12678487  1
  O  O376  1  0.63008409  0.37904387  0.63453926  1
  O  O377  1  0.63694378  0.87602820  0.12648538  1
  O  O378  1  0.61751901  0.87563043  0.63270800  1
  O  O379  1  0.11864962  0.26057082  0.24812811  1
  O  O380  1  0.11770276  0.24131008  0.75413612  1
  O  O381  1  0.11735146  0.75436819  0.25461684  1
  O  O382  1  0.11412270  0.75519760  0.75610268  1
  O  O383  1  0.60081809  0.26084742  0.23453651  1
  O  O384  1  0.62919882  0.25823743  0.75730240  1
  O  O385  1  0.63158275  0.75034772  0.25709907  1
  O  O386  1  0.63702121  0.76938595  0.74683353  1
  O  O387  1  0.37303431  0.24717930  0.24042126  1
  O  O388  1  0.36814091  0.26157200  0.73702475  1
  O  O389  1  0.37122771  0.73027582  0.24846055  1
  O  O390  1  0.37109393  0.73491691  0.75937794  1
  O  O391  1  0.88298760  0.23902803  0.24959366  1
  O  O392  1  0.88062992  0.24150668  0.74634971  1
  O  O393  1  0.88029107  0.74286940  0.24312223  1
  O  O394  1  0.87682028  0.74739084  0.74011935  1
  O  O395  1  0.37968359  0.50046258  0.49728083  1
  O  O396  1  0.37981948  0.49412873  0.99606903  1
  O  O397  1  0.35996067  0.98092236  0.49582266  1
  O  O398  1  0.38494641  0.98976115  1.00966608  1
  O  O399  1  0.88202557  0.50354411  0.49337233  1
  O  O400  1  0.88507052  0.48460457  0.99809462  1
  O  O401  1  0.88321444  1.01033171  0.48835104  1
  O  O402  1  0.87938861  0.99701402  0.99179280  1
  O  O403  1  0.11688152  0.00417450  0.00420312  1
  O  O404  1  0.11509207  0.00586828  0.50092844  1
  O  O405  1  0.12139238  0.50159152  0.00713782  1
  O  O406  1  0.11666876  0.50098233  0.51198054  1
  O  O407  1  0.61923059  0.00715450  0.00666397  1
  O  O408  1  0.62115036  0.02396449  0.45039825  1
  O  O409  1  0.61679675  0.49797567  0.00449444  1
  O  O410  1  0.61821713  0.50345801  0.50937323  1
  O  O411  1  0.36945797  0.36959761  0.11712300  1
  O  O412  1  0.36969089  0.38274203  0.61672758  1
  O  O413  1  0.36914685  0.87115838  0.12058654  1
  O  O414  1  0.37395886  0.87145644  0.60953875  1
  O  O415  1  0.86861009  0.37302027  0.11958254  1
  O  O416  1  0.86473774  0.36147601  0.62790837  1
  O  O417  1  0.87209718  0.87060164  0.11739205  1
  O  O418  1  0.87206604  0.86009449  0.62840714  1
  O  O419  1  0.12586321  0.12399307  0.39328198  1
  O  O420  1  0.13215929  0.12852092  0.88109927  1
  O  O421  1  0.12214333  0.63498697  0.37498302  1
  O  O422  1  0.13214737  0.63484430  0.88168948  1
  O  O423  1  0.63811334  0.13519441  0.32372600  1
  O  O424  1  0.63026344  0.13775024  0.88964434  1
  O  O425  1  0.63296577  0.62599877  0.38040794  1
  O  O426  1  0.64284598  0.62334231  0.87714224  1
