# generated using pymatgen
data_V85Zn86O256
_symmetry_space_group_name_H-M   'P 1'
_cell_length_a   16.92993716
_cell_length_b   16.91502481
_cell_length_c   16.92375296
_cell_angle_alpha   89.96169409
_cell_angle_beta   90.01119901
_cell_angle_gamma   90.02799362
_symmetry_Int_Tables_number   1
_chemical_formula_structural   V85Zn86O256
_chemical_formula_sum   'V85 Zn86 O256'
_cell_volume   4846.45857820
_cell_formula_units_Z   1
loop_
 _symmetry_equiv_pos_site_id
 _symmetry_equiv_pos_as_xyz
  1  'x, y, z'
loop_
 _atom_site_type_symbol
 _atom_site_label
 _atom_site_symmetry_multiplicity
 _atom_site_fract_x
 _atom_site_fract_y
 _atom_site_fract_z
 _atom_site_occupancy
  V  V0  1  0.50071078  -0.00321604  -0.00656746  1
  V  V1  1  0.88008980  0.25118958  0.62433985  1
  V  V2  1  0.12324448  0.00285651  0.11939890  1
  V  V3  1  0.37658484  0.51059443  0.87165400  1
  V  V4  1  0.63364458  0.25476106  0.87306588  1
  V  V5  1  0.23700045  0.62383886  0.87729213  1
  V  V6  1  0.01025618  0.10924743  0.63777072  1
  V  V7  1  0.25111047  -0.00197626  0.24713366  1
  V  V8  1  0.75768479  0.25354138  0.49915628  1
  V  V9  1  0.75332872  0.36275454  0.12266008  1
  V  V10  1  0.87886848  0.50347388  0.87618706  1
  V  V11  1  0.12094167  0.37170888  0.25208050  1
  V  V12  1  0.49795624  0.24983693  0.24476645  1
  V  V13  1  0.62891998  -0.00078443  0.62544978  1
  V  V14  1  0.37557709  0.74936084  0.13040641  1
  V  V15  1  0.87691356  0.87708186  0.49890723  1
  V  V16  1  0.48855434  0.75206524  0.75599045  1
  V  V17  1  0.50372171  0.50578010  -0.00195135  1
  V  V18  1  0.75587043  0.12755974  0.36480979  1
  V  V19  1  0.62834246  0.12412014  0.49827033  1
  V  V20  1  0.74959328  -0.01166545  0.24256205  1
  V  V21  1  0.87732754  0.75164611  0.62395994  1
  V  V22  1  0.00154720  0.00844288  0.49251505  1
  V  V23  1  0.12261586  0.60777048  0.50664498  1
  V  V24  1  0.25637178  0.50988475  0.74352209  1
  V  V25  1  0.00111530  0.75338772  0.74913422  1
  V  V26  1  0.50667702  -0.00856495  0.49477832  1
  V  V27  1  0.62543086  0.13161138  0.00179225  1
  V  V28  1  0.49945387  0.62755280  0.12919439  1
  V  V29  1  -0.04801340  0.56097151  0.05671266  1
  V  V30  1  0.12233808  0.75056734  0.87659618  1
  V  V31  1  0.86904025  0.62653125  0.74742483  1
  V  V32  1  0.87497713  0.50783821  0.38718965  1
  V  V33  1  0.62695463  0.25011416  0.37391374  1
  V  V34  1  0.37654017  0.87206411  -0.00845881  1
  V  V35  1  0.74323265  0.74816005  0.00860594  1
  V  V36  1  0.24881852  0.87240477  0.12033291  1
  V  V37  1  0.12328488  0.87009807  0.24643664  1
  V  V38  1  0.87313940  0.36063673  0.00585965  1
  V  V39  1  0.87412151  0.00488225  0.36561910  1
  V  V40  1  0.37541999  0.12451122  0.24824542  1
  V  V41  1  0.75250063  0.11966658  0.88064113  1
  V  V42  1  0.62309290  0.74611858  0.87607108  1
  V  V43  1  0.50038939  0.13020008  0.62487523  1
  V  V44  1  0.74382982  0.49488803  0.75257135  1
  V  V45  1  0.62121315  0.87513826  0.75551308  1
  V  V46  1  0.25281971  0.12190439  0.87743358  1
  V  V47  1  -0.00676033  0.88374583  0.87874361  1
  V  V48  1  0.24844634  0.49915571  0.24956297  1
  V  V49  1  0.24292368  0.12306610  0.37384448  1
  V  V50  1  0.74739860  0.37360290  0.62830034  1
  V  V51  1  0.50568554  0.37670884  0.86896086  1
  V  V52  1  0.24411366  0.74877682  0.50234943  1
  V  V53  1  0.50016680  0.25258063  0.74715768  1
  V  V54  1  0.50389471  0.50037810  0.50189027  1
  V  V55  1  -0.00522438  0.73128421  0.24304153  1
  V  V56  1  0.13370485  0.25316171  0.88526223  1
  V  V57  1  0.24915035  0.24787529  0.50407994  1
  V  V58  1  0.60888648  0.87173524  0.24624754  1
  V  V59  1  0.75304287  0.87634813  0.62630451  1
  V  V60  1  -0.00011963  0.25275555  0.75517185  1
  V  V61  1  0.49550486  0.62648056  0.63001528  1
  V  V62  1  -0.01652752  0.24952939  0.25108467  1
  V  V63  1  0.00140729  0.37920644  0.88552493  1
  V  V64  1  0.75019750  0.74759965  0.49372714  1
  V  V65  1  -0.00735926  0.37618875  0.39532731  1
  V  V66  1  0.50104272  0.37426182  0.37485231  1
  V  V67  1  0.12504639  0.38125757  0.74716754  1
  V  V68  1  0.37500868  0.49797956  0.37389760  1
  V  V69  1  -0.01279876  0.13136620  0.12751084  1
  V  V70  1  0.86570459  0.88180284  0.00701822  1
  V  V71  1  0.37340234  0.36969729  -0.00331626  1
  V  V72  1  0.62462152  0.50433755  0.12335882  1
  V  V73  1  0.12584854  0.50974414  0.11264914  1
  V  V74  1  0.37399848  -0.00366494  0.86356665  1
  V  V75  1  0.87369390  0.11965543  0.75660791  1
  V  V76  1  0.37802299  0.36708960  0.50766009  1
  V  V77  1  0.25108395  0.37296521  0.62783358  1
  V  V78  1  0.16894385  0.06674030  0.55725035  1
  V  V79  1  0.37576396  0.87088999  0.50185699  1
  V  V80  1  0.62703916  0.37895607  0.24813882  1
  V  V81  1  0.60811338  0.75392267  0.37306975  1
  V  V82  1  0.24807090  0.36786154  0.11939613  1
  V  V83  1  -0.00229780  0.87161182  0.36870206  1
  V  V84  1  0.38177456  -0.00724415  0.37028570  1
  Zn  Zn85  1  0.62708961  -0.00491015  0.11993573  1
  Zn  Zn86  1  0.87401287  0.74275241  0.12647986  1
  Zn  Zn87  1  0.37086749  0.74730034  0.62959748  1
  Zn  Zn88  1  0.74530741  0.62509922  0.87783029  1
  Zn  Zn89  1  0.24541896  0.74282540  0.00043277  1
  Zn  Zn90  1  0.75273234  0.62961146  0.36121630  1
  Zn  Zn91  1  0.24123455  0.88523986  0.62898959  1
  Zn  Zn92  1  0.24824720  0.62303796  0.37685782  1
  Zn  Zn93  1  0.12965756  0.13269219  0.00600755  1
  Zn  Zn94  1  0.37626109  0.62834180  0.25294523  1
  Zn  Zn95  1  0.12101389  0.24655768  0.37804294  1
  Zn  Zn96  1  0.12627476  0.91216920  0.73969735  1
  Zn  Zn97  1  0.62484440  0.49929720  0.62981768  1
  Zn  Zn98  1  0.49842231  0.12244407  0.12218928  1
  Zn  Zn99  1  0.37064957  0.12818391  0.74515070  1
  Zn  Zn100  1  0.75456358  -0.00174871  0.75290469  1
  Zn  Zn101  1  -0.00200615  0.60295356  0.61468377  1
  Zn  Zn102  1  0.76541180  0.50532630  0.24673368  1
  Zn  Zn103  1  0.62594100  0.62514619  0.49854448  1
  Zn  Zn104  1  -0.00633770  0.00540310  0.00058842  1
  Zn  Zn105  1  0.36969258  0.24518646  0.11712576  1
  Zn  Zn106  1  0.12353840  0.74102142  0.37428684  1
  Zn  Zn107  1  0.18409876  0.18846180  0.19003966  1
  Zn  Zn108  1  0.19454466  0.19661235  0.69912741  1
  Zn  Zn109  1  0.18840747  0.68583566  0.18875105  1
  Zn  Zn110  1  0.18331744  0.69203319  0.68516651  1
  Zn  Zn111  1  0.68626239  0.18497104  0.18622693  1
  Zn  Zn112  1  0.68659561  0.18899779  0.69090372  1
  Zn  Zn113  1  0.68379964  0.68796579  0.19053712  1
  Zn  Zn114  1  0.68287789  0.68789134  0.68542441  1
  Zn  Zn115  1  0.31146902  0.31201778  0.31377675  1
  Zn  Zn116  1  0.31643596  0.31207071  0.81385179  1
  Zn  Zn117  1  0.31223216  0.81080952  0.31469892  1
  Zn  Zn118  1  0.29923061  0.81996152  0.80610301  1
  Zn  Zn119  1  0.81413962  0.32313080  0.31424452  1
  Zn  Zn120  1  0.81441263  0.31316461  0.81542367  1
  Zn  Zn121  1  0.81331187  0.81012536  0.30802767  1
  Zn  Zn122  1  0.80991455  0.81492268  0.81645141  1
  Zn  Zn123  1  0.18665654  0.43279727  0.43728349  1
  Zn  Zn124  1  0.19033400  0.44006969  0.93566323  1
  Zn  Zn125  1  0.19088124  0.92854795  0.43112898  1
  Zn  Zn126  1  0.18692500  0.93472570  0.93282308  1
  Zn  Zn127  1  0.69306272  0.43696702  0.43875529  1
  Zn  Zn128  1  0.68967762  0.43672363  0.94060500  1
  Zn  Zn129  1  0.68945580  0.93218399  0.43081705  1
  Zn  Zn130  1  0.68702168  0.93781532  0.93571048  1
  Zn  Zn131  1  0.31279509  0.06198006  0.05688753  1
  Zn  Zn132  1  0.33256497  0.06461665  0.55814763  1
  Zn  Zn133  1  0.31267763  0.56063959  0.05890734  1
  Zn  Zn134  1  0.31341576  0.56139764  0.56144334  1
  Zn  Zn135  1  0.80923580  0.06509732  0.06220675  1
  Zn  Zn136  1  0.81810154  0.06614539  0.56138712  1
  Zn  Zn137  1  0.78957553  0.56438003  0.06389895  1
  Zn  Zn138  1  0.81338825  0.56133753  0.55941721  1
  Zn  Zn139  1  0.43595320  0.43656175  0.18493552  1
  Zn  Zn140  1  0.43792243  0.43714738  0.68799025  1
  Zn  Zn141  1  0.43895440  0.93689092  0.17863256  1
  Zn  Zn142  1  0.44028596  0.93623249  0.68271309  1
  Zn  Zn143  1  0.93592065  0.43517160  0.19526138  1
  Zn  Zn144  1  0.93363528  0.43494066  0.68520452  1
  Zn  Zn145  1  0.93694523  0.93771869  0.18342262  1
  Zn  Zn146  1  0.95778206  0.94715553  0.69311757  1
  Zn  Zn147  1  0.06202654  0.06177431  0.30393226  1
  Zn  Zn148  1  0.06401430  0.06670142  0.81773666  1
  Zn  Zn149  1  0.06349830  0.55430814  0.32028486  1
  Zn  Zn150  1  0.05207323  0.55411029  0.78141249  1
  Zn  Zn151  1  0.56572619  0.06144389  0.31016464  1
  Zn  Zn152  1  0.56323150  0.06369391  0.81343726  1
  Zn  Zn153  1  0.56538318  0.56709972  0.31181291  1
  Zn  Zn154  1  0.56160172  0.56845082  0.81099717  1
  Zn  Zn155  1  0.43735414  0.18391084  0.43460668  1
  Zn  Zn156  1  0.44076231  0.18694976  0.93333481  1
  Zn  Zn157  1  0.43436032  0.68298412  0.44137940  1
  Zn  Zn158  1  0.43695807  0.68917803  0.93859410  1
  Zn  Zn159  1  0.94150719  0.18574124  0.43975240  1
  Zn  Zn160  1  0.94063600  0.18631043  0.93974411  1
  Zn  Zn161  1  0.94305576  0.68611873  0.43816583  1
  Zn  Zn162  1  0.92961318  0.69674066  0.93300861  1
  Zn  Zn163  1  0.05991262  0.31539373  0.06616294  1
  Zn  Zn164  1  0.06950752  0.30353638  0.56787461  1
  Zn  Zn165  1  0.05813798  0.80744105  0.06043077  1
  Zn  Zn166  1  0.06549869  0.81507599  0.56150142  1
  Zn  Zn167  1  0.56196764  0.31477485  0.05936484  1
  Zn  Zn168  1  0.56899225  0.31262493  0.56291805  1
  Zn  Zn169  1  0.55932770  0.81374272  0.06295185  1
  Zn  Zn170  1  0.56376658  0.81025393  0.56603247  1
  O  O171  1  0.12120727  0.11709921  0.12504667  1
  O  O172  1  0.12508084  0.13555791  0.62541926  1
  O  O173  1  0.13024081  0.60857654  0.12585650  1
  O  O174  1  0.12180332  0.62910065  0.61034960  1
  O  O175  1  0.62121106  0.12283956  0.11469937  1
  O  O176  1  0.62144701  0.11948358  0.61814137  1
  O  O177  1  0.61527946  0.61314729  0.12726368  1
  O  O178  1  0.61290910  0.62238804  0.62012235  1
  O  O179  1  0.37972171  0.38188448  0.38355652  1
  O  O180  1  0.38340011  0.38442601  0.88020461  1
  O  O181  1  0.37167848  0.88598899  0.38303968  1
  O  O182  1  0.36623775  0.88241757  0.88362159  1
  O  O183  1  0.88842891  0.37520686  0.38497307  1
  O  O184  1  0.88105857  0.38302194  0.88514788  1
  O  O185  1  0.88221968  0.88107746  0.37754327  1
  O  O186  1  0.88533310  0.87044389  0.88771902  1
  O  O187  1  0.25787278  0.00405643  0.36741482  1
  O  O188  1  0.25770746  0.01172178  0.87847245  1
  O  O189  1  0.25845681  0.49485171  0.36723230  1
  O  O190  1  0.25839651  0.50638032  0.86706707  1
  O  O191  1  0.75678687  0.00747879  0.36813846  1
  O  O192  1  0.74642807  0.01506623  0.87159463  1
  O  O193  1  0.76290090  0.50226581  0.37785523  1
  O  O194  1  0.76030426  0.50075935  0.87151382  1
  O  O195  1  0.24188592  0.49214071  0.13009578  1
  O  O196  1  0.25956262  0.48603591  0.63238788  1
  O  O197  1  0.24410245  0.99381922  0.12920207  1
  O  O198  1  0.24216797  1.01111151  0.60642837  1
  O  O199  1  0.73699128  0.48913200  0.12765631  1
  O  O200  1  0.75209131  0.49101940  0.63250078  1
  O  O201  1  0.74680854  1.00575397  0.13910379  1
  O  O202  1  0.74677808  0.99522569  0.62395826  1
  O  O203  1  0.00692847  0.36533837  0.25538119  1
  O  O204  1  0.00561928  0.36622030  0.76108704  1
  O  O205  1  0.00579033  0.87302821  0.25585766  1
  O  O206  1  -0.01023979  0.86467890  0.76454687  1
  O  O207  1  0.50451727  0.36831444  0.25474412  1
  O  O208  1  0.50055474  0.37164500  0.76123255  1
  O  O209  1  0.51002395  0.88153521  0.25223907  1
  O  O210  1  0.51118310  0.86599412  0.74159839  1
  O  O211  1  0.49509762  0.13266383  0.24892456  1
  O  O212  1  0.50242363  0.13272521  0.74085556  1
  O  O213  1  0.49363726  0.61584366  0.23444688  1
  O  O214  1  0.50119517  0.63742962  0.74241671  1
  O  O215  1  1.00299930  0.13502661  0.23857561  1
  O  O216  1  0.99136085  0.14148726  0.75744843  1
  O  O217  1  1.00556193  0.63394845  0.25615922  1
  O  O218  1  0.98199518  0.64414413  0.75672461  1
  O  O219  1  0.38448419  0.26499492  -0.00121108  1
  O  O220  1  0.36561897  0.25624419  0.49208900  1
  O  O221  1  0.37118449  0.75759866  0.00703024  1
  O  O222  1  0.36898689  0.75761529  0.50021368  1
  O  O223  1  0.87791828  0.26171093  -0.00027556  1
  O  O224  1  0.86905730  0.24048887  0.51202723  1
  O  O225  1  0.86025901  0.75818003  0.00318665  1
  O  O226  1  0.87117240  0.75520068  0.50502984  1
  O  O227  1  0.14345187  0.25232144  0.49547508  1
  O  O228  1  0.12158313  0.25436059  0.98880144  1
  O  O229  1  0.13231459  0.74657249  0.49437279  1
  O  O230  1  0.12522514  0.75512991  0.98251370  1
  O  O231  1  0.63424622  0.24431904  0.49205378  1
  O  O232  1  0.61696254  0.24018558  0.98979983  1
  O  O233  1  0.63223091  0.75373362  0.48847664  1
  O  O234  1  0.63631471  0.76442474  0.99182826  1
  O  O235  1  0.49728856  0.25173349  0.13631562  1
  O  O236  1  0.51129490  0.24260271  0.63292611  1
  O  O237  1  0.49066593  0.73838303  0.11754891  1
  O  O238  1  0.49699590  0.74349157  0.63361617  1
  O  O239  1  1.00446324  0.23915631  0.13428901  1
  O  O240  1  0.99716514  0.24128185  0.63629438  1
  O  O241  1  1.00013662  0.74615212  0.13879861  1
  O  O242  1  0.98691441  0.75351650  0.63123709  1
  O  O243  1  0.00111701  0.25743502  0.37001929  1
  O  O244  1  0.00696467  0.25905210  0.87174025  1
  O  O245  1  0.00052408  0.75756065  0.36352019  1
  O  O246  1  0.00346222  0.75990059  0.86944528  1
  O  O247  1  0.50478588  0.25405951  0.36534829  1
  O  O248  1  0.50956480  0.25905953  0.86917616  1
  O  O249  1  0.50963502  0.74791316  0.38033836  1
  O  O250  1  0.50692563  0.74771338  0.86779711  1
  O  O251  1  0.24633782  0.12606219  0.49602279  1
  O  O252  1  0.24821344  0.12680343  0.98581383  1
  O  O253  1  0.24149962  0.62970388  0.50028080  1
  O  O254  1  0.25168054  0.62342754  0.98333858  1
  O  O255  1  0.74710965  0.13334040  0.49127673  1
  O  O256  1  0.73926355  0.12426632  0.99352336  1
  O  O257  1  0.74749507  0.63935574  0.50156418  1
  O  O258  1  0.74569736  0.64291414  0.99587301  1
  O  O259  1  0.25981488  0.38057378  0.00723708  1
  O  O260  1  0.25822362  0.36780623  0.50627908  1
  O  O261  1  0.25685319  0.87292767  0.00496237  1
  O  O262  1  0.25826211  0.86694376  0.50079954  1
  O  O263  1  0.76123755  0.37884697  0.00957606  1
  O  O264  1  0.74905731  0.35967615  0.50696547  1
  O  O265  1  0.76040799  0.86895887  -0.00461644  1
  O  O266  1  0.75694049  0.86613622  0.50372260  1
  O  O267  1  0.13016109  0.48928140  0.24445717  1
  O  O268  1  0.14356869  0.48464071  0.76280200  1
  O  O269  1  0.12995457  0.99082403  0.23868976  1
  O  O270  1  0.06248395  1.01220130  0.72007345  1
  O  O271  1  0.61826921  0.48748529  0.24323400  1
  O  O272  1  0.63981780  0.50598760  0.75234394  1
  O  O273  1  0.63070012  0.98688984  0.25135984  1
  O  O274  1  0.62568083  0.99280638  0.74354961  1
  O  O275  1  0.37240697  0.00191927  0.25392508  1
  O  O276  1  0.38561671  0.00233499  0.76115487  1
  O  O277  1  0.36652585  0.49534616  0.25782438  1
  O  O278  1  0.36734177  0.49382124  0.75958150  1
  O  O279  1  0.86658928  -0.00775415  0.25826283  1
  O  O280  1  0.87717911  0.01648159  0.74735610  1
  O  O281  1  0.87699837  0.48692230  0.27551969  1
  O  O282  1  0.86346542  0.50858487  0.75864156  1
  O  O283  1  0.11380333  0.37439861  0.36858013  1
  O  O284  1  0.11924301  0.37151734  0.87212453  1
  O  O285  1  0.11749478  0.87368185  0.35969713  1
  O  O286  1  0.11093720  0.87158686  0.86827728  1
  O  O287  1  0.62216691  0.37016520  0.36726973  1
  O  O288  1  0.61790003  0.36756318  0.88135705  1
  O  O289  1  0.62418505  0.86195187  0.36668057  1
  O  O290  1  0.62980924  0.86859845  0.86117467  1
  O  O291  1  0.37522917  0.12680480  0.13215254  1
  O  O292  1  0.39419431  0.12670429  0.62698023  1
  O  O293  1  0.37894107  0.63185133  0.12460848  1
  O  O294  1  0.38975604  0.62619014  0.61866578  1
  O  O295  1  0.88858564  0.12363322  0.12342635  1
  O  O296  1  0.88384917  0.13355687  0.63597735  1
  O  O297  1  0.88479722  0.61584353  0.11194355  1
  O  O298  1  0.87798522  0.63223968  0.63049128  1
  O  O299  1  0.24974710  0.26382478  0.12972204  1
  O  O300  1  0.25323440  0.26091659  0.61950386  1
  O  O301  1  0.25462482  0.75421701  0.12120868  1
  O  O302  1  0.25355335  0.75016558  0.61329258  1
  O  O303  1  0.74555043  0.26333548  0.12920558  1
  O  O304  1  0.75804705  0.25240202  0.61991163  1
  O  O305  1  0.74881235  0.74813620  0.11208897  1
  O  O306  1  0.75924553  0.75587984  0.61888075  1
  O  O307  1  0.25077200  0.23841893  0.38209567  1
  O  O308  1  0.24362166  0.24275096  0.87291877  1
  O  O309  1  0.24895392  0.74583205  0.38625296  1
  O  O310  1  0.23998852  0.74099586  0.87106111  1
  O  O311  1  0.74999327  0.24551173  0.38020579  1
  O  O312  1  0.73865185  0.24404746  0.86995923  1
  O  O313  1  0.74703941  0.74950790  0.38198216  1
  O  O314  1  0.74104687  0.75007135  0.88379703  1
  O  O315  1  0.00538781  0.12491921  0.01307734  1
  O  O316  1  0.00806701  0.11671733  0.50729925  1
  O  O317  1  -0.00134634  0.62438053  -0.00292257  1
  O  O318  1  0.01579009  0.62437502  0.50176506  1
  O  O319  1  0.50856763  0.11855354  -0.00117222  1
  O  O320  1  0.50783314  0.11820521  0.50430256  1
  O  O321  1  0.49320930  0.61135630  0.00803414  1
  O  O322  1  0.50264569  0.61431570  0.50546728  1
  O  O323  1  0.49542683  0.37660719  0.49549624  1
  O  O324  1  0.49492278  0.38563307  0.99012783  1
  O  O325  1  0.49532774  0.88487124  0.50513879  1
  O  O326  1  0.48810457  0.88234288  1.00083222  1
  O  O327  1  1.00690451  0.36533107  0.49272932  1
  O  O328  1  0.99385179  0.37620281  0.99132549  1
  O  O329  1  0.99704963  0.88073232  0.48341322  1
  O  O330  1  0.98909942  0.87468676  0.99205965  1
  O  O331  1  0.49512433  0.49419546  0.38095874  1
  O  O332  1  0.49677332  0.49718105  0.87852709  1
  O  O333  1  0.49356467  1.00644207  0.38354053  1
  O  O334  1  0.49067886  1.00533639  0.88479302  1
  O  O335  1  0.99289886  0.48359834  0.37918702  1
  O  O336  1  0.98693738  0.49293255  0.86632615  1
  O  O337  1  0.99364071  0.99617600  0.37457375  1
  O  O338  1  1.00246197  0.98752227  0.88199482  1
  O  O339  1  0.00644495  0.01258819  0.12653095  1
  O  O340  1  -0.02080645  0.00282613  0.59599146  1
  O  O341  1  0.00865716  0.50043884  0.12373164  1
  O  O342  1  0.01193621  0.51044543  0.67640600  1
  O  O343  1  0.50191823  0.00257594  0.10878356  1
  O  O344  1  0.50914293  0.00745661  0.61440921  1
  O  O345  1  0.50477529  0.50176242  0.11614767  1
  O  O346  1  0.50291100  0.50380567  0.61895952  1
  O  O347  1  0.24372964  0.38217345  0.24464313  1
  O  O348  1  0.24686735  0.37741803  0.74362868  1
  O  O349  1  0.24162483  0.87780571  0.24351243  1
  O  O350  1  0.23905941  0.88955101  0.74507260  1
  O  O351  1  0.74094020  0.37994319  0.24433333  1
  O  O352  1  0.75675503  0.38346836  0.74314637  1
  O  O353  1  0.73942580  0.88329309  0.25673057  1
  O  O354  1  0.74505783  0.87804120  0.74313411  1
  O  O355  1  0.25632160  0.11964492  0.25590488  1
  O  O356  1  0.25456333  0.12825779  0.76697150  1
  O  O357  1  0.25220972  0.61010049  0.25254931  1
  O  O358  1  0.24675046  0.61368497  0.75125515  1
  O  O359  1  0.74251223  0.11711776  0.26175075  1
  O  O360  1  0.75845895  0.12545646  0.75769943  1
  O  O361  1  0.74645973  0.61715372  0.24773336  1
  O  O362  1  0.75796547  0.62153670  0.74905565  1
  O  O363  1  0.36631980  0.11259622  0.36995182  1
  O  O364  1  0.36692042  0.11745720  0.87506918  1
  O  O365  1  0.37316649  0.60982562  0.37441499  1
  O  O366  1  0.36995751  0.61396230  0.87658149  1
  O  O367  1  0.86821937  0.11700315  0.37668841  1
  O  O368  1  0.86496581  0.13421074  0.87003700  1
  O  O369  1  0.87557890  0.61233193  0.38175551  1
  O  O370  1  0.86956903  0.61948385  0.86751172  1
  O  O371  1  0.13003574  0.38230509  0.13218657  1
  O  O372  1  0.13568596  0.36898965  0.63715295  1
  O  O373  1  0.12538764  0.87873980  0.13171634  1
  O  O374  1  0.12531214  0.87776599  0.62877036  1
  O  O375  1  0.62842095  0.38070300  0.13089289  1
  O  O376  1  0.64232849  0.37634819  0.62458667  1
  O  O377  1  0.62075641  0.87459679  0.14097580  1
  O  O378  1  0.63412570  0.87851756  0.63256260  1
  O  O379  1  0.12196018  0.26205205  0.25474447  1
  O  O380  1  0.11873865  0.26115925  0.76281813  1
  O  O381  1  0.11606664  0.75488369  0.25100108  1
  O  O382  1  0.11149562  0.74811890  0.75771780  1
  O  O383  1  0.61811936  0.25913793  0.25377585  1
  O  O384  1  0.61474819  0.24693932  0.76142488  1
  O  O385  1  0.62263101  0.76130423  0.26059016  1
  O  O386  1  0.61859445  0.75721275  0.75673902  1
  O  O387  1  0.38278057  0.24447525  0.25041907  1
  O  O388  1  0.39425673  0.24816510  0.75699764  1
  O  O389  1  0.37000817  0.74957564  0.23588182  1
  O  O390  1  0.38530129  0.76006110  0.75094101  1
  O  O391  1  0.88414236  0.25502394  0.25300408  1
  O  O392  1  0.88313593  0.24604328  0.74645200  1
  O  O393  1  0.88946975  0.75027397  0.24543875  1
  O  O394  1  0.87370341  0.74581182  0.74189132  1
  O  O395  1  0.38563078  0.49024268  0.49380160  1
  O  O396  1  0.38245394  0.49108265  0.99136065  1
  O  O397  1  0.38669766  0.99212108  0.48937369  1
  O  O398  1  0.38108956  0.99205869  0.99095936  1
  O  O399  1  0.87584074  0.49621300  0.48944427  1
  O  O400  1  0.88149071  0.50435294  0.99746657  1
  O  O401  1  0.87860128  0.99681088  0.48278491  1
  O  O402  1  0.87352312  0.98646295  1.00415656  1
  O  O403  1  0.12320497  -0.00249581  0.01269943  1
  O  O404  1  0.11748278  -0.00001960  0.49078538  1
  O  O405  1  0.12618532  0.49600069  0.01360034  1
  O  O406  1  0.13212469  0.50853692  0.50433118  1
  O  O407  1  0.61748981  0.00627436  -0.00222028  1
  O  O408  1  0.62201396  0.00168213  0.50096167  1
  O  O409  1  0.61612326  0.49597314  0.00965610  1
  O  O410  1  0.61322976  0.49715879  0.49974287  1
  O  O411  1  0.36550559  0.37507032  0.11547848  1
  O  O412  1  0.37299376  0.37442159  0.61282132  1
  O  O413  1  0.36922341  0.86779373  0.11580582  1
  O  O414  1  0.36990715  0.87796726  0.61084610  1
  O  O415  1  0.86687283  0.38294615  0.11688435  1
  O  O416  1  0.86872195  0.35936621  0.63032880  1
  O  O417  1  0.88029889  0.86887438  0.10947065  1
  O  O418  1  0.87203067  0.87015268  0.61855353  1
  O  O419  1  0.13876450  0.12313187  0.36697149  1
  O  O420  1  0.13427396  0.13300915  0.87858028  1
  O  O421  1  0.12841765  0.62129981  0.38828161  1
  O  O422  1  0.13181682  0.63094473  0.86290372  1
  O  O423  1  0.63356694  0.13121442  0.37913247  1
  O  O424  1  0.63213481  0.13328555  0.88133467  1
  O  O425  1  0.62686685  0.64005164  0.37651018  1
  O  O426  1  0.62650253  0.64089507  0.87288537  1
