# generated using pymatgen
data_V85Zn86O256
_symmetry_space_group_name_H-M   'P 1'
_cell_length_a   16.93293209
_cell_length_b   16.93056465
_cell_length_c   16.93450755
_cell_angle_alpha   90.01799905
_cell_angle_beta   90.07099264
_cell_angle_gamma   90.03693074
_symmetry_Int_Tables_number   1
_chemical_formula_structural   V85Zn86O256
_chemical_formula_sum   'V85 Zn86 O256'
_cell_volume   4854.84910512
_cell_formula_units_Z   1
loop_
 _symmetry_equiv_pos_site_id
 _symmetry_equiv_pos_as_xyz
  1  'x, y, z'
loop_
 _atom_site_type_symbol
 _atom_site_label
 _atom_site_symmetry_multiplicity
 _atom_site_fract_x
 _atom_site_fract_y
 _atom_site_fract_z
 _atom_site_occupancy
  V  V0  1  -0.00177913  0.61873196  0.12138384  1
  V  V1  1  0.24799447  0.24963543  -0.00123783  1
  V  V2  1  0.25393184  0.62481507  0.37352660  1
  V  V3  1  0.50049372  0.37357688  0.87238405  1
  V  V4  1  0.62797776  0.75600552  0.37030718  1
  V  V5  1  0.62136837  0.86968462  0.74628869  1
  V  V6  1  0.62196924  0.49848666  0.62895468  1
  V  V7  1  -0.00875959  0.87185983  0.87656952  1
  V  V8  1  0.87694765  0.61136604  0.75793140  1
  V  V9  1  0.49279235  0.49779960  0.48327313  1
  V  V10  1  0.13039322  0.12535897  0.50353923  1
  V  V11  1  0.75812437  0.24610544  0.00229408  1
  V  V12  1  -0.00097990  0.87750251  0.37481748  1
  V  V13  1  -0.04707586  0.56324867  0.56727700  1
  V  V14  1  0.75335331  0.36657281  0.12444012  1
  V  V15  1  0.38255008  0.62685652  0.74908576  1
  V  V16  1  0.37424965  0.50008000  0.87338211  1
  V  V17  1  -0.00153385  -0.00798990  0.00538081  1
  V  V18  1  0.12699273  0.25464666  0.37481986  1
  V  V19  1  0.75028999  -0.00188120  0.74797752  1
  V  V20  1  0.24860438  0.12931628  0.37529145  1
  V  V21  1  0.24737402  0.48923272  0.74055166  1
  V  V22  1  0.62358122  0.37121127  0.26139587  1
  V  V23  1  0.87301403  0.00510542  0.37058075  1
  V  V24  1  0.50210495  0.62628123  0.12393227  1
  V  V25  1  0.37339730  0.00091287  0.37423650  1
  V  V26  1  0.63340621  0.62982606  -0.00059065  1
  V  V27  1  0.88343084  0.38621067  -0.00012881  1
  V  V28  1  0.62433592  0.13818719  0.50080276  1
  V  V29  1  0.63639075  0.37501798  0.74924442  1
  V  V30  1  0.12256915  0.88047681  0.24486911  1
  V  V31  1  0.12211190  0.61644941  -0.00150858  1
  V  V32  1  0.25208920  0.62398034  0.87377480  1
  V  V33  1  0.87281230  0.25032148  0.61921125  1
  V  V34  1  -0.00799810  0.25073836  0.24557441  1
  V  V35  1  0.36740158  0.87672894  0.50300061  1
  V  V36  1  0.24627119  0.87857613  0.12312734  1
  V  V37  1  0.48873411  0.13027073  0.62967453  1
  V  V38  1  0.75352805  0.49909936  0.25012429  1
  V  V39  1  0.62465783  0.24865240  0.87517907  1
  V  V40  1  0.37319370  0.12865532  0.24913135  1
  V  V41  1  0.38294163  0.00193344  0.88143713  1
  V  V42  1  0.00160016  0.38365172  0.86917904  1
  V  V43  1  0.12988121  0.87262957  0.74923848  1
  V  V44  1  0.24647278  0.00103443  0.24668611  1
  V  V45  1  0.74358534  0.13146502  0.37379106  1
  V  V46  1  0.19871807  0.30788819  0.56182244  1
  V  V47  1  0.13000683  0.62149655  0.50953008  1
  V  V48  1  0.49890058  0.11910024  0.12075374  1
  V  V49  1  0.75201544  0.62723408  0.37204006  1
  V  V50  1  0.12457541  0.12001368  0.00991416  1
  V  V51  1  0.37391383  0.74846478  0.12623246  1
  V  V52  1  0.25144316  0.74921532  -0.00019052  1
  V  V53  1  0.38252023  0.36027881  0.49948285  1
  V  V54  1  0.62807147  0.49830608  0.12318221  1
  V  V55  1  0.74910319  0.12306595  0.87424338  1
  V  V56  1  0.50346943  0.87877638  0.37257224  1
  V  V57  1  0.37644645  0.75885685  0.63260348  1
  V  V58  1  0.75260136  0.61039958  0.87210307  1
  V  V59  1  0.37642699  0.37476823  -0.00026168  1
  V  V60  1  0.37661425  0.25159440  0.12565847  1
  V  V61  1  0.11380289  0.24810893  0.86685545  1
  V  V62  1  0.63157142  0.74831120  0.87138949  1
  V  V63  1  0.50193804  0.00165874  0.50294200  1
  V  V64  1  0.88296058  0.12895739  0.75305620  1
  V  V65  1  0.62041301  0.62708432  0.49984459  1
  V  V66  1  0.62238336  0.11388534  0.00011306  1
  V  V67  1  0.50297194  0.25356226  0.26024902  1
  V  V68  1  -0.00748664  0.38418460  0.38273867  1
  V  V69  1  -0.00331196  0.74968670  0.24753765  1
  V  V70  1  0.12634381  0.74974300  0.87414452  1
  V  V71  1  -0.00041587  0.74402700  0.74155474  1
  V  V72  1  0.12329663  0.37981854  0.24916979  1
  V  V73  1  0.13031926  -0.00568394  0.62661816  1
  V  V74  1  -0.00155103  0.00270502  0.50313341  1
  V  V75  1  0.50256031  0.75641275  0.24862702  1
  V  V76  1  0.74511357  0.87695862  0.11776605  1
  V  V77  1  0.48761411  0.24973078  0.74758861  1
  V  V78  1  0.24956116  0.37832138  0.12535194  1
  V  V79  1  0.25290825  0.12347392  0.87296919  1
  V  V80  1  0.50343536  0.87133251  0.88076217  1
  V  V81  1  0.87222972  0.75679458  0.10592943  1
  V  V82  1  0.50169676  0.49926056  0.00014495  1
  V  V83  1  0.25893399  -0.00231371  0.74914097  1
  V  V84  1  -0.00871802  0.12264828  0.12582935  1
  Zn  Zn85  1  0.38261442  0.61980958  0.26025732  1
  Zn  Zn86  1  0.00345343  0.12660831  0.63402943  1
  Zn  Zn87  1  0.11955879  0.49747770  0.12125731  1
  Zn  Zn88  1  0.50089472  0.62847435  0.62720819  1
  Zn  Zn89  1  0.87146923  0.87560549  0.50438275  1
  Zn  Zn90  1  0.87484523  0.75280719  0.62386891  1
  Zn  Zn91  1  0.75108427  0.87175819  0.62294142  1
  Zn  Zn92  1  0.24733822  0.75496633  0.50305717  1
  Zn  Zn93  1  0.74939135  0.26163621  0.49511582  1
  Zn  Zn94  1  0.12659607  0.49000950  0.62386696  1
  Zn  Zn95  1  0.61560937  -0.00947422  0.12872125  1
  Zn  Zn96  1  0.87668150  0.62479113  0.24855662  1
  Zn  Zn97  1  0.12430490  0.74932184  0.37791699  1
  Zn  Zn98  1  0.87404620  0.49999382  0.38836344  1
  Zn  Zn99  1  0.25820384  0.49896823  0.25425764  1
  Zn  Zn100  1  0.75285343  0.75602339  0.50054425  1
  Zn  Zn101  1  0.62533422  0.00131704  0.62584466  1
  Zn  Zn102  1  0.75720761  0.38232871  0.61924649  1
  Zn  Zn103  1  0.86621404  0.12850203  0.24511658  1
  Zn  Zn104  1  0.38169851  0.87769637  0.00278375  1
  Zn  Zn105  1  0.73406901  -0.00694921  0.25208641  1
  Zn  Zn106  1  0.87351001  -0.00577994  0.87784241  1
  Zn  Zn107  1  0.18379205  0.19231997  0.18786478  1
  Zn  Zn108  1  0.18783096  0.18073829  0.69337660  1
  Zn  Zn109  1  0.18353918  0.68941783  0.18923742  1
  Zn  Zn110  1  0.19721156  0.68783590  0.68616242  1
  Zn  Zn111  1  0.68402529  0.18433711  0.18867019  1
  Zn  Zn112  1  0.68562693  0.18761362  0.68614396  1
  Zn  Zn113  1  0.69083195  0.69324810  0.18641485  1
  Zn  Zn114  1  0.69097401  0.68751609  0.68851602  1
  Zn  Zn115  1  0.31508798  0.31826972  0.31836971  1
  Zn  Zn116  1  0.30964241  0.31063653  0.81269139  1
  Zn  Zn117  1  0.31206493  0.80810388  0.31444112  1
  Zn  Zn118  1  0.31520816  0.81463565  0.81306843  1
  Zn  Zn119  1  0.81250150  0.31318938  0.31498090  1
  Zn  Zn120  1  0.81740199  0.31133567  0.81604097  1
  Zn  Zn121  1  0.81387538  0.81699406  0.30734254  1
  Zn  Zn122  1  0.81018362  0.80440067  0.80774852  1
  Zn  Zn123  1  0.18802275  0.44476355  0.43561634  1
  Zn  Zn124  1  0.18584901  0.43553911  0.93228262  1
  Zn  Zn125  1  0.18502271  0.93994281  0.43380982  1
  Zn  Zn126  1  0.18533585  0.93776745  0.93777178  1
  Zn  Zn127  1  0.68761116  0.43944959  0.44205308  1
  Zn  Zn128  1  0.68902441  0.43502968  0.93868250  1
  Zn  Zn129  1  0.68716278  0.94222124  0.43834312  1
  Zn  Zn130  1  0.69306591  0.93301744  0.93966447  1
  Zn  Zn131  1  0.31261320  0.06127568  0.06044652  1
  Zn  Zn132  1  0.31152972  0.06435664  0.56345353  1
  Zn  Zn133  1  0.31291494  0.56171397  0.06516584  1
  Zn  Zn134  1  0.31549731  0.56399047  0.56318970  1
  Zn  Zn135  1  0.81369850  0.05521987  0.06104969  1
  Zn  Zn136  1  0.81089665  0.06447893  0.56349137  1
  Zn  Zn137  1  0.81368356  0.56374357  0.06252972  1
  Zn  Zn138  1  0.79152640  0.57060333  0.56894990  1
  Zn  Zn139  1  0.43891460  0.43914317  0.19287398  1
  Zn  Zn140  1  0.43750056  0.43706977  0.68006135  1
  Zn  Zn141  1  0.43543698  0.93811652  0.18798318  1
  Zn  Zn142  1  0.44192324  0.93781945  0.69098206  1
  Zn  Zn143  1  0.93451849  0.43552094  0.18673047  1
  Zn  Zn144  1  0.93760115  0.42723398  0.69750926  1
  Zn  Zn145  1  0.93284884  0.93837827  0.18490119  1
  Zn  Zn146  1  0.93831828  0.93775964  0.68953628  1
  Zn  Zn147  1  0.06142307  0.06407440  0.31159888  1
  Zn  Zn148  1  0.06554542  0.05792589  0.81892743  1
  Zn  Zn149  1  0.06727894  0.56430593  0.31498998  1
  Zn  Zn150  1  0.06561364  0.56023285  0.80809793  1
  Zn  Zn151  1  0.56431665  0.06614934  0.31028756  1
  Zn  Zn152  1  0.56249128  0.06062322  0.80970894  1
  Zn  Zn153  1  0.56741618  0.56539977  0.30875387  1
  Zn  Zn154  1  0.56414114  0.56036936  0.81326272  1
  Zn  Zn155  1  0.43862526  0.18711538  0.43771495  1
  Zn  Zn156  1  0.43735859  0.18646001  0.93615075  1
  Zn  Zn157  1  0.43678206  0.69265055  0.44095144  1
  Zn  Zn158  1  0.44221049  0.69058943  0.93650212  1
  Zn  Zn159  1  0.93982359  0.18722866  0.43556335  1
  Zn  Zn160  1  0.93612727  0.18424695  0.94074511  1
  Zn  Zn161  1  0.93528652  0.69321776  0.43395283  1
  Zn  Zn162  1  0.94103433  0.68288971  0.93229686  1
  Zn  Zn163  1  0.06163604  0.30756828  0.06130102  1
  Zn  Zn164  1  0.03469936  0.31481149  0.56874342  1
  Zn  Zn165  1  0.06297197  0.80775514  0.06164044  1
  Zn  Zn166  1  0.06382230  0.81301485  0.56106894  1
  Zn  Zn167  1  0.56610704  0.30719956  0.06491437  1
  Zn  Zn168  1  0.55805930  0.31647744  0.56305802  1
  Zn  Zn169  1  0.56526819  0.81065597  0.05711798  1
  Zn  Zn170  1  0.55990318  0.81220065  0.56221625  1
  O  O171  1  0.12082901  0.12721449  0.11456833  1
  O  O172  1  0.12380922  0.11575479  0.61998853  1
  O  O173  1  0.11706922  0.62581120  0.11635290  1
  O  O174  1  0.13091580  0.62534853  0.61279922  1
  O  O175  1  0.61430842  0.12541602  0.11555743  1
  O  O176  1  0.61625081  0.12222808  0.61586563  1
  O  O177  1  0.62419475  0.62229039  0.11695563  1
  O  O178  1  0.62244123  0.62129652  0.61632215  1
  O  O179  1  0.36519572  0.37922646  0.39779373  1
  O  O180  1  0.38006545  0.37925272  0.88176276  1
  O  O181  1  0.38421964  0.87920881  0.38121007  1
  O  O182  1  0.38636853  0.88045391  0.87613785  1
  O  O183  1  0.88804794  0.37932230  0.37182623  1
  O  O184  1  0.88927525  0.36908316  0.88708749  1
  O  O185  1  0.88687150  0.88388018  0.37549902  1
  O  O186  1  0.88827989  0.87048649  0.86683492  1
  O  O187  1  0.25375987  0.00803321  0.36700092  1
  O  O188  1  0.25558366  0.00521302  0.86998242  1
  O  O189  1  0.24644265  0.51914620  0.37235418  1
  O  O190  1  0.25595226  0.50496304  0.86785024  1
  O  O191  1  0.75781754  0.00961971  0.37299188  1
  O  O192  1  0.75211582  0.00438095  0.86687994  1
  O  O193  1  0.75172986  0.50943495  0.36768387  1
  O  O194  1  0.74149732  0.51079790  0.87133608  1
  O  O195  1  0.24640666  0.48676147  0.12343971  1
  O  O196  1  0.25105802  0.50293748  0.63720684  1
  O  O197  1  0.25595306  0.98628338  0.12977205  1
  O  O198  1  0.24303228  1.00579465  0.63635510  1
  O  O199  1  0.74660537  0.49216333  0.13083773  1
  O  O200  1  0.72963900  0.49871767  0.62717567  1
  O  O201  1  0.74975105  0.98822641  0.12679649  1
  O  O202  1  0.74727035  1.00033881  0.63801399  1
  O  O203  1  0.00623340  0.36879336  0.25320895  1
  O  O204  1  0.00079522  0.36781142  0.77016021  1
  O  O205  1  0.00509501  0.87253788  0.25382992  1
  O  O206  1  0.01234835  0.86995891  0.75817330  1
  O  O207  1  0.51174187  0.36556860  0.24082329  1
  O  O208  1  0.50305551  0.36725563  0.75447259  1
  O  O209  1  0.49359909  0.86474906  0.25728805  1
  O  O210  1  0.51471142  0.88127776  0.76219720  1
  O  O211  1  0.49123211  0.13412403  0.24154875  1
  O  O212  1  0.50499597  0.13164944  0.73687236  1
  O  O213  1  0.50298705  0.63784663  0.24234913  1
  O  O214  1  0.48625388  0.62053905  0.75213904  1
  O  O215  1  1.00219487  0.13313415  0.24187528  1
  O  O216  1  0.98586647  0.11596689  0.75528231  1
  O  O217  1  1.00236982  0.63408134  0.24276071  1
  O  O218  1  0.99002510  0.63139412  0.75812259  1
  O  O219  1  0.36786961  0.25492666  0.00477213  1
  O  O220  1  0.38220838  0.25957682  0.50295347  1
  O  O221  1  0.36957536  0.75320951  0.00739024  1
  O  O222  1  0.37312294  0.76240615  0.50809399  1
  O  O223  1  0.86168832  0.25441932  -0.00264743  1
  O  O224  1  0.87412610  0.23921047  0.51555495  1
  O  O225  1  0.87992376  0.74761032  0.00815909  1
  O  O226  1  0.87434087  0.75466270  0.50416281  1
  O  O227  1  0.12845627  0.24812093  0.50047098  1
  O  O228  1  0.13177468  0.23938229  0.99467561  1
  O  O229  1  0.12654183  0.73972420  0.49996024  1
  O  O230  1  0.13302956  0.74004572  0.99420578  1
  O  O231  1  0.62265122  0.24104242  0.50246545  1
  O  O232  1  0.63571223  0.24294653  0.99327504  1
  O  O233  1  0.62103780  0.74427166  0.48605545  1
  O  O234  1  0.62361726  0.73563527  0.99153087  1
  O  O235  1  0.49218872  0.24099963  0.12919272  1
  O  O236  1  0.50272678  0.23865882  0.63261533  1
  O  O237  1  0.49491414  0.74929382  0.13060183  1
  O  O238  1  0.48317253  0.74605860  0.61874373  1
  O  O239  1  1.00639686  0.23825338  0.13502784  1
  O  O240  1  0.98221993  0.24066642  0.63109510  1
  O  O241  1  0.99086796  0.74303894  0.12883879  1
  O  O242  1  1.00238685  0.75451121  0.63925979  1
  O  O243  1  0.00939515  0.25889332  0.36947295  1
  O  O244  1  0.01138436  0.25005458  0.88256464  1
  O  O245  1  0.00170244  0.76045092  0.36597107  1
  O  O246  1  0.00831249  0.75465332  0.86620623  1
  O  O247  1  0.49728078  0.24607614  0.35947664  1
  O  O248  1  0.50593373  0.25377954  0.86918137  1
  O  O249  1  0.50473569  0.75848171  0.36754036  1
  O  O250  1  0.51418632  0.75838146  0.87678838  1
  O  O251  1  0.23791324  0.12028911  0.49316955  1
  O  O252  1  0.24250457  0.12736466  0.99317123  1
  O  O253  1  0.24312810  0.62761321  0.49320618  1
  O  O254  1  0.24631566  0.63031420  0.99403794  1
  O  O255  1  0.73823238  0.12490597  0.49397330  1
  O  O256  1  0.74485523  0.12898995  0.99606418  1
  O  O257  1  0.73586163  0.62937049  0.48874664  1
  O  O258  1  0.74241466  0.61899500  0.99046491  1
  O  O259  1  0.25428458  0.36980446  0.00553868  1
  O  O260  1  0.25248911  0.37066785  0.50135515  1
  O  O261  1  0.24843813  0.86788134  0.00833586  1
  O  O262  1  0.26400333  0.88095600  0.49396461  1
  O  O263  1  0.75796846  0.36687698  0.00484855  1
  O  O264  1  0.74973126  0.37441013  0.50494573  1
  O  O265  1  0.75819006  0.87817317  0.01576201  1
  O  O266  1  0.75120716  0.87595416  0.50199299  1
  O  O267  1  0.12802604  0.48835158  0.24661428  1
  O  O268  1  0.14205450  0.50366709  0.74426998  1
  O  O269  1  0.12962503  0.98855610  0.25340002  1
  O  O270  1  0.13285584  0.99267415  0.74556831  1
  O  O271  1  0.63539400  0.49419960  0.24271905  1
  O  O272  1  0.61429960  0.48703594  0.74188851  1
  O  O273  1  0.61959033  0.99973274  0.24229814  1
  O  O274  1  0.63394330  0.99182179  0.74985382  1
  O  O275  1  0.36763737  0.00722533  0.25577858  1
  O  O276  1  0.36342720  -0.00863303  0.75919563  1
  O  O277  1  0.37080490  0.50969480  0.24083908  1
  O  O278  1  0.36876930  0.50653592  0.75397306  1
  O  O279  1  0.87911915  0.00475057  0.26367980  1
  O  O280  1  0.86727206  0.00917463  0.75398701  1
  O  O281  1  0.86157310  0.50179295  0.24897807  1
  O  O282  1  0.88071922  0.51240847  0.74868850  1
  O  O283  1  0.11894677  0.37239219  0.36854297  1
  O  O284  1  0.11359444  0.35814437  0.88656331  1
  O  O285  1  0.11342679  0.87567153  0.36749754  1
  O  O286  1  0.11993455  0.86736695  0.86796663  1
  O  O287  1  0.63009338  0.37982822  0.35967525  1
  O  O288  1  0.61940871  0.36961450  0.86926949  1
  O  O289  1  0.61127725  0.87058070  0.37983097  1
  O  O290  1  0.62294098  0.86693424  0.87207176  1
  O  O291  1  0.37785167  0.13227728  0.12798240  1
  O  O292  1  0.38981000  0.12369674  0.62259296  1
  O  O293  1  0.38154053  0.63821071  0.12149915  1
  O  O294  1  0.37728069  0.63538551  0.63344647  1
  O  O295  1  0.88669399  0.12198689  0.12604755  1
  O  O296  1  0.87546937  0.12867283  0.63843742  1
  O  O297  1  0.88050105  0.63598626  0.12535619  1
  O  O298  1  0.88591599  0.61843484  0.62845903  1
  O  O299  1  0.25451700  0.26027707  0.12046083  1
  O  O300  1  0.24918693  0.24931398  0.62438835  1
  O  O301  1  0.25709324  0.75666550  0.12261524  1
  O  O302  1  0.26920650  0.75052626  0.62075866  1
  O  O303  1  0.74498429  0.25848489  0.11818769  1
  O  O304  1  0.76160493  0.24693632  0.62307510  1
  O  O305  1  0.76514600  0.75741949  0.12603554  1
  O  O306  1  0.75421579  0.75043234  0.62018602  1
  O  O307  1  0.23456779  0.24565452  0.36846307  1
  O  O308  1  0.24267256  0.24174762  0.88000678  1
  O  O309  1  0.24404621  0.74293451  0.38002327  1
  O  O310  1  0.24683520  0.74440628  0.87940766  1
  O  O311  1  0.75553068  0.23616441  0.37715023  1
  O  O312  1  0.74444222  0.24324936  0.88217825  1
  O  O313  1  0.74309004  0.74650391  0.37154426  1
  O  O314  1  0.73788890  0.73837847  0.87139043  1
  O  O315  1  0.00653654  0.11924933  0.00860883  1
  O  O316  1  0.01302893  0.11595700  0.49860116  1
  O  O317  1  0.01042141  0.62930361  0.00717265  1
  O  O318  1  0.00755593  0.62417319  0.50281099  1
  O  O319  1  0.51008915  0.13228191  0.00814578  1
  O  O320  1  0.50415012  0.12057520  0.50865386  1
  O  O321  1  0.50871523  0.61975876  0.00558836  1
  O  O322  1  0.51007805  0.62036646  0.49590662  1
  O  O323  1  0.49364066  0.38662646  0.49624605  1
  O  O324  1  0.49698843  0.37783847  0.99509646  1
  O  O325  1  0.49164027  0.88454744  0.49339900  1
  O  O326  1  0.50172809  0.87576467  0.98702485  1
  O  O327  1  1.00149270  0.37742552  0.48153171  1
  O  O328  1  0.98768210  0.37022139  0.99867935  1
  O  O329  1  1.00359188  0.88850379  0.49149869  1
  O  O330  1  1.00955649  0.88070635  0.99056519  1
  O  O331  1  0.50618679  0.50499158  0.38470452  1
  O  O332  1  0.49386689  0.49356979  0.88167774  1
  O  O333  1  0.49297767  0.99578828  0.38127493  1
  O  O334  1  0.48977992  0.99479650  0.86992440  1
  O  O335  1  0.99626170  0.48814750  0.36724159  1
  O  O336  1  1.01194562  0.48277511  0.87593735  1
  O  O337  1  0.99578225  0.99660821  0.38204655  1
  O  O338  1  0.99979097  0.98721725  0.88218428  1
  O  O339  1  0.00043833  0.00663882  0.11808677  1
  O  O340  1  0.00858583  0.00391539  0.61811641  1
  O  O341  1  -0.00128963  0.51443106  0.12996464  1
  O  O342  1  0.00372713  0.49419847  0.62456870  1
  O  O343  1  0.49282618  0.01437560  0.12412626  1
  O  O344  1  0.50011112  0.01065151  0.61931421  1
  O  O345  1  0.50883805  0.50621642  0.11899385  1
  O  O346  1  0.50900589  0.50593375  0.61411669  1
  O  O347  1  0.24174369  0.37403217  0.24211053  1
  O  O348  1  0.25443862  0.39061201  0.75410119  1
  O  O349  1  0.24226485  0.87757819  0.24408898  1
  O  O350  1  0.23743810  0.88156060  0.75681277  1
  O  O351  1  0.74649933  0.37866968  0.24218790  1
  O  O352  1  0.73894332  0.36876318  0.74987303  1
  O  O353  1  0.76148144  0.87897755  0.22934522  1
  O  O354  1  0.73959834  0.88131971  0.75159585  1
  O  O355  1  0.25289061  0.12220172  0.25273904  1
  O  O356  1  0.24609776  0.11311904  0.76524932  1
  O  O357  1  0.24652614  0.62856926  0.26362460  1
  O  O358  1  0.26198636  0.61873961  0.75750221  1
  O  O359  1  0.74884205  0.12068155  0.25767726  1
  O  O360  1  0.75364823  0.11700394  0.75679720  1
  O  O361  1  0.74884047  0.61737058  0.25550833  1
  O  O362  1  0.76780860  0.62665218  0.75581696  1
  O  O363  1  0.36834244  0.12141299  0.36972289  1
  O  O364  1  0.36506545  0.11602460  0.88068009  1
  O  O365  1  0.35874936  0.63602910  0.37691186  1
  O  O366  1  0.37170505  0.62115825  0.87053605  1
  O  O367  1  0.86833567  0.11936836  0.37323757  1
  O  O368  1  0.86817265  0.12386938  0.86672341  1
  O  O369  1  0.86296660  0.62329706  0.37217313  1
  O  O370  1  0.86839634  0.62358242  0.86655355  1
  O  O371  1  0.13096990  0.37427475  0.13069061  1
  O  O372  1  0.13048807  0.36600418  0.61344672  1
  O  O373  1  0.13426616  0.86913563  0.13267246  1
  O  O374  1  0.12291538  0.88647577  0.63237435  1
  O  O375  1  0.63693009  0.38057215  0.12624158  1
  O  O376  1  0.62252822  0.38116551  0.63452029  1
  O  O377  1  0.63929942  0.87134420  0.11890569  1
  O  O378  1  0.62295034  0.87783734  0.63357148  1
  O  O379  1  0.11678054  0.26072236  0.25811045  1
  O  O380  1  0.12589947  0.24271986  0.76840747  1
  O  O381  1  0.11268244  0.76221759  0.24978127  1
  O  O382  1  0.12378003  0.75470311  0.75310750  1
  O  O383  1  0.61511744  0.25909504  0.24396282  1
  O  O384  1  0.61772695  0.25645681  0.75704554  1
  O  O385  1  0.61809990  0.74892020  0.26145249  1
  O  O386  1  0.62632782  0.75763122  0.75678234  1
  O  O387  1  0.37919720  0.24883524  0.24428920  1
  O  O388  1  0.38805698  0.25000902  0.75728665  1
  O  O389  1  0.38335532  0.74611085  0.24237457  1
  O  O390  1  0.37317733  0.74546147  0.74061158  1
  O  O391  1  0.88842159  0.24872504  0.25345709  1
  O  O392  1  0.86752894  0.23277546  0.74568045  1
  O  O393  1  0.88829714  0.74849663  0.24594070  1
  O  O394  1  0.88503287  0.73763060  0.74660289  1
  O  O395  1  0.39268624  0.50909108  0.49797485  1
  O  O396  1  0.38107174  0.49484711  0.99507798  1
  O  O397  1  0.38367288  0.99778627  0.49541055  1
  O  O398  1  0.36876333  0.99452055  0.98617627  1
  O  O399  1  0.88327343  0.51534236  0.50967633  1
  O  O400  1  0.87141782  0.48451108  0.99940647  1
  O  O401  1  0.88446771  1.00386057  0.49076583  1
  O  O402  1  0.89278175  1.00392848  0.99449127  1
  O  O403  1  0.11433699  0.01030300  -0.00631249  1
  O  O404  1  0.12130791  0.00603731  0.50769568  1
  O  O405  1  0.13203018  0.51284495  0.00077652  1
  O  O406  1  0.12736307  0.51467371  0.50548675  1
  O  O407  1  0.62850163  0.01133213  0.00313758  1
  O  O408  1  0.61049642  0.00712826  0.50042100  1
  O  O409  1  0.62070149  0.50723943  0.00380903  1
  O  O410  1  0.61476450  0.50893311  0.50458596  1
  O  O411  1  0.36859469  0.37002468  0.11912687  1
  O  O412  1  0.37454332  0.38621162  0.60023550  1
  O  O413  1  0.36818502  0.86447903  0.12446735  1
  O  O414  1  0.38139695  0.86794930  0.61949330  1
  O  O415  1  0.86625877  0.37543548  0.11290509  1
  O  O416  1  0.87391489  0.35566122  0.63520269  1
  O  O417  1  0.87536668  0.86086254  0.12160879  1
  O  O418  1  0.87289467  0.87470451  0.62429531  1
  O  O419  1  0.12640203  0.13524312  0.38294289  1
  O  O420  1  0.12999467  0.13209426  0.88470286  1
  O  O421  1  0.13225602  0.62839523  0.38656290  1
  O  O422  1  0.13109626  0.63031668  0.88015990  1
  O  O423  1  0.63147169  0.12179061  0.38703664  1
  O  O424  1  0.62859523  0.12841666  0.88172383  1
  O  O425  1  0.63397110  0.63406911  0.37830885  1
  O  O426  1  0.63054845  0.62908968  0.87921358  1
