# generated using pymatgen
data_V85Zn86O256
_symmetry_space_group_name_H-M   'P 1'
_cell_length_a   16.95238058
_cell_length_b   16.94343582
_cell_length_c   16.96714675
_cell_angle_alpha   89.94028230
_cell_angle_beta   89.95747177
_cell_angle_gamma   90.01431712
_symmetry_Int_Tables_number   1
_chemical_formula_structural   V85Zn86O256
_chemical_formula_sum   'V85 Zn86 O256'
_cell_volume   4873.49609563
_cell_formula_units_Z   1
loop_
 _symmetry_equiv_pos_site_id
 _symmetry_equiv_pos_as_xyz
  1  'x, y, z'
loop_
 _atom_site_type_symbol
 _atom_site_label
 _atom_site_symmetry_multiplicity
 _atom_site_fract_x
 _atom_site_fract_y
 _atom_site_fract_z
 _atom_site_occupancy
  V  V0  1  0.24688792  0.12520907  0.89443665  1
  V  V1  1  0.24855765  0.62383222  0.37656811  1
  V  V2  1  0.50020162  0.87216605  0.35752103  1
  V  V3  1  0.88802305  -0.00367780  0.36916816  1
  V  V4  1  0.50166499  0.12342108  0.12359127  1
  V  V5  1  0.49340104  -0.01274646  -0.00578079  1
  V  V6  1  0.62232386  0.50702359  0.62286017  1
  V  V7  1  0.74882954  0.62248536  0.36846054  1
  V  V8  1  0.12566340  0.62372496  -0.00009907  1
  V  V9  1  0.62372681  0.37622475  0.74929000  1
  V  V10  1  0.74883658  0.37389307  0.62341675  1
  V  V11  1  0.87927159  0.00172862  0.86693926  1
  V  V12  1  0.49930413  0.37306594  0.87439501  1
  V  V13  1  0.24085315  0.87648871  0.12661636  1
  V  V14  1  0.87402258  0.49447741  0.87810079  1
  V  V15  1  0.24949611  0.00311331  0.73737361  1
  V  V16  1  0.25234323  0.37227821  0.12723961  1
  V  V17  1  0.87417778  0.62558869  0.74679288  1
  V  V18  1  0.00101952  0.25342875  0.24753508  1
  V  V19  1  0.00235473  0.76474383  0.25198830  1
  V  V20  1  0.12082533  0.61145251  0.50240762  1
  V  V21  1  0.12679056  0.37999146  0.25477430  1
  V  V22  1  0.62476179  0.49932654  0.12710422  1
  V  V23  1  0.24407839  0.49962558  0.74969907  1
  V  V24  1  0.74887697  0.50186755  0.74875246  1
  V  V25  1  0.75368070  0.12404021  0.86854461  1
  V  V26  1  0.87645857  0.37911908  0.50180060  1
  V  V27  1  0.26099829  0.75012500  0.00346575  1
  V  V28  1  0.62947282  0.37081189  0.25184616  1
  V  V29  1  -0.00448442  0.49293678  0.00066641  1
  V  V30  1  0.74083298  0.25282707  0.49186024  1
  V  V31  1  0.37692135  0.00131918  0.38086713  1
  V  V32  1  0.62075961  0.75230586  0.35898370  1
  V  V33  1  0.37366001  0.62556515  0.75015159  1
  V  V34  1  0.37495076  0.12281365  0.25367004  1
  V  V35  1  0.24408814  0.75229639  0.50522550  1
  V  V36  1  0.49963511  0.62557601  0.62295213  1
  V  V37  1  0.74810977  0.75867476  0.49775742  1
  V  V38  1  0.88069901  0.87925177  -0.00087482  1
  V  V39  1  0.00068136  0.61148782  0.62044367  1
  V  V40  1  0.00472117  0.00013759  0.51443280  1
  V  V41  1  0.25399090  0.50194975  0.25153365  1
  V  V42  1  0.24856831  0.38062388  0.62643207  1
  V  V43  1  0.74492584  -0.00346853  0.24793281  1
  V  V44  1  0.87757406  0.25467627  0.11679686  1
  V  V45  1  0.74164076  0.12891984  0.37170146  1
  V  V46  1  0.62070544  0.62469143  0.49681262  1
  V  V47  1  0.37072453  0.49825384  0.87643308  1
  V  V48  1  0.37860625  0.24548207  0.62576885  1
  V  V49  1  0.49983250  0.76315487  0.75993711  1
  V  V50  1  0.50666356  0.36652870  0.37784175  1
  V  V51  1  0.87155145  0.12910270  0.24641872  1
  V  V52  1  0.37065641  0.75429200  0.62555997  1
  V  V53  1  0.37595358  0.36941333  0.00134797  1
  V  V54  1  0.75541716  0.38180286  0.12502435  1
  V  V55  1  0.50474713  0.24686969  0.74978045  1
  V  V56  1  0.73936506  -0.01783603  0.74737335  1
  V  V57  1  0.38673323  0.50146352  0.37705787  1
  V  V58  1  0.24796259  0.25003429  0.50146787  1
  V  V59  1  0.74568453  0.87435035  0.12778601  1
  V  V60  1  0.38154890  0.63340708  0.25076336  1
  V  V61  1  0.87830927  0.75063898  0.12542880  1
  V  V62  1  0.11914203  0.75949586  0.37438746  1
  V  V63  1  -0.00140941  0.23140227  0.74795642  1
  V  V64  1  0.12724547  0.75232008  0.87675399  1
  V  V65  1  0.12323062  0.24814405  0.37791774  1
  V  V66  1  0.00159792  0.38345824  0.38252657  1
  V  V67  1  0.74531146  0.62578497  0.87048830  1
  V  V68  1  0.13240279  0.87568362  0.73092087  1
  V  V69  1  0.50129029  0.63163284  0.12635435  1
  V  V70  1  0.38416954  0.38113009  0.50274593  1
  V  V71  1  0.23747187  -0.00872513  0.25433912  1
  V  V72  1  0.02354899  0.00227685  0.00105790  1
  V  V73  1  0.00032048  0.62661617  0.12848524  1
  V  V74  1  0.37004386  0.87733785  0.49868453  1
  V  V75  1  0.51761076  0.11723029  0.62827042  1
  V  V76  1  0.87409156  0.75796586  0.62210606  1
  V  V77  1  0.00268529  0.74891865  0.74716147  1
  V  V78  1  0.75030425  0.74965229  -0.00264678  1
  V  V79  1  0.11824042  0.37644364  0.75001020  1
  V  V80  1  0.12626653  0.50163986  0.12656730  1
  V  V81  1  0.75288341  0.25402122  -0.00196893  1
  V  V82  1  0.62556755  0.12373397  -0.00203136  1
  V  V83  1  0.37174048  0.24674958  0.12330028  1
  V  V84  1  0.87178589  0.50026232  0.37085264  1
  Zn  Zn85  1  0.00620751  0.87534346  0.87360470  1
  Zn  Zn86  1  0.87350250  0.62247767  0.24971065  1
  Zn  Zn87  1  0.09607716  0.13645117  0.52836915  1
  Zn  Zn88  1  0.37508549  0.12170294  0.75684087  1
  Zn  Zn89  1  0.87746168  0.87540765  0.49399535  1
  Zn  Zn90  1  0.50471909  0.24532522  0.25597287  1
  Zn  Zn91  1  0.67141924  0.93924640  0.59473648  1
  Zn  Zn92  1  0.62694189  0.11734879  0.49630092  1
  Zn  Zn93  1  0.01073298  0.12428496  0.11338762  1
  Zn  Zn94  1  0.38257784  0.76151414  0.12901637  1
  Zn  Zn95  1  0.24547845  0.12437064  0.37382669  1
  Zn  Zn96  1  -0.00402973  0.36886610  0.87449668  1
  Zn  Zn97  1  0.89065859  0.23720435  0.61876171  1
  Zn  Zn98  1  0.50126526  0.50090236  -0.00007980  1
  Zn  Zn99  1  0.24856765  0.62166320  0.87722916  1
  Zn  Zn100  1  0.37343693  -0.01050374  0.87703137  1
  Zn  Zn101  1  0.62418614  0.76520990  0.87646872  1
  Zn  Zn102  1  0.62139615  -0.00528395  0.12713424  1
  Zn  Zn103  1  0.51006382  -0.00664095  0.50272374  1
  Zn  Zn104  1  0.62308741  0.62410849  -0.00148491  1
  Zn  Zn105  1  0.62644744  0.24978677  0.87488422  1
  Zn  Zn106  1  0.12418684  0.24199653  0.88833975  1
  Zn  Zn107  1  0.18954482  0.18648686  0.18842271  1
  Zn  Zn108  1  0.18346520  0.19304422  0.69437991  1
  Zn  Zn109  1  0.18839463  0.69115664  0.18976644  1
  Zn  Zn110  1  0.18448307  0.68417036  0.68575153  1
  Zn  Zn111  1  0.68742362  0.19144213  0.18425222  1
  Zn  Zn112  1  0.72575202  0.16351163  0.66585316  1
  Zn  Zn113  1  0.69008504  0.68525312  0.18510452  1
  Zn  Zn114  1  0.66661354  0.74511221  0.66634345  1
  Zn  Zn115  1  0.31625494  0.31220503  0.31424879  1
  Zn  Zn116  1  0.31123941  0.30746697  0.81338439  1
  Zn  Zn117  1  0.30897507  0.81243903  0.31687440  1
  Zn  Zn118  1  0.31244027  0.81426211  0.81412684  1
  Zn  Zn119  1  0.81183036  0.31528968  0.30957586  1
  Zn  Zn120  1  0.81692046  0.30950346  0.80816198  1
  Zn  Zn121  1  0.81432996  0.81145885  0.31089179  1
  Zn  Zn122  1  0.81683909  0.81220570  0.81495937  1
  Zn  Zn123  1  0.19384120  0.43656284  0.43846909  1
  Zn  Zn124  1  0.17468326  0.40638809  0.95285695  1
  Zn  Zn125  1  0.18398015  0.94117208  0.44055328  1
  Zn  Zn126  1  0.21955758  0.92248809  0.92290842  1
  Zn  Zn127  1  0.68664847  0.44214916  0.43699761  1
  Zn  Zn128  1  0.68666615  0.43637051  0.93971239  1
  Zn  Zn129  1  0.68631124  0.93754016  0.42272536  1
  Zn  Zn130  1  0.69084226  0.94181530  0.94282967  1
  Zn  Zn131  1  0.30976977  0.05575978  0.06873456  1
  Zn  Zn132  1  0.27455768  0.08206468  0.57850671  1
  Zn  Zn133  1  0.31545873  0.56236721  0.06345052  1
  Zn  Zn134  1  0.31199387  0.56407115  0.56175287  1
  Zn  Zn135  1  0.81707607  0.06379248  0.06077115  1
  Zn  Zn136  1  0.82246260  0.06303496  0.55590756  1
  Zn  Zn137  1  0.81282932  0.56420531  0.06152794  1
  Zn  Zn138  1  0.81122045  0.56607218  0.55753989  1
  Zn  Zn139  1  0.44318842  0.43924487  0.19074254  1
  Zn  Zn140  1  0.43698746  0.43980910  0.68839084  1
  Zn  Zn141  1  0.42839903  0.94031265  0.18259458  1
  Zn  Zn142  1  0.42706710  0.94079472  0.68218583  1
  Zn  Zn143  1  0.93698499  0.43773698  0.18993870  1
  Zn  Zn144  1  0.93319610  0.43518145  0.68777550  1
  Zn  Zn145  1  0.93735086  0.94204703  0.18135135  1
  Zn  Zn146  1  0.94060546  0.93615500  0.68948313  1
  Zn  Zn147  1  0.06873232  0.07751189  0.28698321  1
  Zn  Zn148  1  0.07342032  0.05676306  0.81746091  1
  Zn  Zn149  1  0.06124075  0.56644490  0.31541467  1
  Zn  Zn150  1  0.06232842  0.56244139  0.81234770  1
  Zn  Zn151  1  0.56084336  0.05736744  0.31138784  1
  Zn  Zn152  1  0.56176123  -0.06302333  0.81390512  1
  Zn  Zn153  1  0.56501939  0.55855925  0.30821219  1
  Zn  Zn154  1  0.55951799  0.56529965  0.81011314  1
  Zn  Zn155  1  0.43902236  0.18656625  0.44484338  1
  Zn  Zn156  1  0.43371531  0.18164984  0.93656522  1
  Zn  Zn157  1  0.43822079  0.69114461  0.43599904  1
  Zn  Zn158  1  0.43728119  0.68300697  0.93819903  1
  Zn  Zn159  1  0.93093133  0.18816140  0.43416858  1
  Zn  Zn160  1  0.94275051  0.18250528  0.93485058  1
  Zn  Zn161  1  0.93841811  0.68622652  0.43874189  1
  Zn  Zn162  1  0.93816742  0.68486854  0.93608419  1
  Zn  Zn163  1  0.06335732  0.31261161  0.06276693  1
  Zn  Zn164  1  0.06234823  0.31887980  0.56858461  1
  Zn  Zn165  1  0.06980083  0.81711945  0.06400233  1
  Zn  Zn166  1  0.05442027  0.81191795  0.55592063  1
  Zn  Zn167  1  0.56226115  0.30975694  0.06412904  1
  Zn  Zn168  1  0.56499046  0.31240388  0.56260975  1
  Zn  Zn169  1  0.56659502  0.80961940  0.06144190  1
  Zn  Zn170  1  0.55094956  0.80620381  0.55038306  1
  O  O171  1  0.09936219  0.12561390  0.18110605  1
  O  O172  1  0.16943847  0.12636929  0.60789439  1
  O  O173  1  0.11891699  0.62016374  0.12184586  1
  O  O174  1  0.11313979  0.62911369  0.61463839  1
  O  O175  1  0.61727673  0.12652538  0.11699511  1
  O  O176  1  0.61891187  0.12723753  0.62533375  1
  O  O177  1  0.62018410  0.61672891  0.12491549  1
  O  O178  1  0.61630183  0.63056841  0.61575884  1
  O  O179  1  0.38381227  0.38201358  0.38263524  1
  O  O180  1  0.37745823  0.37745773  0.88326204  1
  O  O181  1  0.37980197  0.88071371  0.37913512  1
  O  O182  1  0.33010985  0.88535954  0.89565885  1
  O  O183  1  0.88123279  0.38091062  0.38038636  1
  O  O184  1  0.87557081  0.39083903  0.86860134  1
  O  O185  1  0.87252524  0.89281006  0.37092741  1
  O  O186  1  0.88227101  0.87977185  0.88363584  1
  O  O187  1  0.25796137  0.00129522  0.36964576  1
  O  O188  1  0.24564830  0.01647679  0.86203350  1
  O  O189  1  0.26211906  0.50418319  0.37024466  1
  O  O190  1  0.26095594  0.49708190  0.86820171  1
  O  O191  1  0.75837746  0.00724156  0.36322721  1
  O  O192  1  0.75920762  0.00466180  0.86900535  1
  O  O193  1  0.75829085  0.50999245  0.37733844  1
  O  O194  1  0.75569544  0.50609564  0.87260740  1
  O  O195  1  0.24692588  0.49553736  0.13356403  1
  O  O196  1  0.26086957  0.48827810  0.63362877  1
  O  O197  1  0.24783915  0.98948749  0.14123971  1
  O  O198  1  0.26126087  0.98701031  0.63894693  1
  O  O199  1  0.74533371  0.48857902  0.11740859  1
  O  O200  1  0.74445334  0.49342614  0.62731515  1
  O  O201  1  0.75364373  0.99156872  0.13006924  1
  O  O202  1  0.75763357  0.99679755  0.64246558  1
  O  O203  1  0.00595004  0.37157595  0.25922101  1
  O  O204  1  0.00759972  0.37524955  0.74875819  1
  O  O205  1  -0.00478068  0.86353634  0.24267595  1
  O  O206  1  0.01495677  0.86857768  0.75106808  1
  O  O207  1  0.50785904  0.37177036  0.25976028  1
  O  O208  1  0.50401217  0.36952799  0.75440642  1
  O  O209  1  0.49338429  0.88127075  0.25846881  1
  O  O210  1  0.49105556  0.86690066  0.74868395  1
  O  O211  1  0.49416276  0.12454263  0.24269555  1
  O  O212  1  0.49366331  0.13327321  0.73433149  1
  O  O213  1  0.49181583  0.61890823  0.24196899  1
  O  O214  1  0.48987695  0.63389491  0.74435994  1
  O  O215  1  0.97576464  0.14242132  0.26800081  1
  O  O216  1  1.00805257  0.13288803  0.75479375  1
  O  O217  1  0.99983841  0.62898797  0.23773367  1
  O  O218  1  0.99544974  0.63010121  0.74172163  1
  O  O219  1  0.37978263  0.25688809  0.01136748  1
  O  O220  1  0.37265264  0.26417992  0.50701355  1
  O  O221  1  0.36306947  0.74201080  0.00444513  1
  O  O222  1  0.36495900  0.75431798  0.50559753  1
  O  O223  1  0.87120385  0.24466060  0.01033981  1
  O  O224  1  0.86427243  0.26307495  0.49994494  1
  O  O225  1  0.87230007  0.75867358  0.00280553  1
  O  O226  1  0.86826500  0.75313904  0.50330171  1
  O  O227  1  0.13186940  0.25320064  0.49572377  1
  O  O228  1  0.13879249  0.29832160  0.98538599  1
  O  O229  1  0.12831884  0.74321875  0.49209464  1
  O  O230  1  0.12895398  0.74208840  0.99324204  1
  O  O231  1  0.63750704  0.25070091  0.49717866  1
  O  O232  1  0.63464905  0.24422948  0.99990357  1
  O  O233  1  0.63153910  0.73903075  0.48704972  1
  O  O234  1  0.63689038  0.74495809  0.99643327  1
  O  O235  1  0.48991413  0.23880094  0.12790190  1
  O  O236  1  0.49697181  0.24319926  0.62947197  1
  O  O237  1  0.49988164  0.73711883  0.12243787  1
  O  O238  1  0.48871097  0.74151546  0.63564152  1
  O  O239  1  0.99305639  0.25328403  0.12880944  1
  O  O240  1  1.00550582  0.24630821  0.63886992  1
  O  O241  1  0.99871095  0.74364070  0.13043577  1
  O  O242  1  0.99123203  0.74164796  0.62855713  1
  O  O243  1  0.00502250  0.26336620  0.37215514  1
  O  O244  1  0.00372569  0.25117923  0.86522559  1
  O  O245  1  0.01049334  0.74501647  0.36770858  1
  O  O246  1  0.00843210  0.74803710  0.86583465  1
  O  O247  1  0.49611962  0.26281311  0.37617494  1
  O  O248  1  0.49895100  0.25423742  0.86633470  1
  O  O249  1  0.50818816  0.75825358  0.37409981  1
  O  O250  1  0.49236091  0.74993225  0.86216896  1
  O  O251  1  0.26929166  0.14847127  0.48549471  1
  O  O252  1  0.25142659  0.12038721  0.99416647  1
  O  O253  1  0.24374052  0.63262292  0.49548705  1
  O  O254  1  0.24156332  0.63074849  1.00319498  1
  O  O255  1  0.74717628  0.13429790  0.48708653  1
  O  O256  1  0.74537006  0.13470490  0.99868482  1
  O  O257  1  0.74265527  0.63375099  0.48725238  1
  O  O258  1  0.75286305  0.63702047  0.99242572  1
  O  O259  1  0.27070476  0.38670635  0.01439873  1
  O  O260  1  0.25888959  0.36895425  0.50772538  1
  O  O261  1  0.23482820  0.86208846  0.02010902  1
  O  O262  1  0.25957445  0.86579716  0.49267776  1
  O  O263  1  0.74693471  0.36103274  0.00623890  1
  O  O264  1  0.75378512  0.37217856  0.50338873  1
  O  O265  1  0.76049682  0.86484179  0.00482292  1
  O  O266  1  0.75104002  0.86350753  0.49318524  1
  O  O267  1  0.13224077  0.49877054  0.24800531  1
  O  O268  1  0.13911935  0.49964982  0.74930956  1
  O  O269  1  0.14042143  0.98987986  0.26919788  1
  O  O270  1  0.13472929  0.98475299  0.74830442  1
  O  O271  1  0.62335023  0.48855541  0.23559171  1
  O  O272  1  0.63025169  0.49785439  0.74320937  1
  O  O273  1  0.64055676  1.00390296  0.24491998  1
  O  O274  1  0.63951722  0.99309951  0.74827875  1
  O  O275  1  0.37024830  0.00919511  0.26128814  1
  O  O276  1  0.36103540  -0.00208865  0.75532615  1
  O  O277  1  0.37205844  0.50649019  0.25897276  1
  O  O278  1  0.36572896  0.50331989  0.75682955  1
  O  O279  1  0.86894080  0.00991618  0.25255226  1
  O  O280  1  0.87182040  -0.00834297  0.76440160  1
  O  O281  1  0.87880354  0.50186770  0.26534663  1
  O  O282  1  0.86795032  0.50690990  0.75575104  1
  O  O283  1  0.11807011  0.37319134  0.37535257  1
  O  O284  1  0.11816590  0.38842841  0.85520965  1
  O  O285  1  0.12754763  0.85738731  0.38112225  1
  O  O286  1  0.12796841  0.85977429  0.87086943  1
  O  O287  1  0.61718941  0.38487947  0.36584438  1
  O  O288  1  0.61866913  0.37357087  0.86763170  1
  O  O289  1  0.61296865  0.86444864  0.37387211  1
  O  O290  1  0.62583377  0.87669020  0.88197852  1
  O  O291  1  0.37937929  0.12928231  0.13319170  1
  O  O292  1  0.37424298  0.14085693  0.62349525  1
  O  O293  1  0.38450984  0.62391689  0.13542782  1
  O  O294  1  0.37919919  0.63484786  0.62803845  1
  O  O295  1  0.88136293  0.13369920  0.13163677  1
  O  O296  1  0.83322138  0.14208641  0.62994505  1
  O  O297  1  0.88299840  0.63154746  0.12613213  1
  O  O298  1  0.88161254  0.63011866  0.62783783  1
  O  O299  1  0.26342506  0.25512657  0.13413500  1
  O  O300  1  0.26076371  0.26509692  0.62091174  1
  O  O301  1  0.25398606  0.75499389  0.12123344  1
  O  O302  1  0.25561180  0.74362475  0.61303662  1
  O  O303  1  0.75808516  0.25864231  0.11687768  1
  O  O304  1  0.73857923  0.26928531  0.61541388  1
  O  O305  1  0.75794653  0.75391571  0.11735106  1
  O  O306  1  0.76267373  0.73701117  0.60867565  1
  O  O307  1  0.23939545  0.25916405  0.38375272  1
  O  O308  1  0.24984373  0.22941524  0.86698161  1
  O  O309  1  0.23990162  0.74270322  0.38371584  1
  O  O310  1  0.24253292  0.74215195  0.88525191  1
  O  O311  1  0.75550890  0.24277358  0.37969329  1
  O  O312  1  0.75382312  0.24329205  0.88111137  1
  O  O313  1  0.74409330  0.74456644  0.37910658  1
  O  O314  1  0.75031619  0.74201291  0.88080348  1
  O  O315  1  0.00812659  0.10944488  -0.00225686  1
  O  O316  1  -0.00857140  0.11206525  0.49586669  1
  O  O317  1  0.00595116  0.62048993  0.01173116  1
  O  O318  1  0.00852165  0.62588092  0.50794954  1
  O  O319  1  0.50872751  0.12165700  0.00654483  1
  O  O320  1  0.50606326  0.12389959  0.51522776  1
  O  O321  1  0.50264709  0.62110153  0.00907432  1
  O  O322  1  0.50737427  0.63361004  0.50954650  1
  O  O323  1  0.49448126  0.37546759  0.49394166  1
  O  O324  1  0.49154193  0.37581322  0.99493625  1
  O  O325  1  0.48329956  0.87431294  0.48930653  1
  O  O326  1  0.50143070  0.88975622  1.01266819  1
  O  O327  1  0.99032097  0.37180042  0.49447680  1
  O  O328  1  0.99550099  0.39071067  0.99922519  1
  O  O329  1  0.99556831  0.89246080  0.49874031  1
  O  O330  1  0.99622115  0.88138345  0.99851508  1
  O  O331  1  0.49034755  0.49234629  0.37215109  1
  O  O332  1  0.48801074  0.49173333  0.87185033  1
  O  O333  1  0.49408224  0.99135312  0.37935373  1
  O  O334  1  0.49452385  0.99649868  0.88934625  1
  O  O335  1  0.99426271  0.48937695  0.37404697  1
  O  O336  1  0.99074369  0.50467852  0.88418827  1
  O  O337  1  0.98628073  1.00842882  0.36208590  1
  O  O338  1  0.99625340  0.99702457  0.88479027  1
  O  O339  1  -0.00131419  0.00021938  0.10493493  1
  O  O340  1  -0.00503549  0.00314124  0.61370434  1
  O  O341  1  0.00298030  0.50740985  0.12012567  1
  O  O342  1  -0.00635968  0.51235927  0.62728917  1
  O  O343  1  0.50030456  0.01195540  0.12199334  1
  O  O344  1  0.49593197  0.01461569  0.62425884  1
  O  O345  1  0.50854961  0.50839173  0.12353413  1
  O  O346  1  0.50377449  0.51758280  0.63218096  1
  O  O347  1  0.24910718  0.38322286  0.24707399  1
  O  O348  1  0.24571122  0.38015504  0.74397772  1
  O  O349  1  0.25345797  0.88645356  0.24939896  1
  O  O350  1  0.23708405  0.88027272  0.74885640  1
  O  O351  1  0.74264605  0.37320139  0.23790813  1
  O  O352  1  0.74516947  0.37994613  0.74181519  1
  O  O353  1  0.75916741  0.88444299  0.23937274  1
  O  O354  1  0.75082399  0.88242479  0.75411607  1
  O  O355  1  0.25923241  0.11277353  0.25490650  1
  O  O356  1  0.25294201  0.11058986  0.74581946  1
  O  O357  1  0.25726215  0.61880113  0.25685827  1
  O  O358  1  0.25568588  0.61674577  0.74969624  1
  O  O359  1  0.75679050  0.12241507  0.25018974  1
  O  O360  1  0.74224558  0.11395844  0.76806082  1
  O  O361  1  0.75337781  0.62894181  0.26355185  1
  O  O362  1  0.75634716  0.61846278  0.75814538  1
  O  O363  1  0.38028980  0.11786394  0.36915047  1
  O  O364  1  0.36299008  0.11829764  0.87422278  1
  O  O365  1  0.37260051  0.61805758  0.37119934  1
  O  O366  1  0.37216069  0.61424531  0.86875595  1
  O  O367  1  0.86057036  0.11769952  0.36692528  1
  O  O368  1  0.86562710  0.11268671  0.88487586  1
  O  O369  1  0.86774484  0.61673082  0.37708274  1
  O  O370  1  0.86580487  0.61879461  0.86785115  1
  O  O371  1  0.13067135  0.38402209  0.13658071  1
  O  O372  1  0.13708077  0.37576707  0.63573882  1
  O  O373  1  0.14117458  0.86195714  0.14214665  1
  O  O374  1  0.12506249  0.86432098  0.63340137  1
  O  O375  1  0.63099036  0.38037675  0.12984764  1
  O  O376  1  0.62782665  0.38673756  0.62949103  1
  O  O377  1  0.64194562  0.87425994  0.12129503  1
  O  O378  1  0.62572423  0.84409780  0.62288289  1
  O  O379  1  0.12348856  0.26527936  0.26152838  1
  O  O380  1  0.11473064  0.26025899  0.75523499  1
  O  O381  1  0.11809302  0.74209249  0.26680146  1
  O  O382  1  0.12437416  0.75674626  0.75545678  1
  O  O383  1  0.62222866  0.26497844  0.24412491  1
  O  O384  1  0.61169382  0.25727858  0.75101037  1
  O  O385  1  0.62890064  0.74587924  0.26021627  1
  O  O386  1  0.60300395  0.74330330  0.75998353  1
  O  O387  1  0.37729133  0.23711362  0.24748340  1
  O  O388  1  0.38722958  0.25328195  0.74085307  1
  O  O389  1  0.36952798  0.73578765  0.25338453  1
  O  O390  1  0.37796523  0.74834243  0.74361218  1
  O  O391  1  0.87609986  0.24800444  0.23647113  1
  O  O392  1  0.89547568  0.25298722  0.74739435  1
  O  O393  1  0.88505919  0.74570562  0.24451399  1
  O  O394  1  0.88013223  0.74382260  0.74218359  1
  O  O395  1  0.37072363  0.49004187  0.49227991  1
  O  O396  1  0.37914156  0.49430978  0.99092621  1
  O  O397  1  0.37229159  0.99263587  0.48861214  1
  O  O398  1  0.39210931  1.00574301  1.00510052  1
  O  O399  1  0.86812100  0.48687614  0.48984862  1
  O  O400  1  0.88348896  0.50969950  0.98944495  1
  O  O401  1  0.88321809  0.99860494  0.48437532  1
  O  O402  1  0.87430951  0.98752467  0.99182837  1
  O  O403  1  0.11941383  -0.01230467  -0.00561379  1
  O  O404  1  0.10674660  0.00661692  0.49329750  1
  O  O405  1  0.11721030  0.50355100  0.00736083  1
  O  O406  1  0.13308725  0.51235999  0.49801091  1
  O  O407  1  0.61611481  0.00909429  0.00707141  1
  O  O408  1  0.62880868  -0.00343097  0.50353019  1
  O  O409  1  0.62339665  0.50051466  0.01203599  1
  O  O410  1  0.62910672  0.51664058  0.50635683  1
  O  O411  1  0.37653750  0.36614511  0.12225199  1
  O  O412  1  0.37431614  0.37019674  0.61849411  1
  O  O413  1  0.35402716  0.87220630  0.13248333  1
  O  O414  1  0.37855328  0.86132346  0.61409745  1
  O  O415  1  0.86672091  0.36901653  0.12815786  1
  O  O416  1  0.86510089  0.37333333  0.61685384  1
  O  O417  1  0.86870329  0.86940252  0.11626861  1
  O  O418  1  0.87923298  0.86071658  0.62313920  1
  O  O419  1  0.12501346  0.14325703  0.37305740  1
  O  O420  1  0.14054598  0.12727569  0.87648778  1
  O  O421  1  0.12970158  0.62989255  0.38455989  1
  O  O422  1  0.12596506  0.63297642  0.88092934  1
  O  O423  1  0.63716803  0.11974537  0.37206522  1
  O  O424  1  0.63726713  0.12916631  0.89246626  1
  O  O425  1  0.62899040  0.62731447  0.37823109  1
  O  O426  1  0.63766870  0.62179095  0.87640845  1
