# generated using pymatgen
data_V85Zn86O256
_symmetry_space_group_name_H-M   'P 1'
_cell_length_a   16.95842058
_cell_length_b   16.93648325
_cell_length_c   16.95159447
_cell_angle_alpha   89.99586038
_cell_angle_beta   90.01105645
_cell_angle_gamma   89.90252662
_symmetry_Int_Tables_number   1
_chemical_formula_structural   V85Zn86O256
_chemical_formula_sum   'V85 Zn86 O256'
_cell_volume   4868.76211212
_cell_formula_units_Z   1
loop_
 _symmetry_equiv_pos_site_id
 _symmetry_equiv_pos_as_xyz
  1  'x, y, z'
loop_
 _atom_site_type_symbol
 _atom_site_label
 _atom_site_symmetry_multiplicity
 _atom_site_fract_x
 _atom_site_fract_y
 _atom_site_fract_z
 _atom_site_occupancy
  V  V0  1  0.50350710  0.62155576  0.62451219  1
  V  V1  1  0.00040924  0.62122054  0.12298151  1
  V  V2  1  -0.00483231  0.12765133  0.62390780  1
  V  V3  1  0.75192848  -0.00149112  0.74960460  1
  V  V4  1  0.63746747  0.62637889  -0.00142840  1
  V  V5  1  0.00077759  0.49797640  -0.00016889  1
  V  V6  1  0.75066714  0.12449760  0.87333921  1
  V  V7  1  0.50538018  0.12716308  0.12659613  1
  V  V8  1  0.12395810  0.25223900  0.37454554  1
  V  V9  1  0.50168139  0.62304297  0.12529586  1
  V  V10  1  0.37463745  0.74722126  0.62518808  1
  V  V11  1  0.25180655  0.00114638  0.74627104  1
  V  V12  1  0.20183415  0.92956155  0.07685190  1
  V  V13  1  0.87394587  0.13019767  0.75064035  1
  V  V14  1  -0.00167037  0.87799264  0.37159387  1
  V  V15  1  0.87218415  0.73949140  0.62132341  1
  V  V16  1  0.37212553  0.36601548  0.50831696  1
  V  V17  1  0.38312258  -0.00528019  0.37504525  1
  V  V18  1  0.49536320  0.13012384  0.62499322  1
  V  V19  1  -0.01047411  0.50220521  0.50240408  1
  V  V20  1  0.25382554  0.73912353  -0.01340625  1
  V  V21  1  0.12217487  0.75367599  0.36985763  1
  V  V22  1  0.49886266  0.75481893  0.25493469  1
  V  V23  1  0.36643828  0.49941115  0.37745281  1
  V  V24  1  0.87938998  0.36955661  0.00158994  1
  V  V25  1  0.36752128  0.75133943  0.12446047  1
  V  V26  1  0.86435765  0.60770510  0.25863606  1
  V  V27  1  0.62715229  0.49333324  0.13043582  1
  V  V28  1  0.12163676  -0.00094659  0.62877590  1
  V  V29  1  0.37855703  0.00266386  0.87006140  1
  V  V30  1  0.25260949  0.13174459  0.88107185  1
  V  V31  1  0.76174062  0.24755543  0.50121546  1
  V  V32  1  0.50164384  0.74831351  0.75057088  1
  V  V33  1  0.12788902  0.25102884  0.88084152  1
  V  V34  1  0.38047473  0.87231536  0.49671253  1
  V  V35  1  0.37432303  0.25104412  0.11877662  1
  V  V36  1  0.50397315  0.00058869  -0.00144435  1
  V  V37  1  0.49267269  0.25507664  0.74932142  1
  V  V38  1  0.49899541  0.49725633  0.50429799  1
  V  V39  1  0.74665162  0.50622093  0.74910639  1
  V  V40  1  0.12447311  0.37938516  0.75136331  1
  V  V41  1  0.24821085  0.75009603  0.49845085  1
  V  V42  1  0.37684789  0.87383824  0.00112867  1
  V  V43  1  -0.01303839  0.25772271  0.24864864  1
  V  V44  1  -0.00290394  0.25268547  0.74748540  1
  V  V45  1  0.64081121  0.74504114  0.87746027  1
  V  V46  1  0.86649698  0.74716882  0.12215014  1
  V  V47  1  0.36946167  0.61897418  0.24906056  1
  V  V48  1  0.63036505  0.75138905  0.37275528  1
  V  V49  1  0.87028102  0.01172071  0.37498083  1
  V  V50  1  0.65831988  0.38310661  0.28262502  1
  V  V51  1  0.75481269  0.24634673  0.00086288  1
  V  V52  1  0.10901716  0.75010810  0.87221268  1
  V  V53  1  0.49154226  0.36619741  0.37101122  1
  V  V54  1  0.12116394  0.50696540  0.62582106  1
  V  V55  1  0.75070912  0.37359173  0.12113421  1
  V  V56  1  0.88861222  0.87590165  -0.00310066  1
  V  V57  1  0.50273399  0.49116779  -0.00852882  1
  V  V58  1  0.11785950  0.62712254  0.50194381  1
  V  V59  1  0.25082297  0.37043497  0.62984558  1
  V  V60  1  0.62992214  0.61767980  0.49245962  1
  V  V61  1  0.87093058  0.87439648  0.49898065  1
  V  V62  1  0.25256123  -0.01203222  0.25195497  1
  V  V63  1  0.24760939  0.12378669  0.37509026  1
  V  V64  1  0.62172199  0.25747622  0.87364303  1
  V  V65  1  0.24652224  0.62382265  0.37237826  1
  V  V66  1  0.62633483  0.87441647  0.74733756  1
  V  V67  1  0.37742618  0.12959310  0.25244513  1
  V  V68  1  -0.00133925  0.74787522  0.24803067  1
  V  V69  1  0.50695861  -0.00234509  0.50036145  1
  V  V70  1  0.13113437  0.49957874  0.13164571  1
  V  V71  1  0.89244641  -0.00352209  0.87728261  1
  V  V72  1  0.86825523  0.51085414  0.87733049  1
  V  V73  1  0.77332563  0.36699610  0.62890371  1
  V  V74  1  0.25049258  0.37250222  0.12776458  1
  V  V75  1  0.50225464  0.87304357  0.87386725  1
  V  V76  1  0.24497631  0.87507786  0.62539658  1
  V  V77  1  0.12285809  0.12450994  0.49819301  1
  V  V78  1  0.62146337  0.37944528  0.73959997  1
  V  V79  1  0.00281335  0.75423745  0.73631728  1
  V  V80  1  0.74572051  0.87476329  0.11639835  1
  V  V81  1  0.74607742  0.00295359  0.24818040  1
  V  V82  1  -0.00157210  0.37763322  0.87598142  1
  V  V83  1  0.36234661  0.50017187  0.87668591  1
  V  V84  1  -0.00662808  0.38250588  0.38487467  1
  Zn  Zn85  1  0.12730203  0.11044252  0.00547353  1
  Zn  Zn86  1  0.24292798  0.51084992  0.75639230  1
  Zn  Zn87  1  0.62057315  0.14491569  0.49636965  1
  Zn  Zn88  1  0.75020741  0.87324159  0.62152007  1
  Zn  Zn89  1  -0.00253669  0.00172811  0.49759500  1
  Zn  Zn90  1  0.62419201  -0.00144572  0.12538621  1
  Zn  Zn91  1  0.25072251  0.24631208  0.50642466  1
  Zn  Zn92  1  0.73531946  0.13699448  0.36878265  1
  Zn  Zn93  1  0.62664983  0.12630379  -0.00191194  1
  Zn  Zn94  1  0.87251867  0.62873870  0.75273988  1
  Zn  Zn95  1  0.37167678  0.62808313  0.76038047  1
  Zn  Zn96  1  0.86747767  0.14003148  0.23415204  1
  Zn  Zn97  1  0.13274199  0.38153012  0.25847527  1
  Zn  Zn98  1  0.62649527  0.00301525  0.62373428  1
  Zn  Zn99  1  0.51792420  0.24952010  0.25494271  1
  Zn  Zn100  1  0.13422455  0.61674344  -0.01030556  1
  Zn  Zn101  1  0.08600265  0.91932100  0.20994126  1
  Zn  Zn102  1  0.00082792  0.10154779  0.11142720  1
  Zn  Zn103  1  0.37145304  0.13460179  0.74404032  1
  Zn  Zn104  1  0.37502377  0.36919709  -0.00348230  1
  Zn  Zn105  1  0.75257555  0.74160180  0.49347580  1
  Zn  Zn106  1  0.62204374  0.87551918  0.25001412  1
  Zn  Zn107  1  0.18892628  0.18445775  0.19228253  1
  Zn  Zn108  1  0.18352040  0.18798025  0.69103165  1
  Zn  Zn109  1  0.18608431  0.68788986  0.18469659  1
  Zn  Zn110  1  0.18596615  0.68674883  0.69071624  1
  Zn  Zn111  1  0.68686770  0.19729110  0.19147077  1
  Zn  Zn112  1  0.68184748  0.19018621  0.68167251  1
  Zn  Zn113  1  0.68894574  0.68391296  0.18965588  1
  Zn  Zn114  1  0.68585608  0.68794379  0.68067275  1
  Zn  Zn115  1  0.30989984  0.31122148  0.31099309  1
  Zn  Zn116  1  0.31283355  0.32103819  0.81594563  1
  Zn  Zn117  1  0.31581995  0.80919143  0.31396615  1
  Zn  Zn118  1  0.31339182  0.81559422  0.80929831  1
  Zn  Zn119  1  0.81303946  0.32961868  0.32715566  1
  Zn  Zn120  1  0.81034851  0.31586138  0.81527401  1
  Zn  Zn121  1  0.81168747  0.81272332  0.30727835  1
  Zn  Zn122  1  0.81821876  0.81399630  0.81111857  1
  Zn  Zn123  1  0.18598307  0.43776911  0.44352518  1
  Zn  Zn124  1  0.18859452  0.43061261  0.94663637  1
  Zn  Zn125  1  0.18616007  0.93828442  0.43690571  1
  Zn  Zn126  1  0.18697280  0.93260468  0.91398940  1
  Zn  Zn127  1  0.68205021  0.42180202  0.45654713  1
  Zn  Zn128  1  0.68739985  0.43647323  0.93558552  1
  Zn  Zn129  1  0.68749054  0.93395555  0.43081083  1
  Zn  Zn130  1  0.69079445  0.93594217  0.93504450  1
  Zn  Zn131  1  0.32049206  0.06910135  0.05907820  1
  Zn  Zn132  1  0.31534371  0.06322136  0.56094570  1
  Zn  Zn133  1  0.31372101  0.55791778  0.06273414  1
  Zn  Zn134  1  0.30882238  0.56132680  0.56785542  1
  Zn  Zn135  1  0.81696305  0.06224063  0.06221652  1
  Zn  Zn136  1  0.81190010  0.06433294  0.56352329  1
  Zn  Zn137  1  0.81379244  0.55772071  0.06857804  1
  Zn  Zn138  1  0.80595955  0.55663406  0.56752143  1
  Zn  Zn139  1  0.43594116  0.43919483  0.18738287  1
  Zn  Zn140  1  0.43611790  0.43901486  0.69112114  1
  Zn  Zn141  1  0.43660989  0.93671794  0.18465511  1
  Zn  Zn142  1  0.43716460  0.93770525  0.68358880  1
  Zn  Zn143  1  0.94203657  0.42960757  0.18702041  1
  Zn  Zn144  1  0.93943818  0.44780324  0.69060202  1
  Zn  Zn145  1  0.92429811  0.94454707  0.18484481  1
  Zn  Zn146  1  0.93697205  0.93371867  0.68748387  1
  Zn  Zn147  1  0.05331751  0.06334604  0.29553141  1
  Zn  Zn148  1  0.06602932  0.06586018  0.81212745  1
  Zn  Zn149  1  0.05817007  0.56351907  0.31181049  1
  Zn  Zn150  1  0.05754926  0.57199655  0.81176882  1
  Zn  Zn151  1  0.56535005  0.06366890  0.31655150  1
  Zn  Zn152  1  0.56453861  0.06722183  0.80950562  1
  Zn  Zn153  1  0.55955538  0.55787850  0.31468649  1
  Zn  Zn154  1  0.56370035  0.56338328  0.81375487  1
  Zn  Zn155  1  0.43571376  0.18442878  0.44047800  1
  Zn  Zn156  1  0.44114738  0.18741902  0.93456405  1
  Zn  Zn157  1  0.44026013  0.68532840  0.43614706  1
  Zn  Zn158  1  0.44403320  0.68316616  0.93902986  1
  Zn  Zn159  1  0.93389600  0.19518487  0.44022090  1
  Zn  Zn160  1  0.94450878  0.18279013  0.94267146  1
  Zn  Zn161  1  0.93456927  0.68458682  0.43374752  1
  Zn  Zn162  1  0.93456368  0.68868254  0.94109626  1
  Zn  Zn163  1  0.08670536  0.27449266  0.08663335  1
  Zn  Zn164  1  0.06221485  0.31253666  0.56405620  1
  Zn  Zn165  1  0.06040272  0.80083750  0.05533732  1
  Zn  Zn166  1  0.05909778  0.81516768  0.55923869  1
  Zn  Zn167  1  0.56431364  0.30939587  0.06352871  1
  Zn  Zn168  1  0.56398788  0.31191384  0.56375857  1
  Zn  Zn169  1  0.56286735  0.80824514  0.06289261  1
  Zn  Zn170  1  0.56429921  0.80905662  0.56077715  1
  O  O171  1  0.11318419  0.15949509  0.11343240  1
  O  O172  1  0.11510335  0.11932928  0.62040619  1
  O  O173  1  0.11756966  0.61698111  0.12139729  1
  O  O174  1  0.12739042  0.61881127  0.61410085  1
  O  O175  1  0.61355803  0.12729146  0.12571657  1
  O  O176  1  0.61141112  0.12156941  0.62009611  1
  O  O177  1  0.61789352  0.61689303  0.12287379  1
  O  O178  1  0.60952921  0.63126132  0.61221478  1
  O  O179  1  0.37495531  0.38105659  0.38495884  1
  O  O180  1  0.37525463  0.39148639  0.88163526  1
  O  O181  1  0.37272947  0.88137940  0.38476846  1
  O  O182  1  0.38261748  0.88274922  0.88007215  1
  O  O183  1  0.89547350  0.38237576  0.38706139  1
  O  O184  1  0.87910775  0.38467209  0.88231085  1
  O  O185  1  0.88154689  0.87998183  0.37865105  1
  O  O186  1  0.87167625  0.87997103  0.88926939  1
  O  O187  1  0.26325133  0.00208769  0.36923746  1
  O  O188  1  0.25633287  0.00796464  0.86271156  1
  O  O189  1  0.25944329  0.50503670  0.38135377  1
  O  O190  1  0.25948753  0.50045366  0.88091427  1
  O  O191  1  0.75478970  0.00249989  0.36739368  1
  O  O192  1  0.75467150  0.00465017  0.86316750  1
  O  O193  1  0.73165834  0.41605374  0.35302050  1
  O  O194  1  0.75821502  0.49249552  0.86415923  1
  O  O195  1  0.24282785  0.48994260  0.12352430  1
  O  O196  1  0.23524015  0.48926714  0.62381048  1
  O  O197  1  0.25830714  1.00056373  0.13483491  1
  O  O198  1  0.24471953  0.99559820  0.62780043  1
  O  O199  1  0.73511174  0.49011309  0.11961943  1
  O  O200  1  0.75585521  0.48161005  0.63754882  1
  O  O201  1  0.74593838  0.99387397  0.13085592  1
  O  O202  1  0.74850711  0.99751462  0.63706045  1
  O  O203  1  0.00565373  0.37375263  0.26922491  1
  O  O204  1  0.00490446  0.37075544  0.75508108  1
  O  O205  1  -0.00686562  0.86422974  0.25575335  1
  O  O206  1  -0.00908028  0.85445556  0.75099084  1
  O  O207  1  0.48527745  0.37209562  0.26743206  1
  O  O208  1  0.51294020  0.37123557  0.74553499  1
  O  O209  1  0.49984187  0.85875619  0.24231432  1
  O  O210  1  0.50801361  0.87103459  0.75336085  1
  O  O211  1  0.49449414  0.12678764  0.24387694  1
  O  O212  1  0.49812142  0.13555481  0.74258561  1
  O  O213  1  0.49362234  0.62915006  0.24048809  1
  O  O214  1  0.49907541  0.62833181  0.74035997  1
  O  O215  1  0.99338407  0.15283172  0.25671650  1
  O  O216  1  0.99448536  0.13331945  0.74520807  1
  O  O217  1  0.99234398  0.62874443  0.23855118  1
  O  O218  1  0.98944527  0.64612553  0.75589311  1
  O  O219  1  0.38368093  0.24845452  0.01443861  1
  O  O220  1  0.37112593  0.26222891  0.49955065  1
  O  O221  1  0.37153232  0.75183384  0.00550697  1
  O  O222  1  0.37069759  0.75604920  0.50269034  1
  O  O223  1  0.86774066  0.25875831  -0.01144666  1
  O  O224  1  0.86311676  0.24618516  0.51370475  1
  O  O225  1  0.87668055  0.76250041  0.00913491  1
  O  O226  1  0.87414249  0.75488599  0.50347852  1
  O  O227  1  0.12554528  0.24235300  0.49179400  1
  O  O228  1  0.12522985  0.26410429  0.98010233  1
  O  O229  1  0.12696085  0.74507620  0.49281666  1
  O  O230  1  0.13425628  0.74551767  0.98660839  1
  O  O231  1  0.64757886  0.25894688  0.51046957  1
  O  O232  1  0.63126933  0.24873905  0.98956570  1
  O  O233  1  0.62371331  0.74142901  0.48590570  1
  O  O234  1  0.61954877  0.73884977  0.99018987  1
  O  O235  1  0.49585890  0.24402545  0.13300305  1
  O  O236  1  0.50275867  0.24321371  0.63474586  1
  O  O237  1  0.49057724  0.73917905  0.12908278  1
  O  O238  1  0.49520529  0.74356470  0.63047690  1
  O  O239  1  0.99190974  0.27902884  0.15008746  1
  O  O240  1  1.00614229  0.24249306  0.63879033  1
  O  O241  1  0.99230946  0.74044541  0.12934191  1
  O  O242  1  0.99303038  0.75225585  0.63022906  1
  O  O243  1  0.00569988  0.26431493  0.37713494  1
  O  O244  1  0.00679258  0.25626350  0.86360195  1
  O  O245  1  0.00083612  0.75708408  0.36582499  1
  O  O246  1  0.00653645  0.75284124  0.87474209  1
  O  O247  1  0.48843701  0.26210674  0.37390710  1
  O  O248  1  0.51138225  0.24553712  0.86517265  1
  O  O249  1  0.50718969  0.74377997  0.36312773  1
  O  O250  1  0.50484491  0.75580995  0.86778889  1
  O  O251  1  0.24332705  0.12493560  0.49399551  1
  O  O252  1  0.24837302  0.12095364  0.98548405  1
  O  O253  1  0.24053560  0.63180153  0.49406188  1
  O  O254  1  0.25083164  0.63427039  1.00480884  1
  O  O255  1  0.74684413  0.13809419  0.50650108  1
  O  O256  1  0.74877370  0.13003560  0.99224942  1
  O  O257  1  0.73363166  0.61983240  0.50308474  1
  O  O258  1  0.73612817  0.61937783  1.00827221  1
  O  O259  1  0.25752930  0.37490979  0.01942351  1
  O  O260  1  0.25596307  0.37284793  0.51092255  1
  O  O261  1  0.25736269  0.87082089  0.00137530  1
  O  O262  1  0.25872710  0.87138733  0.50490752  1
  O  O263  1  0.75716805  0.36713573  0.00237103  1
  O  O264  1  0.75814196  0.36811585  0.52247547  1
  O  O265  1  0.75532698  0.87901849  0.01260241  1
  O  O266  1  0.76112602  0.87156089  0.49663353  1
  O  O267  1  0.11947424  0.50016696  0.23571187  1
  O  O268  1  0.12067212  0.49666642  0.74489298  1
  O  O269  1  0.14923691  0.99993363  0.26457452  1
  O  O270  1  0.13391305  1.00502087  0.73639402  1
  O  O271  1  0.61759539  0.48181897  0.24410378  1
  O  O272  1  0.63084591  0.48648501  0.75825137  1
  O  O273  1  0.63361415  0.99626477  0.24939892  1
  O  O274  1  0.63278015  0.99125260  0.75029797  1
  O  O275  1  0.37243583  0.00708945  0.25595354  1
  O  O276  1  0.36909656  0.00261211  0.75371357  1
  O  O277  1  0.37969047  0.51212057  0.25946293  1
  O  O278  1  0.37511885  0.49937121  0.76831475  1
  O  O279  1  0.85766319  0.00233062  0.25983887  1
  O  O280  1  0.86911277  0.00545230  0.75603680  1
  O  O281  1  0.88029244  0.50930467  0.24349232  1
  O  O282  1  0.86711301  0.50561416  0.75986601  1
  O  O283  1  0.12425765  0.36676492  0.37736362  1
  O  O284  1  0.12203520  0.37508216  0.86465709  1
  O  O285  1  0.10879650  0.87147124  0.37926985  1
  O  O286  1  0.13663906  0.84800039  0.86478280  1
  O  O287  1  0.59403684  0.37997311  0.38056098  1
  O  O288  1  0.63194117  0.36278020  0.86404130  1
  O  O289  1  0.62262334  0.85642564  0.37096805  1
  O  O290  1  0.62173732  0.86822389  0.86512687  1
  O  O291  1  0.38597548  0.13080283  0.13194127  1
  O  O292  1  0.38805755  0.12243982  0.62619973  1
  O  O293  1  0.38158307  0.62691268  0.13252121  1
  O  O294  1  0.38698352  0.63281460  0.61841643  1
  O  O295  1  0.88747818  0.11858569  0.12499039  1
  O  O296  1  0.88856971  0.11698297  0.63592538  1
  O  O297  1  0.88131491  0.63172269  0.12796732  1
  O  O298  1  0.87060328  0.63693448  0.62316014  1
  O  O299  1  0.26158559  0.25911209  0.13156538  1
  O  O300  1  0.24150175  0.26512618  0.62764141  1
  O  O301  1  0.26363515  0.74540781  0.11808530  1
  O  O302  1  0.25207396  0.75942617  0.61852062  1
  O  O303  1  0.74431999  0.25371894  0.10627644  1
  O  O304  1  0.75370516  0.26191623  0.62895837  1
  O  O305  1  0.76041686  0.75732564  0.13117944  1
  O  O306  1  0.75722779  0.75312190  0.61705950  1
  O  O307  1  0.24211419  0.24136862  0.37664815  1
  O  O308  1  0.24317260  0.24144111  0.86379546  1
  O  O309  1  0.24250837  0.74712597  0.37962204  1
  O  O310  1  0.25842688  0.75013654  0.88503548  1
  O  O311  1  0.76176642  0.25031542  0.39552792  1
  O  O312  1  0.74468369  0.24501351  0.88225547  1
  O  O313  1  0.73526741  0.74819528  0.37177666  1
  O  O314  1  0.73945256  0.75219699  0.86990207  1
  O  O315  1  0.01350393  0.11685536  -0.00315085  1
  O  O316  1  0.00305418  0.12455164  0.50865963  1
  O  O317  1  -0.00000578  0.61934833  0.01144975  1
  O  O318  1  0.01217259  0.62002618  0.49211294  1
  O  O319  1  0.50243970  0.11739244  0.00749539  1
  O  O320  1  0.49924092  0.11589641  0.50680186  1
  O  O321  1  0.50650514  0.61427440  0.01317734  1
  O  O322  1  0.50472841  0.61518088  0.50386598  1
  O  O323  1  0.48931847  0.37931347  0.49755315  1
  O  O324  1  0.49887960  0.38886878  1.00767279  1
  O  O325  1  0.48719217  0.88022087  0.50829387  1
  O  O326  1  0.49729248  0.88131832  0.99421409  1
  O  O327  1  1.01034567  0.38667796  0.49384291  1
  O  O328  1  0.99226735  0.37989875  0.99212055  1
  O  O329  1  0.98745861  0.87797164  0.49033561  1
  O  O330  1  0.98734885  0.87651693  1.00699398  1
  O  O331  1  0.48369298  0.49326807  0.38518863  1
  O  O332  1  0.50246696  0.49893770  0.89032424  1
  O  O333  1  0.48905430  1.00083571  0.38181820  1
  O  O334  1  0.49842662  0.99638734  0.87964318  1
  O  O335  1  1.01221905  0.48993004  0.38709532  1
  O  O336  1  0.99242029  0.49706182  0.87980829  1
  O  O337  1  0.99013127  0.99351404  0.37116108  1
  O  O338  1  0.99130895  0.99798539  0.86498731  1
  O  O339  1  0.01735176  0.00784247  0.18003546  1
  O  O340  1  0.00749502  0.00577779  0.62543344  1
  O  O341  1  0.00653209  0.50393941  0.11919090  1
  O  O342  1  0.01279503  0.49770976  0.61819495  1
  O  O343  1  0.50128475  0.00798665  0.11699193  1
  O  O344  1  0.50160253  0.00599884  0.61604082  1
  O  O345  1  0.50842842  0.50400441  0.12003296  1
  O  O346  1  0.49261222  0.50651785  0.61325903  1
  O  O347  1  0.25184126  0.37618501  0.23674209  1
  O  O348  1  0.24072111  0.38442354  0.74654903  1
  O  O349  1  0.26014055  0.88782724  0.24980920  1
  O  O350  1  0.25530073  0.88929869  0.73895101  1
  O  O351  1  0.75897340  0.36119232  0.22358468  1
  O  O352  1  0.74150998  0.37783850  0.74323514  1
  O  O353  1  0.74883959  0.88327285  0.23783589  1
  O  O354  1  0.74382621  0.88259378  0.74914713  1
  O  O355  1  0.25986785  0.11576921  0.25531103  1
  O  O356  1  0.25245875  0.11604300  0.75258503  1
  O  O357  1  0.25999253  0.63244110  0.25688104  1
  O  O358  1  0.26129131  0.62038387  0.73602449  1
  O  O359  1  0.75074358  0.12144125  0.25067545  1
  O  O360  1  0.75746285  0.12037695  0.75094897  1
  O  O361  1  0.76507833  0.62055916  0.24368015  1
  O  O362  1  0.74638217  0.60984404  0.74123385  1
  O  O363  1  0.37067653  0.11703182  0.36859038  1
  O  O364  1  0.36918534  0.12078003  0.87040762  1
  O  O365  1  0.36860014  0.61851567  0.36958863  1
  O  O366  1  0.38627453  0.60587049  0.87730828  1
  O  O367  1  0.87340911  0.11514502  0.37719324  1
  O  O368  1  0.87089730  0.11508360  0.86784612  1
  O  O369  1  0.87790546  0.62331137  0.35786877  1
  O  O370  1  0.87216801  0.61438931  0.87949387  1
  O  O371  1  0.13814681  0.37641920  0.12899896  1
  O  O372  1  0.12743379  0.38141787  0.63732014  1
  O  O373  1  0.13349505  0.86343330  0.12282122  1
  O  O374  1  0.13648888  0.88330657  0.61637610  1
  O  O375  1  0.63428571  0.38175518  0.11993770  1
  O  O376  1  0.62964663  0.37640505  0.63897414  1
  O  O377  1  0.63166641  0.87414851  0.12699270  1
  O  O378  1  0.62645760  0.87406249  0.63703445  1
  O  O379  1  0.11751323  0.25331801  0.26539121  1
  O  O380  1  0.11679368  0.26010566  0.75712943  1
  O  O381  1  0.10900479  0.74472228  0.25277980  1
  O  O382  1  0.10971701  0.74610088  0.75427923  1
  O  O383  1  0.63147737  0.27992479  0.25535551  1
  O  O384  1  0.61844567  0.26127981  0.75415908  1
  O  O385  1  0.61684806  0.74550094  0.25854816  1
  O  O386  1  0.62074024  0.75501846  0.75534199  1
  O  O387  1  0.37533543  0.23673133  0.24466107  1
  O  O388  1  0.38911898  0.25636599  0.75599616  1
  O  O389  1  0.38109092  0.74093714  0.24399822  1
  O  O390  1  0.38447525  0.75063964  0.74318513  1
  O  O391  1  0.88396192  0.25846765  0.26344364  1
  O  O392  1  0.88179227  0.23783274  0.75974405  1
  O  O393  1  0.88359958  0.74376229  0.24102215  1
  O  O394  1  0.87801027  0.74897727  0.73798588  1
  O  O395  1  0.37811347  0.49286497  0.49483872  1
  O  O396  1  0.38793903  0.49924392  0.99390004  1
  O  O397  1  0.38288909  0.99228303  0.49302642  1
  O  O398  1  0.38738310  0.99660572  0.99331070  1
  O  O399  1  0.89047872  0.50960507  0.50690100  1
  O  O400  1  0.87996516  0.49415966  0.99376373  1
  O  O401  1  0.87430857  0.99290031  0.49203899  1
  O  O402  1  0.87103812  0.98601505  0.98946594  1
  O  O403  1  0.14615751  -0.01277188  0.00843667  1
  O  O404  1  0.12252429  0.00692666  0.50982001  1
  O  O405  1  0.11783601  0.49955335  0.00923608  1
  O  O406  1  0.11993712  0.51014034  0.50813944  1
  O  O407  1  0.61430659  0.00173026  -0.00163716  1
  O  O408  1  0.61155859  -0.01056538  0.49962905  1
  O  O409  1  0.61631368  0.50361026  0.00544215  1
  O  O410  1  0.61180185  0.50442067  0.49452582  1
  O  O411  1  0.36971220  0.36752801  0.12591956  1
  O  O412  1  0.36355640  0.38317403  0.61948199  1
  O  O413  1  0.38045028  0.86350743  0.11492927  1
  O  O414  1  0.36416335  0.86974428  0.61720135  1
  O  O415  1  0.86818182  0.38406994  0.10727116  1
  O  O416  1  0.87134508  0.36989170  0.64000398  1
  O  O417  1  0.86836106  0.87025975  0.11572813  1
  O  O418  1  0.87358638  0.86777352  0.61323288  1
  O  O419  1  0.12607536  0.13009335  0.37972917  1
  O  O420  1  0.13548616  0.13466071  0.87339685  1
  O  O421  1  0.12902686  0.63202754  0.37889996  1
  O  O422  1  0.12611274  0.64173957  0.87397183  1
  O  O423  1  0.62324562  0.12836102  0.38384314  1
  O  O424  1  0.63465206  0.13614753  0.87204440  1
  O  O425  1  0.61750633  0.63214446  0.38182566  1
  O  O426  1  0.62072136  0.63345501  0.88553380  1
