# generated using pymatgen
data_V85Zn86O256
_symmetry_space_group_name_H-M   'P 1'
_cell_length_a   16.94212418
_cell_length_b   16.93419047
_cell_length_c   16.93342677
_cell_angle_alpha   89.94042225
_cell_angle_beta   90.03409384
_cell_angle_gamma   89.99855599
_symmetry_Int_Tables_number   1
_chemical_formula_structural   V85Zn86O256
_chemical_formula_sum   'V85 Zn86 O256'
_cell_volume   4858.21625638
_cell_formula_units_Z   1
loop_
 _symmetry_equiv_pos_site_id
 _symmetry_equiv_pos_as_xyz
  1  'x, y, z'
loop_
 _atom_site_type_symbol
 _atom_site_label
 _atom_site_symmetry_multiplicity
 _atom_site_fract_x
 _atom_site_fract_y
 _atom_site_fract_z
 _atom_site_occupancy
  V  V0  1  0.12541481  0.00237476  0.63010592  1
  V  V1  1  0.74933146  0.49771002  0.74924473  1
  V  V2  1  0.87435017  0.49833375  0.87635966  1
  V  V3  1  0.75546763  0.74453047  -0.00021161  1
  V  V4  1  0.25148908  0.24679215  -0.00469893  1
  V  V5  1  0.39035719  0.50433767  0.87603893  1
  V  V6  1  0.50256686  0.12605926  0.61762001  1
  V  V7  1  0.49904397  0.50346944  0.49923974  1
  V  V8  1  0.75210757  0.24956327  0.50588542  1
  V  V9  1  0.12778240  0.88230267  0.23535507  1
  V  V10  1  0.63265390  0.63696064  0.49719018  1
  V  V11  1  0.01108676  0.00540242  0.00081103  1
  V  V12  1  0.75651945  0.12754309  0.86713619  1
  V  V13  1  0.50979790  0.87927990  0.86941471  1
  V  V14  1  0.13025054  0.36713495  0.25561918  1
  V  V15  1  0.87712815  0.12311044  0.24559866  1
  V  V16  1  0.24543675  0.24986547  0.48896966  1
  V  V17  1  0.24824716  0.50667093  0.76207961  1
  V  V18  1  0.62392722  0.24850022  0.37568070  1
  V  V19  1  0.36938315  0.75549793  0.12989602  1
  V  V20  1  0.74983510  0.37867120  0.12642191  1
  V  V21  1  0.61341036  0.86291026  0.26706141  1
  V  V22  1  0.24986461  0.11368531  0.87052631  1
  V  V23  1  0.12199237  0.12679655  0.49714450  1
  V  V24  1  0.25071432  0.50659352  0.24842437  1
  V  V25  1  0.37981729  0.25104419  0.12576566  1
  V  V26  1  0.11905672  0.74643415  0.37787907  1
  V  V27  1  0.37343732  0.37573028  0.49937175  1
  V  V28  1  0.00438250  0.62759986  0.11835654  1
  V  V29  1  0.00011562  0.87132379  0.87556066  1
  V  V30  1  0.12753358  0.24257296  0.87173613  1
  V  V31  1  0.38912943  0.37807443  -0.00734880  1
  V  V32  1  0.00447263  0.36768507  0.37616992  1
  V  V33  1  0.12933155  0.87792318  0.76044262  1
  V  V34  1  0.37456128  0.50655596  0.37637024  1
  V  V35  1  0.25327187  0.37748383  0.12241797  1
  V  V36  1  0.25049736  0.74586144  -0.01520026  1
  V  V37  1  0.24658274  0.87909456  0.62710359  1
  V  V38  1  0.87576997  0.87322467  0.00369150  1
  V  V39  1  0.24791378  0.37490259  0.62367463  1
  V  V40  1  0.61941198  0.25654231  0.87746835  1
  V  V41  1  0.12586096  0.51037840  0.62227089  1
  V  V42  1  0.86187564  0.87161098  0.49853118  1
  V  V43  1  0.00180186  0.50885935  0.49544535  1
  V  V44  1  0.38517533  0.00218933  0.87721574  1
  V  V45  1  0.74950640  0.24809125  0.00310088  1
  V  V46  1  0.74729645  0.12416863  0.37357392  1
  V  V47  1  0.12535959  0.37254968  0.74722914  1
  V  V48  1  0.00986069  0.74892619  0.75151854  1
  V  V49  1  0.61318058  0.62260311  -0.00588735  1
  V  V50  1  0.24966488  0.11031690  0.37512643  1
  V  V51  1  0.43868397  0.91979307  0.44451717  1
  V  V52  1  0.62363596  0.37870053  0.25082544  1
  V  V53  1  -0.00007264  0.87394218  0.37602922  1
  V  V54  1  0.00206289  0.62621623  0.61919217  1
  V  V55  1  0.62377709  -0.00786336  0.62650922  1
  V  V56  1  0.87558321  0.62410821  0.74786845  1
  V  V57  1  0.87642585  0.37252779  0.50488697  1
  V  V58  1  0.87206938  0.75024391  0.62379462  1
  V  V59  1  0.50177986  0.11385903  0.12323825  1
  V  V60  1  0.50773484  0.75686639  0.74389401  1
  V  V61  1  -0.00375104  0.75035412  0.24114764  1
  V  V62  1  0.49466753  0.62637582  0.62343701  1
  V  V63  1  0.87838394  0.24936033  0.12907704  1
  V  V64  1  0.49875909  0.24573539  0.25200734  1
  V  V65  1  -0.01509100  0.12575344  0.62758349  1
  V  V66  1  0.37645294  0.11082362  0.25395044  1
  V  V67  1  0.00057000  0.37051882  0.87600017  1
  V  V68  1  0.00602029  0.49421144  -0.00010154  1
  V  V69  1  0.37211014  0.24822046  0.62471649  1
  V  V70  1  0.87704029  0.62041231  0.24422027  1
  V  V71  1  0.37319309  0.11307993  0.74568678  1
  V  V72  1  0.37890239  0.87680133  -0.00054005  1
  V  V73  1  0.24178200  0.75261729  0.50657352  1
  V  V74  1  0.87336655  -0.00207386  0.37348762  1
  V  V75  1  0.49643633  0.25629106  0.75321465  1
  V  V76  1  0.62508363  0.49587156  0.62217325  1
  V  V77  1  -0.01442248  0.24494571  0.74665045  1
  V  V78  1  0.49834082  0.37594367  0.37454706  1
  V  V79  1  0.50051289  0.62884236  0.13636276  1
  V  V80  1  0.36493062  0.74958360  0.62499662  1
  V  V81  1  0.62250461  0.11552384  -0.00179799  1
  V  V82  1  0.74618401  0.87080576  0.63753996  1
  V  V83  1  0.24554121  0.62854908  0.38166304  1
  V  V84  1  0.74729572  0.87214175  0.12512221  1
  Zn  Zn85  1  0.62982776  0.75425968  0.86788456  1
  Zn  Zn86  1  0.00918685  0.24364237  0.25409748  1
  Zn  Zn87  1  0.12851267  0.50096559  0.12194008  1
  Zn  Zn88  1  0.37734614  0.63586697  0.25565515  1
  Zn  Zn89  1  0.75566852  0.00311510  0.74833243  1
  Zn  Zn90  1  0.61530012  0.49785821  0.11844495  1
  Zn  Zn91  1  0.87755774  0.00335018  0.87084997  1
  Zn  Zn92  1  0.74661131  -0.00484966  0.24683605  1
  Zn  Zn93  1  0.74903155  0.50325304  0.24996660  1
  Zn  Zn94  1  0.62247595  -0.00800289  0.12572944  1
  Zn  Zn95  1  0.61764775  0.37959104  0.75657615  1
  Zn  Zn96  1  0.87042331  0.49743170  0.37123215  1
  Zn  Zn97  1  0.74790177  0.62479143  0.87581265  1
  Zn  Zn98  1  0.37081969  0.62889633  0.75610773  1
  Zn  Zn99  1  0.03169166  0.10492625  0.13201688  1
  Zn  Zn100  1  0.24757201  -0.00294671  0.22902588  1
  Zn  Zn101  1  0.13123434  0.62589510  -0.01389445  1
  Zn  Zn102  1  -0.00206555  -0.00082100  0.50332310  1
  Zn  Zn103  1  0.73991328  0.63349128  0.36750386  1
  Zn  Zn104  1  0.75279156  0.36961993  0.62763681  1
  Zn  Zn105  1  0.87721862  0.37331007  0.00339918  1
  Zn  Zn106  1  0.61878059  0.12054574  0.49583659  1
  Zn  Zn107  1  0.19508420  0.18324174  0.18637082  1
  Zn  Zn108  1  0.18695986  0.18501412  0.68593377  1
  Zn  Zn109  1  0.18605763  0.69110476  0.18479671  1
  Zn  Zn110  1  0.18911937  0.68850777  0.81055485  1
  Zn  Zn111  1  0.68717826  0.18687682  0.18821238  1
  Zn  Zn112  1  0.68171190  0.18929819  0.68814262  1
  Zn  Zn113  1  0.68886888  0.69085564  0.18152609  1
  Zn  Zn114  1  0.68742090  0.68363347  0.68183481  1
  Zn  Zn115  1  0.31378616  0.31082300  0.31189958  1
  Zn  Zn116  1  0.31442679  0.31418423  0.81170845  1
  Zn  Zn117  1  0.30849202  0.81713572  0.31369703  1
  Zn  Zn118  1  0.32083520  0.82217653  0.80677886  1
  Zn  Zn119  1  0.81395156  0.31271690  0.31595923  1
  Zn  Zn120  1  0.80790274  0.31443471  0.81528315  1
  Zn  Zn121  1  0.80584542  0.80466663  0.30896694  1
  Zn  Zn122  1  0.81756819  0.81097962  0.81508444  1
  Zn  Zn123  1  0.18518524  0.44044980  0.43701913  1
  Zn  Zn124  1  0.18898008  0.43306347  0.93657841  1
  Zn  Zn125  1  0.18455163  0.93538577  0.43965821  1
  Zn  Zn126  1  0.19550132  0.93599230  1.05005669  1
  Zn  Zn127  1  0.69099885  0.44301003  0.43497612  1
  Zn  Zn128  1  0.68692414  0.43849673  0.94042640  1
  Zn  Zn129  1  0.68246941  0.93850019  0.44206115  1
  Zn  Zn130  1  0.69048215  0.93907173  0.93752911  1
  Zn  Zn131  1  0.32016192  0.06445328  0.05805627  1
  Zn  Zn132  1  0.31607071  0.05447777  0.55662475  1
  Zn  Zn133  1  0.31879446  0.56709803  0.05856573  1
  Zn  Zn134  1  0.30723745  0.56589079  0.56303712  1
  Zn  Zn135  1  0.81382814  0.05743646  0.05844473  1
  Zn  Zn136  1  0.80775123  0.05731477  0.55929769  1
  Zn  Zn137  1  0.81507410  0.56234254  0.06359437  1
  Zn  Zn138  1  0.81387980  0.55870381  0.56054595  1
  Zn  Zn139  1  0.43729870  0.44413979  0.18640704  1
  Zn  Zn140  1  0.43407531  0.43891744  0.68837926  1
  Zn  Zn141  1  0.44138084  0.93024044  0.19233829  1
  Zn  Zn142  1  0.44995204  0.92400903  0.65712847  1
  Zn  Zn143  1  0.94177430  0.43583891  0.18679646  1
  Zn  Zn144  1  0.93868560  0.43451716  0.68546628  1
  Zn  Zn145  1  0.93611101  0.93579068  0.18361047  1
  Zn  Zn146  1  0.93482862  0.94090613  0.69076344  1
  Zn  Zn147  1  0.06201552  0.06126762  0.31645340  1
  Zn  Zn148  1  0.06001016  0.06048472  0.81248801  1
  Zn  Zn149  1  0.06223502  0.56034298  0.31068315  1
  Zn  Zn150  1  0.05968863  0.55921037  0.81120515  1
  Zn  Zn151  1  0.55971229  0.04382471  0.31648008  1
  Zn  Zn152  1  0.56541359  0.06605071  0.80354304  1
  Zn  Zn153  1  0.56433388  0.56552820  0.31391606  1
  Zn  Zn154  1  0.56147870  0.56670134  0.80856319  1
  Zn  Zn155  1  0.43167817  0.18420118  0.43573056  1
  Zn  Zn156  1  0.43886507  0.18723207  0.93775888  1
  Zn  Zn157  1  0.43489948  0.70555759  0.43576684  1
  Zn  Zn158  1  0.43914968  0.69397847  0.93472357  1
  Zn  Zn159  1  0.93633158  0.18785423  0.43774620  1
  Zn  Zn160  1  0.93901907  0.18792429  0.94177148  1
  Zn  Zn161  1  0.90460784  0.70016424  0.42059781  1
  Zn  Zn162  1  0.93966291  0.68599177  0.93635593  1
  Zn  Zn163  1  0.08145142  0.28154643  0.07742013  1
  Zn  Zn164  1  0.06020266  0.30979176  0.56360957  1
  Zn  Zn165  1  0.06383337  0.80875671  0.05634668  1
  Zn  Zn166  1  0.06071228  0.81398786  0.56216603  1
  Zn  Zn167  1  0.56466669  0.30653444  0.06541456  1
  Zn  Zn168  1  0.56257384  0.31134518  0.56133542  1
  Zn  Zn169  1  0.56184341  0.80739173  0.05912784  1
  Zn  Zn170  1  0.54551750  0.80893860  0.53237552  1
  O  O171  1  0.11510760  0.17381174  0.11159292  1
  O  O172  1  0.12159803  0.11755505  0.61676032  1
  O  O173  1  0.11744168  0.62194617  0.11805988  1
  O  O174  1  0.11718554  0.61100670  0.62763448  1
  O  O175  1  0.61864726  0.12380237  0.11869289  1
  O  O176  1  0.61674569  0.12335473  0.61996087  1
  O  O177  1  0.61274995  0.62682806  0.11668816  1
  O  O178  1  0.61634751  0.61278550  0.61810141  1
  O  O179  1  0.37917730  0.38217903  0.38059977  1
  O  O180  1  0.37566314  0.38045923  0.88702892  1
  O  O181  1  0.36484090  0.88218357  0.38215879  1
  O  O182  1  0.38533860  0.88657959  0.87701775  1
  O  O183  1  0.88445942  0.37830778  0.38249042  1
  O  O184  1  0.87874302  0.38442377  0.87768807  1
  O  O185  1  0.87940562  0.88076559  0.37933088  1
  O  O186  1  0.88324649  0.87625280  0.88473241  1
  O  O187  1  0.24139885  0.00952958  0.37136888  1
  O  O188  1  0.26554339  0.01425331  0.87688651  1
  O  O189  1  0.25408461  0.51021819  0.37032355  1
  O  O190  1  0.25932651  0.49087337  0.86585355  1
  O  O191  1  0.75988957  0.00615995  0.37514833  1
  O  O192  1  0.74725480  0.01835077  0.87488922  1
  O  O193  1  0.75207271  0.51231515  0.36904436  1
  O  O194  1  0.75767421  0.50010815  0.86820942  1
  O  O195  1  0.25368923  0.49596639  0.13083712  1
  O  O196  1  0.24245078  0.49337080  0.62974563  1
  O  O197  1  0.24209568  1.01226026  0.11668954  1
  O  O198  1  0.23987639  0.99039121  0.61919182  1
  O  O199  1  0.74665677  0.48708028  0.12499863  1
  O  O200  1  0.74157535  0.49705387  0.63152901  1
  O  O201  1  0.74752017  0.98770329  0.12377439  1
  O  O202  1  0.74391634  0.98999201  0.62667520  1
  O  O203  1  0.01317209  0.37530185  0.25787882  1
  O  O204  1  0.00813898  0.36791968  0.75380647  1
  O  O205  1  0.00542225  0.86907902  0.25388491  1
  O  O206  1  0.00476611  0.86719012  0.75524455  1
  O  O207  1  0.50429789  0.37064431  0.25424771  1
  O  O208  1  0.49837524  0.36116180  0.74350596  1
  O  O209  1  0.51356003  0.86977523  0.25427356  1
  O  O210  1  0.49450778  0.86648262  0.75266028  1
  O  O211  1  0.49408018  0.12384072  0.24883206  1
  O  O212  1  0.49175589  0.13808329  0.74065933  1
  O  O213  1  0.49986948  0.62958586  0.24034055  1
  O  O214  1  0.49662195  0.63047371  0.73546036  1
  O  O215  1  0.99406512  0.12492621  0.24541045  1
  O  O216  1  1.00326909  0.13368205  0.74072976  1
  O  O217  1  1.00331731  0.63122101  0.23696572  1
  O  O218  1  0.99392900  0.63113096  0.74138795  1
  O  O219  1  0.37213268  0.26233794  0.00228907  1
  O  O220  1  0.36590779  0.25532974  0.50532113  1
  O  O221  1  0.36822239  0.75450936  0.00456712  1
  O  O222  1  0.35557371  0.74116390  0.51734660  1
  O  O223  1  0.86796761  0.25052586  0.01078354  1
  O  O224  1  0.86402595  0.25907368  0.49230683  1
  O  O225  1  0.86774720  0.75752187  -0.00678597  1
  O  O226  1  0.88913754  0.76004247  0.51740904  1
  O  O227  1  0.13478277  0.24033710  0.50740688  1
  O  O228  1  0.13912391  0.26417550  0.97826038  1
  O  O229  1  0.12459741  0.75151023  0.48633618  1
  O  O230  1  0.14764463  0.75369852  0.99958634  1
  O  O231  1  0.63126042  0.24774022  0.49072919  1
  O  O232  1  0.63089388  0.24249267  0.99545919  1
  O  O233  1  0.62932616  0.73443944  0.51519637  1
  O  O234  1  0.63321316  0.73642466  0.99471943  1
  O  O235  1  0.49751069  0.24063237  0.13488868  1
  O  O236  1  0.49285368  0.24465207  0.62974616  1
  O  O237  1  0.48625080  0.73726098  0.11711416  1
  O  O238  1  0.48801840  0.74317296  0.62612404  1
  O  O239  1  0.98121213  0.26175855  0.13295922  1
  O  O240  1  1.00331482  0.23921063  0.63519563  1
  O  O241  1  1.00653679  0.74053351  0.12850191  1
  O  O242  1  0.99705183  0.74542903  0.63310286  1
  O  O243  1  -0.00137289  0.26255867  0.37334472  1
  O  O244  1  0.00845363  0.25117723  0.86952423  1
  O  O245  1  0.00221843  0.75744527  0.36648494  1
  O  O246  1  -0.00548185  0.76148442  0.86595339  1
  O  O247  1  0.50370022  0.25449509  0.37097143  1
  O  O248  1  0.50737751  0.24597280  0.86625827  1
  O  O249  1  0.48560866  0.80434015  0.43306228  1
  O  O250  1  0.50083807  0.75989789  0.86056840  1
  O  O251  1  0.24476515  0.13026260  0.49313354  1
  O  O252  1  0.26307562  0.14221877  0.98727159  1
  O  O253  1  0.24535058  0.63177287  0.48852643  1
  O  O254  1  0.25281625  0.64048439  0.99785182  1
  O  O255  1  0.75245973  0.13213641  0.48665561  1
  O  O256  1  0.74200919  0.13173926  0.99555314  1
  O  O257  1  0.73331058  0.61800248  0.50432333  1
  O  O258  1  0.74518107  0.63058075  0.99969774  1
  O  O259  1  0.25986600  0.36811506  0.00604308  1
  O  O260  1  0.25264614  0.36802880  0.50226038  1
  O  O261  1  0.26802788  0.86263892  -0.00315494  1
  O  O262  1  0.23702469  0.86142998  0.51049506  1
  O  O263  1  0.75049182  0.36675967  0.00975773  1
  O  O264  1  0.75787932  0.36786979  0.49804319  1
  O  O265  1  0.75708574  0.86859788  0.00295624  1
  O  O266  1  0.75981476  0.87568752  0.50887465  1
  O  O267  1  0.13932251  0.49183277  0.24760273  1
  O  O268  1  0.13096188  0.49066514  0.74384039  1
  O  O269  1  0.11961478  0.98525546  0.24957932  1
  O  O270  1  0.12080523  0.99301694  0.73836950  1
  O  O271  1  0.62326659  0.48887248  0.24668986  1
  O  O272  1  0.63162093  0.49949209  0.74279574  1
  O  O273  1  0.62897472  0.98138853  0.24719303  1
  O  O274  1  0.63814871  1.01106058  0.73257870  1
  O  O275  1  0.37025056  0.00815100  0.24175835  1
  O  O276  1  0.37918799  0.01181964  0.75397912  1
  O  O277  1  0.36408933  0.50450812  0.25772983  1
  O  O278  1  0.36674518  0.49766818  0.76260845  1
  O  O279  1  0.87262583  0.00604524  0.25551717  1
  O  O280  1  0.86861433  -0.00112716  0.75748708  1
  O  O281  1  0.87265323  0.50511592  0.24623027  1
  O  O282  1  0.86927218  0.50120908  0.75489673  1
  O  O283  1  0.11968076  0.37780132  0.36721150  1
  O  O284  1  0.12189884  0.36914869  0.86107087  1
  O  O285  1  0.11362324  0.86919836  0.36810273  1
  O  O286  1  0.11484474  0.87855777  0.86146380  1
  O  O287  1  0.61847989  0.37153685  0.36806790  1
  O  O288  1  0.62899166  0.36144545  0.87718384  1
  O  O289  1  0.63872633  0.86982868  0.36514547  1
  O  O290  1  0.61369424  0.87673024  0.87750158  1
  O  O291  1  0.38510631  0.13213346  0.13132331  1
  O  O292  1  0.37856864  0.12705736  0.62914261  1
  O  O293  1  0.38427982  0.63486781  0.12820016  1
  O  O294  1  0.37967823  0.62883770  0.62817996  1
  O  O295  1  0.86780894  0.13108532  0.13666076  1
  O  O296  1  0.88618492  0.12010908  0.61582456  1
  O  O297  1  0.89227989  0.61766146  0.13152072  1
  O  O298  1  0.88010594  0.63095303  0.62805710  1
  O  O299  1  0.26227376  0.25842028  0.11528389  1
  O  O300  1  0.25437940  0.25579077  0.61696969  1
  O  O301  1  0.26582147  0.74535586  0.11458222  1
  O  O302  1  0.24922180  0.75518819  0.61871079  1
  O  O303  1  0.75630852  0.25835064  0.12344190  1
  O  O304  1  0.74252963  0.25057870  0.61006867  1
  O  O305  1  0.75035239  0.75717134  0.10815744  1
  O  O306  1  0.76110777  0.75559366  0.62941645  1
  O  O307  1  0.25377334  0.24337049  0.38609714  1
  O  O308  1  0.24600259  0.24493720  0.87710608  1
  O  O309  1  0.23941430  0.74617478  0.38209562  1
  O  O310  1  0.26143520  0.75025823  0.87972313  1
  O  O311  1  0.74304300  0.24258894  0.38032504  1
  O  O312  1  0.74328261  0.24367205  0.88326872  1
  O  O313  1  0.79458636  0.73012783  0.38871933  1
  O  O314  1  0.74847915  0.74683955  0.88289973  1
  O  O315  1  -0.00258825  0.10848577  -0.00017821  1
  O  O316  1  0.00733326  0.12572146  0.50603795  1
  O  O317  1  0.00309199  0.61568381  0.00330078  1
  O  O318  1  -0.00752832  0.61190849  0.50242048  1
  O  O319  1  0.50942815  0.13292841  0.01179639  1
  O  O320  1  0.49750185  0.13190423  0.51329837  1
  O  O321  1  0.51097551  0.62965922  0.00360740  1
  O  O322  1  0.50493383  0.62337581  0.50902187  1
  O  O323  1  0.49361211  0.38128435  0.49378717  1
  O  O324  1  0.48702010  0.37246662  1.00871642  1
  O  O325  1  0.48234749  0.89992897  0.54587262  1
  O  O326  1  0.48870341  0.86502380  0.98497578  1
  O  O327  1  0.99467500  0.37855405  0.49483861  1
  O  O328  1  0.99958271  0.38066931  0.99259551  1
  O  O329  1  0.99297932  0.87635241  0.48770426  1
  O  O330  1  0.99434498  0.87671854  0.99251807  1
  O  O331  1  0.49274460  0.49751406  0.37905218  1
  O  O332  1  0.48867144  0.49451615  0.86555987  1
  O  O333  1  0.50228540  0.98044993  0.39135866  1
  O  O334  1  0.49380122  0.99653432  0.86475758  1
  O  O335  1  1.00513230  0.48787980  0.38328317  1
  O  O336  1  0.99260780  0.49037834  0.87858801  1
  O  O337  1  0.98811311  0.99227716  0.37562260  1
  O  O338  1  0.99888028  0.98944721  0.88242231  1
  O  O339  1  -0.00160862  -0.00213991  0.10886516  1
  O  O340  1  0.00700418  0.00763235  0.62392212  1
  O  O341  1  0.00577216  0.50261759  0.11385774  1
  O  O342  1  0.00628181  0.50318096  0.61761707  1
  O  O343  1  0.50086120  0.01079743  0.12855864  1
  O  O344  1  0.51633435  0.01585422  0.64090268  1
  O  O345  1  0.49679160  0.52094214  0.12496011  1
  O  O346  1  0.50364851  0.50645283  0.62074096  1
  O  O347  1  0.25002858  0.38275504  0.24353185  1
  O  O348  1  0.24304077  0.38048877  0.74356904  1
  O  O349  1  0.23061154  0.87754712  0.25080357  1
  O  O350  1  0.23765478  0.87072728  0.74292426  1
  O  O351  1  0.73962633  0.37375880  0.24488410  1
  O  O352  1  0.74635929  0.38575519  0.74746255  1
  O  O353  1  0.75563903  0.87226963  0.23442105  1
  O  O354  1  0.75152939  0.87150622  0.74017289  1
  O  O355  1  0.25687078  0.12244964  0.25812251  1
  O  O356  1  0.26176697  0.13214514  0.75755915  1
  O  O357  1  0.25053125  0.62079881  0.25866545  1
  O  O358  1  0.25177044  0.61065299  0.74838641  1
  O  O359  1  0.75555988  0.12281846  0.26045318  1
  O  O360  1  0.74900322  0.13568095  0.76558975  1
  O  O361  1  0.76264714  0.62574665  0.24334940  1
  O  O362  1  0.75593438  0.61305976  0.75010034  1
  O  O363  1  0.36407069  0.12676942  0.36407869  1
  O  O364  1  0.37444001  0.12019417  0.86692834  1
  O  O365  1  0.36836885  0.62863463  0.37542505  1
  O  O366  1  0.38294747  0.60936573  0.87502053  1
  O  O367  1  0.87090958  0.11773686  0.36569501  1
  O  O368  1  0.85855192  0.12936206  0.88193871  1
  O  O369  1  0.89805770  0.61114603  0.34966398  1
  O  O370  1  0.87667026  0.61161918  0.86720551  1
  O  O371  1  0.14190922  0.37418167  0.13052877  1
  O  O372  1  0.12702340  0.37980380  0.63437315  1
  O  O373  1  0.12487201  0.87310388  0.13234413  1
  O  O374  1  0.12765824  0.88238025  0.63266236  1
  O  O375  1  0.62989770  0.37570806  0.13293212  1
  O  O376  1  0.62434839  0.38717892  0.62508827  1
  O  O377  1  0.63443669  0.87297406  0.12131485  1
  O  O378  1  0.63215432  0.88668512  0.62141284  1
  O  O379  1  0.13125175  0.26413289  0.25230299  1
  O  O380  1  0.12154925  0.25638034  0.75596578  1
  O  O381  1  0.11689370  0.76049086  0.25598909  1
  O  O382  1  0.11475305  0.75879964  0.74920787  1
  O  O383  1  0.61876336  0.25910007  0.25526099  1
  O  O384  1  0.61520554  0.25354345  0.75896422  1
  O  O385  1  0.63429733  0.76491077  0.24757908  1
  O  O386  1  0.61183367  0.74245661  0.74679494  1
  O  O387  1  0.38075401  0.24204162  0.24464106  1
  O  O388  1  0.37906192  0.24434569  0.74315917  1
  O  O389  1  0.36622042  0.75392339  0.23465744  1
  O  O390  1  0.38185354  0.74639893  0.73967297  1
  O  O391  1  0.87500314  0.23961130  0.24693128  1
  O  O392  1  0.88714893  0.25755349  0.75475568  1
  O  O393  1  0.89198960  0.74210879  0.24586451  1
  O  O394  1  0.88568853  0.74586026  0.74103811  1
  O  O395  1  0.37835314  0.49704253  0.49542396  1
  O  O396  1  0.37270431  0.48986841  0.98671356  1
  O  O397  1  0.37717615  0.99123921  0.48986626  1
  O  O398  1  0.37950441  0.99197244  0.98826061  1
  O  O399  1  0.88401937  0.49157451  0.49640585  1
  O  O400  1  0.88540319  0.49825906  0.99193712  1
  O  O401  1  0.87645959  0.98984729  0.49080705  1
  O  O402  1  0.88270546  0.98971550  0.99254115  1
  O  O403  1  0.10924269  -0.00844128  -0.00602256  1
  O  O404  1  0.12050462  0.00714087  0.51014619  1
  O  O405  1  0.11615455  0.49861526  -0.00206297  1
  O  O406  1  0.11533954  0.49373268  0.51085008  1
  O  O407  1  0.62590856  0.01289274  0.00145886  1
  O  O408  1  0.63240206  0.00669869  0.51900712  1
  O  O409  1  0.62960173  0.51755983  0.00114548  1
  O  O410  1  0.61607916  0.50380487  0.50606120  1
  O  O411  1  0.36886878  0.37459267  0.11749946  1
  O  O412  1  0.36758087  0.37128586  0.61749981  1
  O  O413  1  0.38479679  0.86278230  0.11575921  1
  O  O414  1  0.35347392  0.86440268  0.63583368  1
  O  O415  1  0.86475690  0.36847221  0.12707113  1
  O  O416  1  0.87337491  0.37747636  0.60989569  1
  O  O417  1  0.86774213  0.87649625  0.11061477  1
  O  O418  1  0.86813826  0.86892639  0.61892269  1
  O  O419  1  0.12987327  0.12233297  0.38861404  1
  O  O420  1  0.13531210  0.13243233  0.86681544  1
  O  O421  1  0.13177103  0.63568348  0.36699053  1
  O  O422  1  0.12023586  0.62720605  0.87280625  1
  O  O423  1  0.63206339  0.12553382  0.37379793  1
  O  O424  1  0.63067064  0.13546810  0.88160798  1
  O  O425  1  0.62159544  0.62874026  0.39103024  1
  O  O426  1  0.62477557  0.62718128  0.88356134  1
