# generated using pymatgen
data_V85Zn86O256
_symmetry_space_group_name_H-M   'P 1'
_cell_length_a   16.96299585
_cell_length_b   16.95448648
_cell_length_c   16.95531970
_cell_angle_alpha   90.19237422
_cell_angle_beta   90.04008896
_cell_angle_gamma   90.04749600
_symmetry_Int_Tables_number   1
_chemical_formula_structural   V85Zn86O256
_chemical_formula_sum   'V85 Zn86 O256'
_cell_volume   4876.30065545
_cell_formula_units_Z   1
loop_
 _symmetry_equiv_pos_site_id
 _symmetry_equiv_pos_as_xyz
  1  'x, y, z'
loop_
 _atom_site_type_symbol
 _atom_site_label
 _atom_site_symmetry_multiplicity
 _atom_site_fract_x
 _atom_site_fract_y
 _atom_site_fract_z
 _atom_site_occupancy
  V  V0  1  0.24600339  -0.00178547  0.23315642  1
  V  V1  1  0.49731043  0.50115602  -0.00022242  1
  V  V2  1  0.24020327  0.13184325  0.87383047  1
  V  V3  1  0.87841885  0.37340690  0.49049593  1
  V  V4  1  0.73705089  0.87699033  0.12749817  1
  V  V5  1  0.74472730  -0.00096281  0.25477074  1
  V  V6  1  0.25282938  0.00194738  0.74423902  1
  V  V7  1  0.87696910  0.12523559  0.75137460  1
  V  V8  1  0.38464285  0.12870975  0.24256801  1
  V  V9  1  0.62603047  0.50159180  0.62506929  1
  V  V10  1  0.62413211  0.87150500  0.74728314  1
  V  V11  1  0.00309777  0.75355571  0.74860910  1
  V  V12  1  0.38787356  0.12935721  0.74382733  1
  V  V13  1  0.13059045  0.38384509  0.25680241  1
  V  V14  1  0.37521518  0.00123641  0.87525016  1
  V  V15  1  0.37609743  0.50197008  0.87360678  1
  V  V16  1  0.50268610  0.37093978  0.36476134  1
  V  V17  1  0.25214373  0.24776765  0.50181859  1
  V  V18  1  -0.00048726  0.25506200  0.25188357  1
  V  V19  1  0.12587189  0.37365300  0.75507254  1
  V  V20  1  0.36803852  0.37639117  0.00274927  1
  V  V21  1  -0.00134553  0.87747543  0.87980178  1
  V  V22  1  0.00033815  -0.00032843  0.49986402  1
  V  V23  1  0.36522627  0.87238838  0.00304593  1
  V  V24  1  0.37422194  0.86917175  0.49133981  1
  V  V25  1  0.87484676  0.62272688  0.24234565  1
  V  V26  1  0.49914163  0.75007244  0.74605597  1
  V  V27  1  0.75315657  0.37470001  0.62395420  1
  V  V28  1  0.88325789  0.50507268  0.88515107  1
  V  V29  1  0.13512658  0.75410397  0.87896412  1
  V  V30  1  0.62258501  0.36437257  0.75179960  1
  V  V31  1  0.39089996  0.24663216  0.62418457  1
  V  V32  1  0.62382390  0.75370198  0.36367947  1
  V  V33  1  0.12796565  -0.00014194  0.62576787  1
  V  V34  1  0.50003087  0.36413841  0.87058519  1
  V  V35  1  0.86832014  0.00408207  0.37745453  1
  V  V36  1  0.25300439  0.62492399  0.38249594  1
  V  V37  1  0.24964826  0.50258817  0.74975433  1
  V  V38  1  0.00484468  0.87993123  0.37343060  1
  V  V39  1  0.00271561  0.12679480  0.62697362  1
  V  V40  1  0.37206298  0.49656314  0.36206242  1
  V  V41  1  0.74601098  0.74093015  0.49255616  1
  V  V42  1  0.75049697  0.24011902  0.49759240  1
  V  V43  1  0.87523827  0.25227114  0.62393107  1
  V  V44  1  0.87655936  0.62602010  0.75008692  1
  V  V45  1  0.87381338  0.87487023  0.49782247  1
  V  V46  1  0.13265689  0.75267102  0.38158758  1
  V  V47  1  0.62439214  0.62211058  0.00020345  1
  V  V48  1  0.35933629  0.75110879  0.12194183  1
  V  V49  1  0.74483149  0.50577020  0.25657051  1
  V  V50  1  0.00429017  0.37963894  0.88623108  1
  V  V51  1  0.11722044  0.50505807  0.11574768  1
  V  V52  1  0.87812034  0.12510021  0.25421310  1
  V  V53  1  0.87533096  0.01144633  0.89145129  1
  V  V54  1  0.37641380  0.62613564  0.74771213  1
  V  V55  1  0.00570238  0.25034669  0.75487522  1
  V  V56  1  0.87658587  0.87035809  0.00411294  1
  V  V57  1  0.37144698  0.62286818  0.24704045  1
  V  V58  1  0.74657401  0.87254699  0.62259145  1
  V  V59  1  0.62573519  0.49733287  0.12514344  1
  V  V60  1  0.62351646  0.74929483  0.87441173  1
  V  V61  1  0.37678944  -0.00476948  0.36918489  1
  V  V62  1  0.74456986  0.75485143  0.00107118  1
  V  V63  1  0.61959452  0.00845011  0.62246193  1
  V  V64  1  0.11775405  0.25449710  0.37815458  1
  V  V65  1  0.87017462  0.51015336  0.37833967  1
  V  V66  1  0.37681880  0.37341062  0.49803356  1
  V  V67  1  0.87438008  0.75139931  0.62290262  1
  V  V68  1  0.49848649  0.00073345  0.49685039  1
  V  V69  1  0.00298673  0.62533310  0.62019123  1
  V  V70  1  0.00371111  0.49630949  0.49461850  1
  V  V71  1  0.23397338  0.25172530  -0.00058272  1
  V  V72  1  0.50343691  0.87516034  0.88191286  1
  V  V73  1  0.12850542  0.87248897  0.22943818  1
  V  V74  1  0.61834554  0.01960003  0.12576180  1
  V  V75  1  0.25193100  0.37308359  0.62665627  1
  V  V76  1  -0.00174532  0.74544588  0.25070201  1
  V  V77  1  0.75230815  0.50023046  0.75604334  1
  V  V78  1  0.87168400  0.24976035  0.12011490  1
  V  V79  1  0.62536737  0.24083487  0.36902342  1
  V  V80  1  0.50024167  0.50009703  0.49698731  1
  V  V81  1  0.75329317  0.00249630  0.75097182  1
  V  V82  1  0.49668151  0.76426028  0.24916999  1
  V  V83  1  0.12763820  0.12419123  0.49557088  1
  V  V84  1  0.36804082  0.74921073  0.61773220  1
  Zn  Zn85  1  0.74505734  0.18869517  0.97024123  1
  Zn  Zn86  1  0.12269903  0.62531369  0.00519326  1
  Zn  Zn87  1  0.25130259  0.12268989  0.37015639  1
  Zn  Zn88  1  0.49502079  0.62473354  0.12673161  1
  Zn  Zn89  1  0.62864075  0.62068021  0.48992491  1
  Zn  Zn90  1  0.75006183  0.37449802  0.12290230  1
  Zn  Zn91  1  0.12743817  0.87682907  0.74552873  1
  Zn  Zn92  1  0.57730335  0.18729169  0.91926090  1
  Zn  Zn93  1  0.49991538  0.02195166  0.00424693  1
  Zn  Zn94  1  0.37676511  0.23999475  0.12139974  1
  Zn  Zn95  1  0.24937964  0.37667579  0.13234701  1
  Zn  Zn96  1  0.87126570  0.74504381  0.12576806  1
  Zn  Zn97  1  0.62935531  0.37183825  0.25192563  1
  Zn  Zn98  1  0.06064941  0.06382480  0.06352873  1
  Zn  Zn99  1  0.13163734  0.62713638  0.50148802  1
  Zn  Zn100  1  0.61850943  0.12691684  0.50202511  1
  Zn  Zn101  1  0.12666677  0.50069161  0.62307216  1
  Zn  Zn102  1  0.50196363  0.62718665  0.62054638  1
  Zn  Zn103  1  0.25382570  0.63369366  0.88445065  1
  Zn  Zn104  1  0.87155012  0.37874259  0.00294961  1
  Zn  Zn105  1  0.75264818  0.62876174  0.87627832  1
  Zn  Zn106  1  0.24916311  0.87138137  0.61663617  1
  Zn  Zn107  1  0.19284370  0.18975210  0.18418886  1
  Zn  Zn108  1  0.18985829  0.18660047  0.68883473  1
  Zn  Zn109  1  0.18647570  0.68148652  0.19533747  1
  Zn  Zn110  1  0.18803845  0.68711529  0.68990997  1
  Zn  Zn111  1  0.69958866  0.18405098  0.19848036  1
  Zn  Zn112  1  0.69533804  0.18874573  0.79264469  1
  Zn  Zn113  1  0.68632893  0.68397311  0.18769429  1
  Zn  Zn114  1  0.68780213  0.68453013  0.68476773  1
  Zn  Zn115  1  0.31006486  0.30775307  0.31479577  1
  Zn  Zn116  1  0.31451359  0.31074422  0.81242641  1
  Zn  Zn117  1  0.30991954  0.81364313  0.30903578  1
  Zn  Zn118  1  0.31622568  0.81828451  0.80678146  1
  Zn  Zn119  1  0.80840628  0.31696936  0.31244397  1
  Zn  Zn120  1  0.81991818  0.31848771  0.81345992  1
  Zn  Zn121  1  0.80969294  0.81414318  0.31220262  1
  Zn  Zn122  1  0.81279084  0.81504837  0.81438845  1
  Zn  Zn123  1  0.18981975  0.43843454  0.43631522  1
  Zn  Zn124  1  0.18582630  0.44581659  0.94083114  1
  Zn  Zn125  1  0.19406042  0.93782329  0.43291474  1
  Zn  Zn126  1  0.18575601  0.93564858  0.93713499  1
  Zn  Zn127  1  0.68903468  0.43295293  0.43697813  1
  Zn  Zn128  1  0.68543672  0.34049784  0.94558442  1
  Zn  Zn129  1  0.68227425  0.93097442  0.43579409  1
  Zn  Zn130  1  0.71052815  0.98795473  0.95805494  1
  Zn  Zn131  1  0.30633852  0.06320229  0.05768081  1
  Zn  Zn132  1  0.31762612  0.06194184  0.55964635  1
  Zn  Zn133  1  0.29852306  0.56095076  0.06676085  1
  Zn  Zn134  1  0.31600530  0.56128563  0.56071299  1
  Zn  Zn135  1  0.83543873  0.05552581  0.07461730  1
  Zn  Zn136  1  0.81088059  0.06297604  0.56739991  1
  Zn  Zn137  1  0.80663842  0.55863066  0.06172891  1
  Zn  Zn138  1  0.81466017  0.56188787  0.56412440  1
  Zn  Zn139  1  0.48554142  0.38208849  0.14670267  1
  Zn  Zn140  1  0.43950790  0.43549294  0.68613418  1
  Zn  Zn141  1  0.43514569  0.94120694  0.18271839  1
  Zn  Zn142  1  0.43755076  0.93470905  0.68317667  1
  Zn  Zn143  1  0.94005997  0.43260065  0.19485932  1
  Zn  Zn144  1  0.94024559  0.43864755  0.68661271  1
  Zn  Zn145  1  0.93606366  0.93042824  0.18652658  1
  Zn  Zn146  1  0.93850108  0.93870019  0.68767277  1
  Zn  Zn147  1  0.05970814  0.06553339  0.22267964  1
  Zn  Zn148  1  0.06175707  0.06242840  0.90218315  1
  Zn  Zn149  1  0.06059172  0.56455784  0.31647367  1
  Zn  Zn150  1  0.06508282  0.56633751  0.81255566  1
  Zn  Zn151  1  0.56041419  0.05856333  0.31271390  1
  Zn  Zn152  1  0.56141057  0.05253417  0.80599372  1
  Zn  Zn153  1  0.55858633  0.56905053  0.31208094  1
  Zn  Zn154  1  0.56324715  0.56114832  0.81157108  1
  Zn  Zn155  1  0.43986307  0.18154824  0.43129987  1
  Zn  Zn156  1  0.41705505  0.18890915  0.93875249  1
  Zn  Zn157  1  0.44235003  0.68670613  0.43235070  1
  Zn  Zn158  1  0.43515918  0.68902842  0.93822922  1
  Zn  Zn159  1  0.93934966  0.18425168  0.43591606  1
  Zn  Zn160  1  0.94146207  0.19595551  0.93990803  1
  Zn  Zn161  1  0.93905928  0.68863149  0.43459876  1
  Zn  Zn162  1  0.94341630  0.68780163  0.93930911  1
  Zn  Zn163  1  0.05914412  0.31017053  0.07340829  1
  Zn  Zn164  1  0.06369901  0.31563322  0.56626662  1
  Zn  Zn165  1  0.05298226  0.78167627  0.05442131  1
  Zn  Zn166  1  0.06429435  0.81347565  0.56055658  1
  Zn  Zn167  1  0.56044843  0.20757567  0.07579341  1
  Zn  Zn168  1  0.56790476  0.31648451  0.55737658  1
  Zn  Zn169  1  0.55718526  0.81284808  0.06614300  1
  Zn  Zn170  1  0.55862720  0.81397934  0.55533574  1
  O  O171  1  0.11281523  0.12762651  0.14271882  1
  O  O172  1  0.12225559  0.12074178  0.61579279  1
  O  O173  1  0.12528595  0.60810000  0.13377963  1
  O  O174  1  0.11461512  0.62529569  0.62265509  1
  O  O175  1  0.62677288  0.12312491  0.13021823  1
  O  O176  1  0.62947852  0.10652062  0.62207858  1
  O  O177  1  0.61857078  0.61748311  0.11772462  1
  O  O178  1  0.62384075  0.61149913  0.62140200  1
  O  O179  1  0.38107031  0.37847734  0.37803570  1
  O  O180  1  0.37991210  0.38413168  0.87707309  1
  O  O181  1  0.37305384  0.88080659  0.37932356  1
  O  O182  1  0.38201510  0.88193950  0.88045226  1
  O  O183  1  0.87218803  0.38475433  0.38687435  1
  O  O184  1  0.88693490  0.38931720  0.87512980  1
  O  O185  1  0.88224137  0.88115112  0.38021306  1
  O  O186  1  0.88042888  0.87960168  0.88314334  1
  O  O187  1  0.26324909  0.00190237  0.36784382  1
  O  O188  1  0.26125187  0.00804985  0.86530283  1
  O  O189  1  0.26247952  0.50766783  0.38009894  1
  O  O190  1  0.26064933  0.49955041  0.86326554  1
  O  O191  1  0.75685011  -0.01210519  0.36925720  1
  O  O192  1  0.76498100  -0.01471644  0.85575875  1
  O  O193  1  0.75722995  0.49841981  0.37049722  1
  O  O194  1  0.76430484  0.50656750  0.85962419  1
  O  O195  1  0.22759300  0.49014486  0.12520683  1
  O  O196  1  0.25348728  0.49368892  0.63551299  1
  O  O197  1  0.25129075  0.99707203  0.13425736  1
  O  O198  1  0.24539736  1.00200768  0.62818387  1
  O  O199  1  0.73957306  0.50360515  0.13600320  1
  O  O200  1  0.74566842  0.49599787  0.63217981  1
  O  O201  1  0.74120606  0.99616066  0.13402705  1
  O  O202  1  0.74503824  0.98935886  0.63077225  1
  O  O203  1  0.00941513  0.36152597  0.25863969  1
  O  O204  1  0.00906012  0.37014338  0.75254300  1
  O  O205  1  0.00852322  0.87028106  0.26094051  1
  O  O206  1  -0.00245540  0.86373262  0.75213740  1
  O  O207  1  0.50449476  0.38065772  0.26340167  1
  O  O208  1  0.51003944  0.38245720  0.75889876  1
  O  O209  1  0.49387971  0.86261291  0.24537502  1
  O  O210  1  0.50162526  0.86768736  0.75777954  1
  O  O211  1  0.48308114  0.11980589  0.25132558  1
  O  O212  1  0.48593048  0.12059244  0.75003111  1
  O  O213  1  0.48410783  0.63188831  0.24790807  1
  O  O214  1  0.49483684  0.63308078  0.74717969  1
  O  O215  1  0.98436637  0.13965449  0.26961879  1
  O  O216  1  0.99398369  0.13660692  0.74151368  1
  O  O217  1  0.98881592  0.63450377  0.26151233  1
  O  O218  1  0.99742000  0.63605147  0.74087197  1
  O  O219  1  0.35969297  0.26397684  -0.00100737  1
  O  O220  1  0.36921042  0.25169629  0.50308536  1
  O  O221  1  0.37769046  0.76219532  0.00650751  1
  O  O222  1  0.38511498  0.75626119  0.50595249  1
  O  O223  1  0.86740337  0.24674974  0.01375194  1
  O  O224  1  0.87193739  0.25671042  0.50068901  1
  O  O225  1  0.86181051  0.75751840  -0.00110252  1
  O  O226  1  0.86731642  0.75595225  0.50158415  1
  O  O227  1  0.13167565  0.24566275  0.49952274  1
  O  O228  1  0.13435656  0.25766173  1.00335628  1
  O  O229  1  0.12014423  0.74732968  0.48584581  1
  O  O230  1  0.14248047  0.77009332  0.97708793  1
  O  O231  1  0.63494242  0.24775045  0.49427664  1
  O  O232  1  0.64375335  0.24168835  0.99810311  1
  O  O233  1  0.63083889  0.74561849  0.49321346  1
  O  O234  1  0.62470697  0.74120067  0.99697007  1
  O  O235  1  0.48592081  0.27162491  0.12401993  1
  O  O236  1  0.48944319  0.25607636  0.61553965  1
  O  O237  1  0.49183631  0.74695223  0.13601816  1
  O  O238  1  0.49310752  0.74922584  0.63062488  1
  O  O239  1  0.98424768  0.25160083  0.13921508  1
  O  O240  1  0.99447249  0.24810095  0.63283082  1
  O  O241  1  0.98806392  0.75989297  0.14916525  1
  O  O242  1  0.99447600  0.74560735  0.62777558  1
  O  O243  1  0.01294749  0.24978482  0.37741636  1
  O  O244  1  -0.00726503  0.26365117  0.86020653  1
  O  O245  1  0.00480580  0.76176426  0.37046073  1
  O  O246  1  0.00846398  0.76021331  0.86310619  1
  O  O247  1  0.51491902  0.25756576  0.38384891  1
  O  O248  1  0.49282489  0.26187845  0.87665999  1
  O  O249  1  0.50494828  0.74867076  0.35688486  1
  O  O250  1  0.50308635  0.75633544  0.86745657  1
  O  O251  1  0.24468721  0.13222844  0.50065197  1
  O  O252  1  0.25537249  0.13469235  0.98253471  1
  O  O253  1  0.25169833  0.62328176  0.48850765  1
  O  O254  1  0.23656516  0.61917036  0.99428857  1
  O  O255  1  0.75095005  0.13784069  0.50414473  1
  O  O256  1  0.77665171  0.08336227  0.98080561  1
  O  O257  1  0.75120019  0.63822836  0.50518486  1
  O  O258  1  0.73900645  0.63190574  0.99828206  1
  O  O259  1  0.25434882  0.36948040  -0.00689824  1
  O  O260  1  0.25712854  0.36770672  0.50555537  1
  O  O261  1  0.26787583  0.87844734  -0.00880836  1
  O  O262  1  0.26743114  0.87882756  0.50036882  1
  O  O263  1  0.75826886  0.39384079  0.00959550  1
  O  O264  1  0.76017574  0.36962723  0.50589866  1
  O  O265  1  0.75655754  0.87733969  0.00874990  1
  O  O266  1  0.75220759  0.86562859  0.50924776  1
  O  O267  1  0.12246417  0.48456527  0.26230256  1
  O  O268  1  0.13489767  0.49625402  0.74699543  1
  O  O269  1  0.13958688  0.98673938  0.25348297  1
  O  O270  1  0.13526887  1.00166510  0.73233603  1
  O  O271  1  0.63052945  0.50649398  0.24455695  1
  O  O272  1  0.63485967  0.49683117  0.74294593  1
  O  O273  1  0.63278429  1.00540727  0.24013675  1
  O  O274  1  0.63377852  0.98853180  0.73927579  1
  O  O275  1  0.36557146  0.00251759  0.25186716  1
  O  O276  1  0.37156274  0.00796083  0.75195332  1
  O  O277  1  0.37833101  0.50717170  0.26161358  1
  O  O278  1  0.37041561  0.50447480  0.75410468  1
  O  O279  1  0.86923518  0.00551735  0.26110903  1
  O  O280  1  0.86970241  0.00833795  0.74933615  1
  O  O281  1  0.87011897  0.50507539  0.25974514  1
  O  O282  1  0.87092558  0.50818130  0.75161157  1
  O  O283  1  0.12920684  0.36635774  0.36959911  1
  O  O284  1  0.11890192  0.38441730  0.86252937  1
  O  O285  1  0.11902632  0.86963836  0.37376071  1
  O  O286  1  0.11642432  0.87012030  0.86427069  1
  O  O287  1  0.61728022  0.36561939  0.37554597  1
  O  O288  1  0.61200114  0.37843607  0.86495258  1
  O  O289  1  0.61831917  0.85380932  0.38109072  1
  O  O290  1  0.61510748  0.86808862  0.86502851  1
  O  O291  1  0.37091883  0.12077520  0.13705513  1
  O  O292  1  0.37320636  0.13151384  0.63555587  1
  O  O293  1  0.37178402  0.63039545  0.13140866  1
  O  O294  1  0.37922288  0.63128689  0.62932902  1
  O  O295  1  0.87386350  0.13863564  0.14160742  1
  O  O296  1  0.88310331  0.13052332  0.63127711  1
  O  O297  1  0.87076693  0.62365167  0.13866528  1
  O  O298  1  0.88631350  0.63135511  0.62829498  1
  O  O299  1  0.25575596  0.25689335  0.11462513  1
  O  O300  1  0.25620117  0.25334723  0.61519898  1
  O  O301  1  0.26092979  0.74878987  0.13562392  1
  O  O302  1  0.26415087  0.74949902  0.62888817  1
  O  O303  1  0.76692929  0.25462655  0.13770488  1
  O  O304  1  0.76221412  0.26053782  0.61325054  1
  O  O305  1  0.74800055  0.75799405  0.11968600  1
  O  O306  1  0.75476784  0.75546911  0.61803374  1
  O  O307  1  0.24136027  0.24660539  0.38915159  1
  O  O308  1  0.25361681  0.23809724  0.87805413  1
  O  O309  1  0.24195905  0.74267542  0.37133355  1
  O  O310  1  0.23719412  0.75170665  0.85596015  1
  O  O311  1  0.73612694  0.25748869  0.38450128  1
  O  O312  1  0.74788034  0.25666415  0.87369064  1
  O  O313  1  0.73748716  0.75422777  0.38043147  1
  O  O314  1  0.74048772  0.75112502  0.88104222  1
  O  O315  1  -0.00549806  0.11069673  -0.01973516  1
  O  O316  1  0.00793714  0.11869240  0.50634814  1
  O  O317  1  0.02135235  0.67441447  0.01514859  1
  O  O318  1  0.00092445  0.61922892  0.50685745  1
  O  O319  1  0.50177911  0.13719168  -0.00596661  1
  O  O320  1  0.49843882  0.10787301  0.49904111  1
  O  O321  1  0.50275783  0.61611509  -0.00038760  1
  O  O322  1  0.50030967  0.60995068  0.49964705  1
  O  O323  1  0.49660144  0.38449427  0.49074598  1
  O  O324  1  0.48879358  0.39252335  0.98516183  1
  O  O325  1  0.48604146  0.88667645  0.50223320  1
  O  O326  1  0.49429368  0.87496833  0.98788722  1
  O  O327  1  0.99132291  0.38471545  0.50761357  1
  O  O328  1  0.99609401  0.36590674  0.98770382  1
  O  O329  1  0.99461300  0.88072939  0.49481943  1
  O  O330  1  0.99047967  0.86084989  0.98805779  1
  O  O331  1  0.49422428  0.49319625  0.38094328  1
  O  O332  1  0.48798098  0.49902805  0.87644002  1
  O  O333  1  0.48722233  0.99916140  0.37946888  1
  O  O334  1  0.48918870  0.99196306  0.87489078  1
  O  O335  1  0.99054718  0.50402078  0.38952996  1
  O  O336  1  0.99357803  0.49320646  0.86578687  1
  O  O337  1  0.99013559  0.98812575  0.38364234  1
  O  O338  1  0.98454721  0.98395441  0.86076136  1
  O  O339  1  -0.00462739  0.01138983  0.14392754  1
  O  O340  1  0.00915419  0.00456660  0.61976536  1
  O  O341  1  0.01910330  0.49244163  0.13994880  1
  O  O342  1  0.00028348  0.51017961  0.61522720  1
  O  O343  1  0.51609425  0.00065850  0.12647600  1
  O  O344  1  0.51133574  -0.00738494  0.61701159  1
  O  O345  1  0.50463872  0.49761026  0.11285283  1
  O  O346  1  0.50916518  0.49843105  0.61601350  1
  O  O347  1  0.23459547  0.36815118  0.25288034  1
  O  O348  1  0.24478860  0.38037780  0.74760013  1
  O  O349  1  0.24118252  0.88562331  0.24989674  1
  O  O350  1  0.25275549  0.89223310  0.74399790  1
  O  O351  1  0.74764119  0.39142976  0.24677920  1
  O  O352  1  0.74654224  0.38475478  0.74363321  1
  O  O353  1  0.75587537  0.88782497  0.24036152  1
  O  O354  1  0.74806099  0.87674167  0.73659946  1
  O  O355  1  0.25425300  0.10940527  0.25113310  1
  O  O356  1  0.25977030  0.11772824  0.75361399  1
  O  O357  1  0.26451677  0.62882780  0.26410377  1
  O  O358  1  0.25737804  0.61575910  0.75095772  1
  O  O359  1  0.76370981  0.10986277  0.25676363  1
  O  O360  1  0.76390781  0.11265971  0.73848401  1
  O  O361  1  0.75792758  0.61489138  0.25094521  1
  O  O362  1  0.75825822  0.61912758  0.74956280  1
  O  O363  1  0.37201402  0.11566856  0.36312623  1
  O  O364  1  0.36791486  0.11793066  0.86088274  1
  O  O365  1  0.37092167  0.61717448  0.37063506  1
  O  O366  1  0.37363491  0.61948237  0.86638312  1
  O  O367  1  0.87435574  0.10956615  0.37684906  1
  O  O368  1  0.88119516  0.11910118  0.85886064  1
  O  O369  1  0.87473407  0.61393811  0.37190439  1
  O  O370  1  0.87949413  0.62256944  0.86823768  1
  O  O371  1  0.12323485  0.37846944  0.14369197  1
  O  O372  1  0.13363465  0.37899575  0.63638978  1
  O  O373  1  0.11654446  0.85766392  0.13300893  1
  O  O374  1  0.12951738  0.88442848  0.62339498  1
  O  O375  1  0.62061851  0.39251653  0.13188802  1
  O  O376  1  0.63165765  0.38667397  0.62866587  1
  O  O377  1  0.63490040  0.87956080  0.12195104  1
  O  O378  1  0.63250121  0.87603965  0.62753068  1
  O  O379  1  0.11848443  0.25543483  0.26224565  1
  O  O380  1  0.11708756  0.26034417  0.74335484  1
  O  O381  1  0.11748001  0.75506600  0.26113855  1
  O  O382  1  0.11607987  0.75552712  0.74988950  1
  O  O383  1  0.63157545  0.25077536  0.26534894  1
  O  O384  1  0.62969442  0.26615322  0.73791635  1
  O  O385  1  0.61274246  0.74713329  0.25430752  1
  O  O386  1  0.61890472  0.75253169  0.75168905  1
  O  O387  1  0.36632031  0.23142067  0.25078306  1
  O  O388  1  0.37229826  0.23748515  0.73985965  1
  O  O389  1  0.38235177  0.74598923  0.24329623  1
  O  O390  1  0.38179132  0.74653548  0.74120484  1
  O  O391  1  0.88003633  0.24502319  0.25446998  1
  O  O392  1  0.88140270  0.24494396  0.74266492  1
  O  O393  1  0.87840295  0.73844863  0.25671920  1
  O  O394  1  0.88152654  0.74553897  0.74393919  1
  O  O395  1  0.38381722  0.49128969  0.49386852  1
  O  O396  1  0.37762234  0.50036914  0.98931651  1
  O  O397  1  0.38031661  0.99406518  0.49042883  1
  O  O398  1  0.37979784  0.99367985  0.99180128  1
  O  O399  1  0.87933413  0.49396353  0.49518484  1
  O  O400  1  0.88026505  0.50967539  0.98752601  1
  O  O401  1  0.87702561  0.99423313  0.49690329  1
  O  O402  1  0.88490922  0.98123514  0.99463533  1
  O  O403  1  0.12227530  0.00957906  -0.01632466  1
  O  O404  1  0.12452368  0.00699316  0.50653751  1
  O  O405  1  0.11237314  0.50102943  0.01021158  1
  O  O406  1  0.11732084  0.50188024  0.50236743  1
  O  O407  1  0.61828225  0.00189002  0.02057097  1
  O  O408  1  0.61733340  -0.00232453  0.50512152  1
  O  O409  1  0.61503790  0.51356263  0.00588947  1
  O  O410  1  0.62004891  0.49950949  0.50628648  1
  O  O411  1  0.36991081  0.38847480  0.10594692  1
  O  O412  1  0.37019324  0.36648761  0.62027091  1
  O  O413  1  0.37927987  0.86958736  0.10921513  1
  O  O414  1  0.37321160  0.86501601  0.61596141  1
  O  O415  1  0.87751016  0.36231781  0.12636871  1
  O  O416  1  0.87243076  0.37200899  0.61643422  1
  O  O417  1  0.86406931  0.87101179  0.11757156  1
  O  O418  1  0.86773227  0.87037907  0.61838835  1
  O  O419  1  0.12852634  0.13316065  0.39142659  1
  O  O420  1  0.14334648  0.12767850  0.85436965  1
  O  O421  1  0.13567382  0.63295199  0.37531515  1
  O  O422  1  0.12389549  0.64511724  0.87182449  1
  O  O423  1  0.61996400  0.13768211  0.37867200  1
  O  O424  1  0.63665955  0.11600541  0.85818841  1
  O  O425  1  0.61872509  0.64327172  0.37688163  1
  O  O426  1  0.62522123  0.63072886  0.88277456  1
