# generated using pymatgen
data_V85Zn86O256
_symmetry_space_group_name_H-M   'P 1'
_cell_length_a   16.95897990
_cell_length_b   16.95541501
_cell_length_c   16.95125939
_cell_angle_alpha   89.95648146
_cell_angle_beta   90.01380298
_cell_angle_gamma   89.94341175
_symmetry_Int_Tables_number   1
_chemical_formula_structural   V85Zn86O256
_chemical_formula_sum   'V85 Zn86 O256'
_cell_volume   4874.27210062
_cell_formula_units_Z   1
loop_
 _symmetry_equiv_pos_site_id
 _symmetry_equiv_pos_as_xyz
  1  'x, y, z'
loop_
 _atom_site_type_symbol
 _atom_site_label
 _atom_site_symmetry_multiplicity
 _atom_site_fract_x
 _atom_site_fract_y
 _atom_site_fract_z
 _atom_site_occupancy
  V  V0  1  0.49900139  0.87411495  0.87633752  1
  V  V1  1  -0.01385354  0.50306356  0.00559423  1
  V  V2  1  0.74940498  0.75088588  0.00687698  1
  V  V3  1  0.75081642  0.87466376  0.62752944  1
  V  V4  1  0.12733859  0.49057174  0.12770087  1
  V  V5  1  0.00694861  -0.00016845  0.00647828  1
  V  V6  1  0.00088753  0.87202430  0.87324609  1
  V  V7  1  0.75751210  0.62302793  0.87564799  1
  V  V8  1  0.25026017  0.26286734  -0.00229168  1
  V  V9  1  0.12463555  0.87720037  0.24459763  1
  V  V10  1  -0.01304924  0.38345241  0.87924366  1
  V  V11  1  0.88285111  0.11528025  0.26006677  1
  V  V12  1  0.37142151  -0.00662850  0.37826972  1
  V  V13  1  0.26540057  0.87825146  0.62855132  1
  V  V14  1  0.18201031  0.58284720  0.44502523  1
  V  V15  1  0.62510272  0.74884225  0.87574578  1
  V  V16  1  0.12060210  0.62366785  0.00813291  1
  V  V17  1  0.00181321  0.74781733  0.24283705  1
  V  V18  1  0.37656695  0.25793307  0.63017742  1
  V  V19  1  -0.00422609  0.87983361  0.37281573  1
  V  V20  1  0.24495080  0.00231962  0.23863834  1
  V  V21  1  0.74591303  0.89533049  0.12929345  1
  V  V22  1  0.74910964  0.74981492  0.49779294  1
  V  V23  1  0.70965485  0.06043873  0.31598438  1
  V  V24  1  0.61570019  0.50001137  0.12430530  1
  V  V25  1  0.39121882  0.49205158  0.88646703  1
  V  V26  1  0.61640112  0.62022993  -0.00106732  1
  V  V27  1  0.12693267  0.75386446  0.38357381  1
  V  V28  1  0.00486789  0.37656958  0.37355769  1
  V  V29  1  0.62267267  0.75345648  0.36644999  1
  V  V30  1  0.49411895  0.62864611  0.62043180  1
  V  V31  1  0.87609082  0.62715250  0.24286268  1
  V  V32  1  0.25467054  0.24924957  0.50587913  1
  V  V33  1  0.48850219  0.48746851  0.48799072  1
  V  V34  1  0.48769421  0.75297625  0.24153258  1
  V  V35  1  0.75114039  0.37677949  0.62415692  1
  V  V36  1  0.87643047  0.24941621  0.62450250  1
  V  V37  1  0.75488219  0.49985191  0.75181973  1
  V  V38  1  0.87588488  0.87642234  0.49721477  1
  V  V39  1  0.56902064  0.30369802  0.91952465  1
  V  V40  1  0.12354073  0.25334708  0.87685587  1
  V  V41  1  0.75344944  0.24794258  0.49796481  1
  V  V42  1  0.87385545  0.12263602  0.75087012  1
  V  V43  1  0.62783971  0.37230423  0.25559208  1
  V  V44  1  0.24499044  0.12134239  0.87218907  1
  V  V45  1  0.50222010  0.12657929  0.12616979  1
  V  V46  1  0.25045184  0.62118232  0.87786752  1
  V  V47  1  0.25263139  0.74614166  0.00695614  1
  V  V48  1  0.12475274  0.12479830  0.50183158  1
  V  V49  1  0.00220745  0.12271644  0.62661685  1
  V  V50  1  -0.00327143  0.00014625  0.49842529  1
  V  V51  1  0.61403203  0.36402675  0.74579749  1
  V  V52  1  0.63159908  0.12282780  0.50418491  1
  V  V53  1  0.12660706  0.38473695  0.74544047  1
  V  V54  1  0.87716404  0.37656740  0.49936319  1
  V  V55  1  0.50364998  -0.00143821  0.00659341  1
  V  V56  1  0.37542594  0.26135515  0.11706976  1
  V  V57  1  0.37634039  0.12888833  0.75337837  1
  V  V58  1  0.75074856  0.62687780  0.37386224  1
  V  V59  1  0.87830578  0.74549460  0.62643456  1
  V  V60  1  0.00429608  0.25832299  0.24548340  1
  V  V61  1  0.62502605  0.87507057  0.75061181  1
  V  V62  1  0.36632495  0.60877587  0.25310004  1
  V  V63  1  0.74975823  0.49874644  0.25041978  1
  V  V64  1  0.87259427  -0.00197209  0.87669495  1
  V  V65  1  0.37614555  0.86981721  0.00754210  1
  V  V66  1  0.62200516  0.50091785  0.62320136  1
  V  V67  1  0.63816362  0.24920082  0.37039570  1
  V  V68  1  0.00036950  0.50800261  0.50292670  1
  V  V69  1  0.47423826  0.26470231  0.28208387  1
  V  V70  1  0.49976339  0.12927972  0.62914956  1
  V  V71  1  0.26606851  0.76076707  0.50023172  1
  V  V72  1  0.49547546  -0.00257027  0.50071510  1
  V  V73  1  0.62675298  0.12217609  -0.00535561  1
  V  V74  1  0.36934238  0.12485118  0.24304946  1
  V  V75  1  -0.00032771  0.25159081  0.75228769  1
  V  V76  1  0.25005114  0.87401433  0.12491711  1
  V  V77  1  0.37460107  0.62684370  0.75099918  1
  V  V78  1  0.25013274  0.12373860  0.37526943  1
  V  V79  1  0.01594145  0.62325270  0.62511203  1
  V  V80  1  0.76214019  0.25734643  -0.00847320  1
  V  V81  1  0.49705272  0.75155019  0.74305303  1
  V  V82  1  0.62283428  0.62520188  0.49767185  1
  V  V83  1  0.12922129  0.87807081  0.74754539  1
  V  V84  1  0.37014508  -0.00265570  0.87200074  1
  Zn  Zn85  1  0.49781951  0.87496335  0.37589444  1
  Zn  Zn86  1  0.12530060  0.74792264  0.87519483  1
  Zn  Zn87  1  0.24794861  0.37305922  0.14473937  1
  Zn  Zn88  1  0.74746127  -0.00043246  0.75207307  1
  Zn  Zn89  1  0.12747644  0.25156520  0.37086203  1
  Zn  Zn90  1  0.74310614  0.12724367  0.87138637  1
  Zn  Zn91  1  0.00421824  0.12274669  0.12828545  1
  Zn  Zn92  1  0.62462304  0.89166181  0.24822536  1
  Zn  Zn93  1  0.24320210  0.49698593  0.26827984  1
  Zn  Zn94  1  0.25078583  0.38355226  0.62172845  1
  Zn  Zn95  1  0.48981522  0.62605007  0.12024962  1
  Zn  Zn96  1  0.24824739  0.50619304  0.74491619  1
  Zn  Zn97  1  0.75532710  0.37766645  0.11657010  1
  Zn  Zn98  1  0.88055033  0.61967363  0.75076645  1
  Zn  Zn99  1  0.87654903  0.75127578  0.12359107  1
  Zn  Zn100  1  0.87428104  0.87516095  0.00247440  1
  Zn  Zn101  1  0.00309202  0.74735158  0.74983853  1
  Zn  Zn102  1  0.13188522  0.00032162  0.63101518  1
  Zn  Zn103  1  0.62357578  -0.00110969  0.62714777  1
  Zn  Zn104  1  0.13011631  0.12058734  0.00871121  1
  Zn  Zn105  1  0.87572187  0.25212487  0.12525233  1
  Zn  Zn106  1  0.87602009  0.50200860  0.37411683  1
  Zn  Zn107  1  0.18182141  0.18952458  0.18094419  1
  Zn  Zn108  1  0.18878471  0.18895908  0.69197032  1
  Zn  Zn109  1  0.18944633  0.68349242  0.18864056  1
  Zn  Zn110  1  0.19196223  0.69688476  0.68679631  1
  Zn  Zn111  1  0.69064499  0.18728610  0.17769378  1
  Zn  Zn112  1  0.69012540  0.18746547  0.68584700  1
  Zn  Zn113  1  0.68324764  0.68598452  0.18630453  1
  Zn  Zn114  1  0.68664711  0.68704520  0.68790501  1
  Zn  Zn115  1  0.31036379  0.31479189  0.31850781  1
  Zn  Zn116  1  0.31390518  0.31434895  0.81401737  1
  Zn  Zn117  1  0.31110028  0.81163399  0.31486149  1
  Zn  Zn118  1  0.31088022  0.80883454  0.81465589  1
  Zn  Zn119  1  0.82036704  0.31252532  0.30880482  1
  Zn  Zn120  1  0.80704530  0.31176685  0.81132489  1
  Zn  Zn121  1  0.81159404  0.81777252  0.30801893  1
  Zn  Zn122  1  0.81399837  0.80920948  0.81367381  1
  Zn  Zn123  1  0.18800124  0.42229938  0.44091868  1
  Zn  Zn124  1  0.18335712  0.44214183  0.93444904  1
  Zn  Zn125  1  0.18601565  0.93703095  0.43911289  1
  Zn  Zn126  1  0.18755075  0.93395701  0.93549365  1
  Zn  Zn127  1  0.68417598  0.43685253  0.43605154  1
  Zn  Zn128  1  0.68762312  0.44176948  0.93533999  1
  Zn  Zn129  1  0.68265630  0.93236379  0.44131364  1
  Zn  Zn130  1  0.68742571  0.93752484  0.94064819  1
  Zn  Zn131  1  0.31329735  0.06578198  0.05625969  1
  Zn  Zn132  1  0.31389236  0.06239476  0.56612646  1
  Zn  Zn133  1  0.31431971  0.55947034  0.06645936  1
  Zn  Zn134  1  0.31742042  0.55942290  0.56671928  1
  Zn  Zn135  1  0.82070015  0.07194686  0.06343898  1
  Zn  Zn136  1  0.81416401  0.05893965  0.56303333  1
  Zn  Zn137  1  0.80486280  0.56508869  0.06653505  1
  Zn  Zn138  1  0.81492034  0.56370793  0.56336682  1
  Zn  Zn139  1  0.43643094  0.43693628  0.19136555  1
  Zn  Zn140  1  0.43544893  0.44504687  0.68875438  1
  Zn  Zn141  1  0.43751635  0.93780642  0.18952334  1
  Zn  Zn142  1  0.43773683  0.94368020  0.68995455  1
  Zn  Zn143  1  0.93397239  0.43612422  0.18232209  1
  Zn  Zn144  1  0.94110118  0.43932815  0.68621555  1
  Zn  Zn145  1  0.93227172  0.93362115  0.18541163  1
  Zn  Zn146  1  0.93992013  0.93669735  0.68752746  1
  Zn  Zn147  1  0.06413814  0.06277774  0.31171328  1
  Zn  Zn148  1  0.06244535  0.05915899  0.81522795  1
  Zn  Zn149  1  0.05623165  0.56084147  0.30694852  1
  Zn  Zn150  1  0.06059769  0.56398456  0.81792499  1
  Zn  Zn151  1  0.54499989  0.08384577  0.32304134  1
  Zn  Zn152  1  0.55871279  0.06111068  0.81339024  1
  Zn  Zn153  1  0.55832552  0.56737910  0.30979838  1
  Zn  Zn154  1  0.56530866  0.56089911  0.81028478  1
  Zn  Zn155  1  0.43595554  0.19472838  0.43820291  1
  Zn  Zn156  1  0.43250536  0.18474111  0.94066997  1
  Zn  Zn157  1  0.43801390  0.68417516  0.43074339  1
  Zn  Zn158  1  0.43555324  0.68728868  0.93457884  1
  Zn  Zn159  1  0.93708593  0.18731462  0.43092797  1
  Zn  Zn160  1  0.93973657  0.18415690  0.93510792  1
  Zn  Zn161  1  0.93851337  0.68979804  0.43406319  1
  Zn  Zn162  1  0.93614598  0.68735575  0.94030829  1
  Zn  Zn163  1  0.05927909  0.31545179  0.05871265  1
  Zn  Zn164  1  0.06222269  0.31193615  0.56206221  1
  Zn  Zn165  1  0.06509947  0.81425966  0.06093661  1
  Zn  Zn166  1  0.06598023  0.81299269  0.56527786  1
  Zn  Zn167  1  0.56953763  0.30827035  0.08176432  1
  Zn  Zn168  1  0.56173913  0.31074502  0.56050974  1
  Zn  Zn169  1  0.56909905  0.81446959  0.06686655  1
  Zn  Zn170  1  0.56216513  0.81364250  0.56010147  1
  O  O171  1  0.11791508  0.12175326  0.12114799  1
  O  O172  1  0.12085012  0.12239783  0.62048238  1
  O  O173  1  0.12813603  0.61713667  0.11255025  1
  O  O174  1  0.11469209  0.63461959  0.62723940  1
  O  O175  1  0.61096039  0.13263782  0.11199094  1
  O  O176  1  0.61788650  0.12366534  0.61999718  1
  O  O177  1  0.62202072  0.61647004  0.11624969  1
  O  O178  1  0.61609113  0.61947756  0.62046144  1
  O  O179  1  0.41225927  0.29545039  0.36575374  1
  O  O180  1  0.37377412  0.39390404  0.86710914  1
  O  O181  1  0.37607920  0.89013230  0.37148165  1
  O  O182  1  0.37805401  0.88041709  0.88312804  1
  O  O183  1  0.88634051  0.37715888  0.38357814  1
  O  O184  1  0.88944492  0.37304145  0.86614083  1
  O  O185  1  0.88600460  0.86781633  0.38250651  1
  O  O186  1  0.88161565  0.88158662  0.87557804  1
  O  O187  1  0.25377346  0.00570375  0.36968603  1
  O  O188  1  0.25889237  0.00747529  0.88273837  1
  O  O189  1  0.23758199  0.51540931  0.39078428  1
  O  O190  1  0.25238930  0.51324271  0.87046707  1
  O  O191  1  0.75619190  -0.00573407  0.37355272  1
  O  O192  1  0.76179002  0.00059343  0.87505690  1
  O  O193  1  0.74901154  0.50738881  0.36617046  1
  O  O194  1  0.74429892  0.51047454  0.86415363  1
  O  O195  1  0.23429176  0.49345407  0.12001591  1
  O  O196  1  0.25569334  0.49565085  0.63217439  1
  O  O197  1  0.25572449  0.99680759  0.13438867  1
  O  O198  1  0.24952886  0.98353137  0.61959923  1
  O  O199  1  0.73891348  0.50115148  0.13792255  1
  O  O200  1  0.74131546  0.49641482  0.62762137  1
  O  O201  1  0.75329048  0.99309814  0.11805401  1
  O  O202  1  0.75022644  0.98458941  0.62711652  1
  O  O203  1  -0.00501360  0.36609884  0.25841948  1
  O  O204  1  0.00727547  0.37290053  0.75876175  1
  O  O205  1  0.00593760  0.87195666  0.25603956  1
  O  O206  1  0.00701876  0.87201511  0.75685440  1
  O  O207  1  0.50900971  0.35859200  0.24520504  1
  O  O208  1  0.51610904  0.38046769  0.74191255  1
  O  O209  1  0.50495357  0.86698034  0.25056260  1
  O  O210  1  0.50397806  0.86864838  0.75320097  1
  O  O211  1  0.48769334  0.13970925  0.24031353  1
  O  O212  1  0.49091287  0.12051531  0.74112255  1
  O  O213  1  0.49179465  0.63807539  0.24613745  1
  O  O214  1  0.49763125  0.63320985  0.74218947  1
  O  O215  1  0.99456102  0.13422989  0.25399186  1
  O  O216  1  0.99384180  0.12994015  0.74759884  1
  O  O217  1  0.98842923  0.63641923  0.25619868  1
  O  O218  1  0.99883331  0.62588596  0.74291123  1
  O  O219  1  0.36355352  0.24655787  0.00663548  1
  O  O220  1  0.36406059  0.23502308  0.51762401  1
  O  O221  1  0.36770289  0.75937139  -0.00349887  1
  O  O222  1  0.36409014  0.75051636  0.49383606  1
  O  O223  1  0.86436993  0.24486477  -0.00203613  1
  O  O224  1  0.87335845  0.25432696  0.50507823  1
  O  O225  1  0.86486754  0.75206134  0.00327355  1
  O  O226  1  0.87009902  0.75489227  0.50893457  1
  O  O227  1  0.12981855  0.23658854  0.50175525  1
  O  O228  1  0.12756762  0.24931396  0.98813331  1
  O  O229  1  0.12896175  0.75487154  0.48731285  1
  O  O230  1  0.13161438  0.74194814  0.99856261  1
  O  O231  1  0.63155907  0.24178682  0.49239891  1
  O  O232  1  0.62707291  0.24442511  0.99024625  1
  O  O233  1  0.62818525  0.74584860  0.48828208  1
  O  O234  1  0.63092817  0.74422787  0.99441875  1
  O  O235  1  0.48860049  0.24088602  0.12290977  1
  O  O236  1  0.49256053  0.23687221  0.61816214  1
  O  O237  1  0.50697395  0.74923360  0.13910653  1
  O  O238  1  0.50623778  0.74482782  0.63497131  1
  O  O239  1  1.00080569  0.25318332  0.13605719  1
  O  O240  1  0.99440167  0.24298078  0.63094631  1
  O  O241  1  1.00012764  0.75770495  0.13915310  1
  O  O242  1  0.99277021  0.74282981  0.62323484  1
  O  O243  1  0.00242812  0.25840085  0.36673766  1
  O  O244  1  0.00512867  0.26016960  0.87324994  1
  O  O245  1  0.00793079  0.76078544  0.36861967  1
  O  O246  1  -0.00143409  0.76195785  0.87535209  1
  O  O247  1  0.53158567  0.21135835  0.36661079  1
  O  O248  1  0.50255709  0.24612907  0.87289040  1
  O  O249  1  0.50650315  0.75378771  0.36461091  1
  O  O250  1  0.50528640  0.75551220  0.86512755  1
  O  O251  1  0.24225982  0.12761282  0.49600493  1
  O  O252  1  0.24830211  0.13365263  0.98683938  1
  O  O253  1  0.24739575  0.63735209  0.50402343  1
  O  O254  1  0.24480926  0.63005261  0.99661806  1
  O  O255  1  0.73979459  0.13054290  0.51237462  1
  O  O256  1  0.74139057  0.13338328  0.99797874  1
  O  O257  1  0.74400194  0.63093039  0.49477755  1
  O  O258  1  0.74097945  0.63165551  0.99331129  1
  O  O259  1  0.24332176  0.36367598  -0.00508398  1
  O  O260  1  0.24929697  0.35567672  0.50523131  1
  O  O261  1  0.25609168  0.86749736  0.00425324  1
  O  O262  1  0.25061623  0.86796361  0.50935914  1
  O  O263  1  0.74510578  0.36091116  -0.00557769  1
  O  O264  1  0.75573748  0.37074998  0.50505713  1
  O  O265  1  0.74905731  0.86808461  0.01057468  1
  O  O266  1  0.75421345  0.86820880  0.50802260  1
  O  O267  1  0.12239981  0.50819853  0.23087132  1
  O  O268  1  0.12364970  0.48692502  0.75608159  1
  O  O269  1  0.13495636  0.98994412  0.25637277  1
  O  O270  1  0.12221325  0.98459309  0.75144495  1
  O  O271  1  0.62962854  0.49343186  0.24784104  1
  O  O272  1  0.63267035  0.49555561  0.73731856  1
  O  O273  1  0.63078868  1.01508878  0.26812237  1
  O  O274  1  0.62566016  0.98914192  0.74888705  1
  O  O275  1  0.36563537  0.00636291  0.25650578  1
  O  O276  1  0.37870183  0.00905379  0.76507067  1
  O  O277  1  0.37541699  0.50566713  0.25921914  1
  O  O278  1  0.37673570  0.51651517  0.75828074  1
  O  O279  1  0.88705160  0.01565449  0.25025658  1
  O  O280  1  0.87489684  0.00625312  0.75671147  1
  O  O281  1  0.86722112  0.50894208  0.25174349  1
  O  O282  1  0.85895460  0.50036176  0.74088525  1
  O  O283  1  0.10955246  0.37015872  0.38085252  1
  O  O284  1  0.11513199  0.36943353  0.86714799  1
  O  O285  1  0.11948178  0.86958353  0.36583523  1
  O  O286  1  0.11786658  0.87158697  0.86841910  1
  O  O287  1  0.62533987  0.36333785  0.36533829  1
  O  O288  1  0.62578416  0.37280750  0.86050299  1
  O  O289  1  0.62192543  0.86737290  0.36898121  1
  O  O290  1  0.61875445  0.86984958  0.87069043  1
  O  O291  1  0.38110573  0.13164313  0.12515694  1
  O  O292  1  0.38044163  0.12874554  0.63670426  1
  O  O293  1  0.37673540  0.61942336  0.14174682  1
  O  O294  1  0.38836806  0.62646832  0.63315772  1
  O  O295  1  0.88407278  0.13250954  0.13721866  1
  O  O296  1  0.88084153  0.12672876  0.63514810  1
  O  O297  1  0.86779170  0.63041774  0.13912233  1
  O  O298  1  0.88162657  0.63360629  0.62648580  1
  O  O299  1  0.25537806  0.25470007  0.11566817  1
  O  O300  1  0.25847467  0.24952828  0.62222934  1
  O  O301  1  0.24595503  0.75507773  0.11390860  1
  O  O302  1  0.24852820  0.76289149  0.60906643  1
  O  O303  1  0.74735962  0.25169428  0.10365945  1
  O  O304  1  0.75778296  0.25726318  0.61878906  1
  O  O305  1  0.74635157  0.75035571  0.11349327  1
  O  O306  1  0.75522435  0.75725080  0.61988584  1
  O  O307  1  0.24707844  0.23905598  0.38649658  1
  O  O308  1  0.24187346  0.24461620  0.87892580  1
  O  O309  1  0.24276130  0.75817216  0.38922090  1
  O  O310  1  0.25028781  0.73901883  0.88795640  1
  O  O311  1  0.74588893  0.25420459  0.38173032  1
  O  O312  1  0.75089123  0.24523660  0.88556469  1
  O  O313  1  0.74288189  0.74769705  0.37811256  1
  O  O314  1  0.74400480  0.74540254  0.88469206  1
  O  O315  1  0.00117961  0.10861619  -0.00391655  1
  O  O316  1  0.00548720  0.11927574  0.50250000  1
  O  O317  1  0.00656504  0.61176718  -0.00710026  1
  O  O318  1  -0.00543635  0.61512369  0.50489643  1
  O  O319  1  0.50386316  0.11644241  0.00595813  1
  O  O320  1  0.51224615  0.11814211  0.50504595  1
  O  O321  1  0.51286531  0.63369475  0.00107712  1
  O  O322  1  0.50553594  0.62458472  0.50599198  1
  O  O323  1  0.50248940  0.38853072  0.50357352  1
  O  O324  1  0.52150912  0.35908880  0.98650757  1
  O  O325  1  0.50572433  0.89269869  0.49879203  1
  O  O326  1  0.49415702  0.87899000  0.99955293  1
  O  O327  1  0.99743508  0.38615506  0.49737157  1
  O  O328  1  0.99976414  0.38735653  0.98759064  1
  O  O329  1  0.99815508  0.88204256  0.49383202  1
  O  O330  1  0.99855067  0.88276268  0.99215630  1
  O  O331  1  0.50988765  0.50297117  0.39027817  1
  O  O332  1  0.49094251  0.50559936  0.87489821  1
  O  O333  1  0.48876817  1.00393029  0.38256830  1
  O  O334  1  0.49177982  0.99170577  0.88420921  1
  O  O335  1  0.99859157  0.49449418  0.38240968  1
  O  O336  1  0.99912035  0.49061854  0.88613359  1
  O  O337  1  1.00672106  0.98780002  0.38282143  1
  O  O338  1  0.99106169  0.98910527  0.87989548  1
  O  O339  1  -0.00454554  -0.00611499  0.10795801  1
  O  O340  1  0.00392297  0.00599133  0.61717705  1
  O  O341  1  0.00854876  0.49521599  0.11149547  1
  O  O342  1  -0.00070289  0.50952258  0.61552486  1
  O  O343  1  0.49242840  0.01181796  0.11808054  1
  O  O344  1  0.49941187  0.01163130  0.61832474  1
  O  O345  1  0.51255842  0.50007100  0.13154664  1
  O  O346  1  0.50603471  0.50976310  0.61695239  1
  O  O347  1  0.25100318  0.38448959  0.25968657  1
  O  O348  1  0.23271784  0.37392414  0.75285794  1
  O  O349  1  0.24389568  0.88149746  0.24507309  1
  O  O350  1  0.24605069  0.86699391  0.73722999  1
  O  O351  1  0.74439463  0.38563039  0.25596327  1
  O  O352  1  0.74180240  0.38193138  0.74324357  1
  O  O353  1  0.74652679  0.87743045  0.23489881  1
  O  O354  1  0.74383381  0.87273893  0.74350749  1
  O  O355  1  0.24877859  0.11922224  0.25637495  1
  O  O356  1  0.25655614  0.12656858  0.76415573  1
  O  O357  1  0.26015396  0.61462887  0.24748765  1
  O  O358  1  0.25851705  0.63153220  0.75830563  1
  O  O359  1  0.76077745  0.12087738  0.24686636  1
  O  O360  1  0.75874224  0.12114868  0.75061285  1
  O  O361  1  0.75339860  0.61962457  0.25579312  1
  O  O362  1  0.74869288  0.61808581  0.75763713  1
  O  O363  1  0.36287830  0.11885973  0.36778901  1
  O  O364  1  0.36830066  0.11700813  0.87084997  1
  O  O365  1  0.37517985  0.63668610  0.35031226  1
  O  O366  1  0.36836258  0.61930366  0.86948843  1
  O  O367  1  0.87102903  0.12594684  0.36064247  1
  O  O368  1  0.87582136  0.11694211  0.86293739  1
  O  O369  1  0.86554655  0.62652370  0.36667729  1
  O  O370  1  0.86088272  0.63135048  0.87085170  1
  O  O371  1  0.12549600  0.38726478  0.12150615  1
  O  O372  1  0.12259901  0.36791457  0.64286564  1
  O  O373  1  0.13137106  0.87238001  0.13773807  1
  O  O374  1  0.13368101  0.87706902  0.63292460  1
  O  O375  1  0.63379432  0.38159753  0.13903061  1
  O  O376  1  0.62984887  0.38162168  0.62956678  1
  O  O377  1  0.63960416  0.87982583  0.12889336  1
  O  O378  1  0.63422891  0.87379574  0.63130185  1
  O  O379  1  0.10876124  0.24623963  0.25344735  1
  O  O380  1  0.11785834  0.25588051  0.76114014  1
  O  O381  1  0.12094049  0.75486667  0.25917145  1
  O  O382  1  0.12342958  0.76228172  0.75471822  1
  O  O383  1  0.63427284  0.25688189  0.25560044  1
  O  O384  1  0.62649137  0.26472432  0.74176164  1
  O  O385  1  0.61786787  0.74775540  0.25947934  1
  O  O386  1  0.61828969  0.75599747  0.75532629  1
  O  O387  1  0.37109981  0.24138505  0.23403005  1
  O  O388  1  0.37051442  0.23671723  0.74680286  1
  O  O389  1  0.38660338  0.75673544  0.24725883  1
  O  O390  1  0.38578507  0.73885706  0.75774840  1
  O  O391  1  0.88960134  0.24114904  0.25176838  1
  O  O392  1  0.87953893  0.24236387  0.74527162  1
  O  O393  1  0.88396221  0.74508009  0.25018128  1
  O  O394  1  0.87636128  0.74894905  0.73598460  1
  O  O395  1  0.38953822  0.50410676  0.49696662  1
  O  O396  1  0.37375552  0.50493754  0.98522270  1
  O  O397  1  0.38369418  1.01089844  0.49047835  1
  O  O398  1  0.38382846  0.99334452  0.99154838  1
  O  O399  1  0.88329926  0.49453862  0.49813802  1
  O  O400  1  0.88695458  0.50846280  1.00817349  1
  O  O401  1  0.88923618  0.99423377  0.50412306  1
  O  O402  1  0.88402133  0.99957979  0.99060213  1
  O  O403  1  0.10983884  -0.00112359  -0.00920833  1
  O  O404  1  0.11625377  0.01006436  0.50177596  1
  O  O405  1  0.11619441  0.50612962  0.00728398  1
  O  O406  1  0.12270107  0.51371222  0.49469927  1
  O  O407  1  0.61133661  0.00481736  -0.00138666  1
  O  O408  1  0.61985316  0.00869622  0.50319844  1
  O  O409  1  0.63183923  0.50901629  0.01042140  1
  O  O410  1  0.62276411  0.50530678  0.51065996  1
  O  O411  1  0.37406194  0.36455759  0.12666538  1
  O  O412  1  0.37514425  0.36050499  0.63840551  1
  O  O413  1  0.36877663  0.88076318  0.11310516  1
  O  O414  1  0.36455862  0.87647222  0.63172836  1
  O  O415  1  0.86585306  0.36635400  0.13113070  1
  O  O416  1  0.87233542  0.36966051  0.61883053  1
  O  O417  1  0.85975104  0.87081382  0.12311130  1
  O  O418  1  0.86985546  0.86765946  0.61933681  1
  O  O419  1  0.13548997  0.12455913  0.38339703  1
  O  O420  1  0.13058788  0.13284060  0.87487057  1
  O  O421  1  0.12397051  0.63383345  0.37525523  1
  O  O422  1  0.13289857  0.62571717  0.88596572  1
  O  O423  1  0.65002201  0.12246769  0.38057342  1
  O  O424  1  0.62396006  0.11794986  0.88849801  1
  O  O425  1  0.63136927  0.63322861  0.37852128  1
  O  O426  1  0.63282632  0.62977146  0.88036391  1
