# generated using pymatgen
data_V85Zn86O256
_symmetry_space_group_name_H-M   'P 1'
_cell_length_a   16.93752398
_cell_length_b   16.94326466
_cell_length_c   16.92274845
_cell_angle_alpha   89.95735712
_cell_angle_beta   89.97859508
_cell_angle_gamma   89.95623065
_symmetry_Int_Tables_number   1
_chemical_formula_structural   V85Zn86O256
_chemical_formula_sum   'V85 Zn86 O256'
_cell_volume   4856.43566290
_cell_formula_units_Z   1
loop_
 _symmetry_equiv_pos_site_id
 _symmetry_equiv_pos_as_xyz
  1  'x, y, z'
loop_
 _atom_site_type_symbol
 _atom_site_label
 _atom_site_symmetry_multiplicity
 _atom_site_fract_x
 _atom_site_fract_y
 _atom_site_fract_z
 _atom_site_occupancy
  V  V0  1  0.86570565  0.60848810  0.25125542  1
  V  V1  1  0.38439270  0.24208356  0.12105766  1
  V  V2  1  0.37716787  0.11358455  0.75163751  1
  V  V3  1  0.12415213  0.50122454  0.62309719  1
  V  V4  1  0.37395594  0.62420868  0.26692764  1
  V  V5  1  0.74608787  0.51537620  0.75286210  1
  V  V6  1  0.12874759  0.62448156  0.49729329  1
  V  V7  1  0.74950143  -0.00029132  0.75276548  1
  V  V8  1  0.87225386  0.51413894  0.86775637  1
  V  V9  1  0.62642191  0.75572695  0.87710891  1
  V  V10  1  0.12862611  0.37574453  0.24881194  1
  V  V11  1  0.24943843  0.62756505  0.87336439  1
  V  V12  1  0.75126281  0.60730121  0.38256803  1
  V  V13  1  0.24982932  0.24719619  0.49896338  1
  V  V14  1  0.00333017  -0.00129314  0.00162138  1
  V  V15  1  0.25773887  0.74906850  0.49065125  1
  V  V16  1  0.12460828  0.63095049  0.00089205  1
  V  V17  1  0.24279442  0.87902101  0.62164698  1
  V  V18  1  0.50168566  0.12546396  0.62379302  1
  V  V19  1  0.87206460  0.87288328  0.49774032  1
  V  V20  1  0.25428972  0.37836756  0.61931599  1
  V  V21  1  0.51093147  0.87352724  0.37236013  1
  V  V22  1  0.63013792  0.74173225  0.37817051  1
  V  V23  1  0.75055672  0.24769447  0.00154208  1
  V  V24  1  0.61657411  0.00143790  0.12441256  1
  V  V25  1  0.62772444  0.62391820  -0.00127052  1
  V  V26  1  0.75063326  0.12874517  0.37143740  1
  V  V27  1  -0.00526868  0.62354886  0.62853428  1
  V  V28  1  0.62407716  0.12683395  0.49335843  1
  V  V29  1  0.37691728  0.75699704  0.62075671  1
  V  V30  1  0.74207109  0.37254988  0.63740487  1
  V  V31  1  0.47746533  0.36348824  0.37853555  1
  V  V32  1  0.74737252  0.87444303  0.62617341  1
  V  V33  1  -0.00025516  0.00010229  0.50224020  1
  V  V34  1  0.26279964  0.86807790  0.12994706  1
  V  V35  1  0.37746088  0.25496346  0.62198662  1
  V  V36  1  -0.00197138  0.25114716  0.74950218  1
  V  V37  1  0.62145976  0.49824020  0.62267225  1
  V  V38  1  0.26474640  0.75236607  0.00197462  1
  V  V39  1  0.74670007  -0.00351424  0.24844859  1
  V  V40  1  -0.00155106  0.37758297  0.87354622  1
  V  V41  1  0.74574097  0.86998573  0.12738005  1
  V  V42  1  0.00316999  0.24808287  0.25226018  1
  V  V43  1  0.75393290  0.74500386  -0.00151334  1
  V  V44  1  0.25014882  0.50255646  0.74852036  1
  V  V45  1  0.49976855  -0.00634549  0.49546254  1
  V  V46  1  -0.00579426  0.38117140  0.37570179  1
  V  V47  1  0.50086568  0.25130035  0.74947112  1
  V  V48  1  0.12561665  0.25073239  0.87589043  1
  V  V49  1  0.00571526  0.12233847  0.62532184  1
  V  V50  1  -0.01268967  0.74921059  0.24978972  1
  V  V51  1  -0.00563255  0.62937720  0.12687598  1
  V  V52  1  0.50539072  0.74754388  0.24578576  1
  V  V53  1  0.50542643  0.37781433  0.86953105  1
  V  V54  1  0.62946863  0.37451536  0.26793289  1
  V  V55  1  0.37758371  0.50302666  0.87395543  1
  V  V56  1  0.48834279  0.50066092  0.49037390  1
  V  V57  1  0.74481226  0.25279536  0.49656993  1
  V  V58  1  0.87147687  0.74635891  0.63361760  1
  V  V59  1  0.87529906  0.37707008  -0.00157256  1
  V  V60  1  0.61145907  0.12393306  0.00434432  1
  V  V61  1  0.23270624  -0.00576978  0.74742672  1
  V  V62  1  0.01110611  0.87749598  0.87124429  1
  V  V63  1  0.49049307  0.62324538  0.12387839  1
  V  V64  1  0.74684015  0.38282787  0.12880970  1
  V  V65  1  0.87467644  -0.00096916  0.87716211  1
  V  V66  1  -0.00019701  0.50304206  -0.00149781  1
  V  V67  1  0.00861332  0.75467186  0.74775502  1
  V  V68  1  0.25763982  0.49959159  0.26225048  1
  V  V69  1  0.12201861  0.74438892  0.37106993  1
  V  V70  1  0.13128653  -0.00630740  0.13535155  1
  V  V71  1  0.33267527  0.94604886  0.43274720  1
  V  V72  1  0.50469645  0.62658405  0.62156767  1
  V  V73  1  0.62545622  -0.00036574  0.62535679  1
  V  V74  1  0.13303163  0.12333912  0.00270631  1
  V  V75  1  0.87604640  0.24993254  0.12527008  1
  V  V76  1  0.87636685  0.87045470  0.00672413  1
  V  V77  1  0.12459351  0.37637891  0.74912450  1
  V  V78  1  0.62698292  0.25219331  0.86970980  1
  V  V79  1  0.49925266  0.75644715  0.75456521  1
  V  V80  1  0.87372276  0.25124890  0.62411430  1
  V  V81  1  0.37468122  0.37890192  0.00108981  1
  V  V82  1  0.25432941  0.12211967  0.87387646  1
  V  V83  1  0.00512629  0.12466915  0.12643705  1
  V  V84  1  0.43678255  -0.06186411  -0.06046984  1
  Zn  Zn85  1  0.12654785  0.12046820  0.49966055  1
  Zn  Zn86  1  -0.00479284  0.87479891  0.37148154  1
  Zn  Zn87  1  0.74583112  0.74310910  0.50186232  1
  Zn  Zn88  1  -0.00559170  0.50551322  0.49383372  1
  Zn  Zn89  1  0.25387993  0.37889058  0.12490250  1
  Zn  Zn90  1  0.61764469  0.88174107  0.76123450  1
  Zn  Zn91  1  0.12466685  0.87043154  0.24951606  1
  Zn  Zn92  1  0.37537194  0.62880525  0.74843462  1
  Zn  Zn93  1  0.24903943  0.10437193  0.36746203  1
  Zn  Zn94  1  0.12722525  0.24366895  0.37478393  1
  Zn  Zn95  1  0.12920172  0.50269460  0.12587792  1
  Zn  Zn96  1  0.75042202  0.12398907  0.87742353  1
  Zn  Zn97  1  0.87394419  -0.00080981  0.37300974  1
  Zn  Zn98  1  0.87451145  0.12482329  0.75143479  1
  Zn  Zn99  1  0.62726588  0.50165033  0.13011568  1
  Zn  Zn100  1  0.86654401  0.38190894  0.49350766  1
  Zn  Zn101  1  0.13134541  0.75732623  0.86960436  1
  Zn  Zn102  1  0.87508324  0.12366640  0.24928316  1
  Zn  Zn103  1  0.50456597  0.24251599  0.24604541  1
  Zn  Zn104  1  0.50568202  0.50068406  0.00048665  1
  Zn  Zn105  1  0.37953804  0.09945860  0.26925827  1
  Zn  Zn106  1  0.25056375  0.25464577  0.00038009  1
  Zn  Zn107  1  0.20123613  0.18803869  0.18700734  1
  Zn  Zn108  1  0.18813100  0.18846049  0.68761863  1
  Zn  Zn109  1  0.18969103  0.68447989  0.18784137  1
  Zn  Zn110  1  0.18829739  0.69064567  0.68221995  1
  Zn  Zn111  1  0.68306779  0.19194967  0.18794764  1
  Zn  Zn112  1  0.68800690  0.18422872  0.68783314  1
  Zn  Zn113  1  0.68657938  0.68620278  0.18673131  1
  Zn  Zn114  1  0.68231323  0.68846543  0.68863775  1
  Zn  Zn115  1  0.30676697  0.28809300  0.29960892  1
  Zn  Zn116  1  0.31417892  0.31208635  0.81019039  1
  Zn  Zn117  1  0.31541330  0.80547157  0.30753459  1
  Zn  Zn118  1  0.31603653  0.81781708  0.81209018  1
  Zn  Zn119  1  0.81229346  0.31173569  0.31067680  1
  Zn  Zn120  1  0.81311943  0.31604844  0.81303300  1
  Zn  Zn121  1  0.80878050  0.80878437  0.31133359  1
  Zn  Zn122  1  0.81372890  0.81289847  0.81578279  1
  Zn  Zn123  1  0.18418055  0.43377225  0.43565322  1
  Zn  Zn124  1  0.18737123  0.44184559  0.93706589  1
  Zn  Zn125  1  0.16729399  0.92528212  0.44665139  1
  Zn  Zn126  1  0.20041222  0.94108453  0.94276768  1
  Zn  Zn127  1  0.68242765  0.43905517  0.44621249  1
  Zn  Zn128  1  0.68923496  0.43792032  0.93573052  1
  Zn  Zn129  1  0.68679640  0.93646207  0.43474921  1
  Zn  Zn130  1  0.68499025  0.93658751  0.94303959  1
  Zn  Zn131  1  0.34530275  0.03279661  0.09794961  1
  Zn  Zn132  1  0.31185255  0.06718152  0.56943161  1
  Zn  Zn133  1  0.31122934  0.56068416  0.06577643  1
  Zn  Zn134  1  0.31580249  0.56850920  0.56041201  1
  Zn  Zn135  1  0.81219933  0.06204684  0.06544316  1
  Zn  Zn136  1  0.81520108  0.06325962  0.56213447  1
  Zn  Zn137  1  0.81549200  0.56484184  0.06241821  1
  Zn  Zn138  1  0.81384760  0.55889055  0.56351233  1
  Zn  Zn139  1  0.44347891  0.43821955  0.19240544  1
  Zn  Zn140  1  0.43814492  0.43860188  0.68834414  1
  Zn  Zn141  1  0.44022915  0.92948387  0.19415988  1
  Zn  Zn142  1  0.43518759  0.93634684  0.68428843  1
  Zn  Zn143  1  0.94036793  0.43760810  0.18522538  1
  Zn  Zn144  1  0.93172060  0.43961516  0.68327997  1
  Zn  Zn145  1  0.93578892  0.93799672  0.18790033  1
  Zn  Zn146  1  0.93625800  0.93615682  0.68786582  1
  Zn  Zn147  1  0.06366097  0.06209355  0.31751737  1
  Zn  Zn148  1  0.06170779  0.06522808  0.81288573  1
  Zn  Zn149  1  0.06486479  0.56216190  0.30975231  1
  Zn  Zn150  1  0.06189566  0.56685492  0.81080848  1
  Zn  Zn151  1  0.56284460  0.06371125  0.30893983  1
  Zn  Zn152  1  0.56174208  0.06302500  0.81962676  1
  Zn  Zn153  1  0.56687447  0.55756639  0.31227307  1
  Zn  Zn154  1  0.56606522  0.56988466  0.81096306  1
  Zn  Zn155  1  0.42772215  0.17525582  0.43022560  1
  Zn  Zn156  1  0.43491667  0.18849463  0.93818201  1
  Zn  Zn157  1  0.44338765  0.68709457  0.43885265  1
  Zn  Zn158  1  0.44203551  0.68832989  0.93565866  1
  Zn  Zn159  1  0.93371754  0.18938699  0.43776287  1
  Zn  Zn160  1  0.93964310  0.18554640  0.93883954  1
  Zn  Zn161  1  0.93228518  0.68498914  0.43868574  1
  Zn  Zn162  1  0.93910082  0.69161717  0.93466329  1
  Zn  Zn163  1  0.06446284  0.31356154  0.06381463  1
  Zn  Zn164  1  0.06447664  0.31180651  0.56117911  1
  Zn  Zn165  1  0.06344179  0.80982755  0.06331960  1
  Zn  Zn166  1  0.05982160  0.80917710  0.55887473  1
  Zn  Zn167  1  0.56421889  0.31713338  0.05838081  1
  Zn  Zn168  1  0.56190113  0.31695355  0.55699648  1
  Zn  Zn169  1  0.56107766  0.81442922  0.06250983  1
  Zn  Zn170  1  0.56511786  0.81140083  0.55919463  1
  O  O171  1  0.12949565  0.11834811  0.11941125  1
  O  O172  1  0.10870347  0.13206338  0.62457686  1
  O  O173  1  0.11700374  0.62382938  0.11681500  1
  O  O174  1  0.11870249  0.62221477  0.61503612  1
  O  O175  1  0.63015278  0.12048424  0.11164877  1
  O  O176  1  0.62060002  0.11966454  0.61549261  1
  O  O177  1  0.61968448  0.62204307  0.11520367  1
  O  O178  1  0.61190082  0.61912604  0.62764926  1
  O  O179  1  0.38053493  0.36972491  0.36955668  1
  O  O180  1  0.38089109  0.38264821  0.88004171  1
  O  O181  1  0.38441589  0.87640304  0.37239588  1
  O  O182  1  0.37240870  0.88129565  0.88371536  1
  O  O183  1  0.89009721  0.36933770  0.37375968  1
  O  O184  1  0.88144572  0.38263055  0.88068161  1
  O  O185  1  0.87279897  0.87252223  0.38712296  1
  O  O186  1  0.88239708  0.88506616  0.88425856  1
  O  O187  1  0.24752356  -0.01665636  0.38472070  1
  O  O188  1  0.24454016  0.00922696  0.86008954  1
  O  O189  1  0.24596841  0.49764721  0.36178025  1
  O  O190  1  0.25746151  0.50760647  0.86882721  1
  O  O191  1  0.74984028  0.00639112  0.36617922  1
  O  O192  1  0.75711297  -0.00164980  0.87010389  1
  O  O193  1  0.74891730  0.50822313  0.38072046  1
  O  O194  1  0.75562786  0.49666808  0.86028112  1
  O  O195  1  0.24790671  0.49696074  0.13646922  1
  O  O196  1  0.24667668  0.49580899  0.62775726  1
  O  O197  1  0.23998847  0.97471831  0.10911450  1
  O  O198  1  0.25264634  0.99367864  0.63739992  1
  O  O199  1  0.75362530  0.48519796  0.11980831  1
  O  O200  1  0.74190427  0.49377858  0.63427310  1
  O  O201  1  0.74575427  0.99320879  0.13048365  1
  O  O202  1  0.74717781  0.99416205  0.63240166  1
  O  O203  1  0.00523822  0.36870349  0.25672843  1
  O  O204  1  0.00388645  0.37090016  0.75355143  1
  O  O205  1  -0.00071277  0.86325718  0.24938661  1
  O  O206  1  -0.00246071  0.86945070  0.75885677  1
  O  O207  1  0.50855713  0.37608643  0.26928605  1
  O  O208  1  0.49463316  0.36758887  0.76172939  1
  O  O209  1  0.49937582  0.85946512  0.25960043  1
  O  O210  1  0.50322582  0.86113486  0.73825918  1
  O  O211  1  0.48935034  0.13195889  0.26481162  1
  O  O212  1  0.49388497  0.13037832  0.74655443  1
  O  O213  1  0.49215863  0.62471120  0.24601845  1
  O  O214  1  0.49898988  0.63739237  0.74072741  1
  O  O215  1  1.00083992  0.13220249  0.24466130  1
  O  O216  1  0.99607098  0.13213343  0.74374038  1
  O  O217  1  0.99041580  0.62669633  0.24453533  1
  O  O218  1  1.00427590  0.63543432  0.73642496  1
  O  O219  1  0.37396234  0.26296782  0.00229273  1
  O  O220  1  0.36629560  0.24285908  0.51545556  1
  O  O221  1  0.36244299  0.74217473  0.00002794  1
  O  O222  1  0.36759706  0.74385283  0.50559199  1
  O  O223  1  0.86986641  0.25600404  0.00300794  1
  O  O224  1  0.86212992  0.25343899  0.50759513  1
  O  O225  1  0.86796301  0.75917055  -0.00537803  1
  O  O226  1  0.87264372  0.75780265  0.51299617  1
  O  O227  1  0.13684847  0.24642096  0.50114675  1
  O  O228  1  0.12632526  0.24268121  0.99466241  1
  O  O229  1  0.13142383  0.74298076  0.49217132  1
  O  O230  1  0.12569726  0.73885654  0.99367987  1
  O  O231  1  0.63602697  0.24051535  0.50719674  1
  O  O232  1  0.63253295  0.24202434  0.99335929  1
  O  O233  1  0.62587141  0.74763517  0.48534330  1
  O  O234  1  0.63304286  0.74528875  0.99531285  1
  O  O235  1  0.48923548  0.25627187  0.11684817  1
  O  O236  1  0.49510843  0.24726716  0.62763220  1
  O  O237  1  0.51091656  0.74021000  0.13805017  1
  O  O238  1  0.49547760  0.74424476  0.62535214  1
  O  O239  1  0.99796194  0.24571190  0.13436887  1
  O  O240  1  0.99091339  0.24685950  0.62824873  1
  O  O241  1  1.00236415  0.73700939  0.13259921  1
  O  O242  1  0.99247676  0.74626142  0.63084453  1
  O  O243  1  0.00076893  0.25364411  0.36348919  1
  O  O244  1  0.00494831  0.25575237  0.87006122  1
  O  O245  1  0.00375357  0.74724411  0.36760687  1
  O  O246  1  0.00150218  0.75997139  0.86444798  1
  O  O247  1  0.49085951  0.26120734  0.38232949  1
  O  O248  1  0.50708218  0.25725260  0.87039417  1
  O  O249  1  0.50838721  0.75315980  0.36982065  1
  O  O250  1  0.50867453  0.74741564  0.86441778  1
  O  O251  1  0.24596297  0.13761166  0.50869951  1
  O  O252  1  0.23944883  0.12683235  0.98864336  1
  O  O253  1  0.24022201  0.63584923  0.50477371  1
  O  O254  1  0.24295836  0.63350954  0.99693694  1
  O  O255  1  0.74349379  0.13059935  0.49505960  1
  O  O256  1  0.75080556  0.13902641  0.99957713  1
  O  O257  1  0.75639462  0.62499168  0.48649479  1
  O  O258  1  0.74525946  0.63724617  1.00684415  1
  O  O259  1  0.25995430  0.37708514  -0.00254605  1
  O  O260  1  0.24368162  0.36954239  0.51460050  1
  O  O261  1  0.24520046  0.85690883  0.00662864  1
  O  O262  1  0.26392434  0.87582842  0.49929164  1
  O  O263  1  0.75498184  0.36486540  0.00486542  1
  O  O264  1  0.74725332  0.36673399  0.51172479  1
  O  O265  1  0.75857288  0.86762581  0.00610947  1
  O  O266  1  0.75569777  0.87355113  0.50833619  1
  O  O267  1  0.13608004  0.49463997  0.24902532  1
  O  O268  1  0.13135639  0.49657810  0.74428769  1
  O  O269  1  0.12432165  0.99809491  0.23828004  1
  O  O270  1  0.13437853  1.00348521  0.74654129  1
  O  O271  1  0.62384452  0.48024592  0.24782482  1
  O  O272  1  0.63685956  0.50516221  0.74282071  1
  O  O273  1  0.63894102  1.00629260  0.24018833  1
  O  O274  1  0.63196006  1.00019122  0.74556274  1
  O  O275  1  0.36197715  0.00593713  0.20790725  1
  O  O276  1  0.36968127  0.01179557  0.74450871  1
  O  O277  1  0.36697740  0.50894237  0.24857647  1
  O  O278  1  0.36934596  0.50240645  0.75977141  1
  O  O279  1  0.86300239  0.00411467  0.25009789  1
  O  O280  1  0.86729895  -0.00046109  0.75978832  1
  O  O281  1  0.87726873  0.51016363  0.25016987  1
  O  O282  1  0.85946892  0.49548806  0.75528927  1
  O  O283  1  0.11522060  0.36893120  0.36352803  1
  O  O284  1  0.11889839  0.37236626  0.86912445  1
  O  O285  1  0.11555194  0.85737166  0.37120989  1
  O  O286  1  0.11347902  0.87846200  0.88312803  1
  O  O287  1  0.62735279  0.37261671  0.36901644  1
  O  O288  1  0.61741931  0.36485439  0.87959594  1
  O  O289  1  0.61717178  0.86376328  0.37595388  1
  O  O290  1  0.62832654  0.86216045  0.87765446  1
  O  O291  1  0.37491312  0.14421549  0.11189925  1
  O  O292  1  0.38406107  0.13264683  0.63399061  1
  O  O293  1  0.38788100  0.62235945  0.12875132  1
  O  O294  1  0.38536808  0.63633798  0.62680133  1
  O  O295  1  0.88547598  0.13259847  0.12341129  1
  O  O296  1  0.87914863  0.13821250  0.62642192  1
  O  O297  1  0.88071815  0.62247741  0.13882438  1
  O  O298  1  0.88232958  0.63479905  0.62345444  1
  O  O299  1  0.26520580  0.26129550  0.11868999  1
  O  O300  1  0.25674095  0.25856290  0.62197826  1
  O  O301  1  0.24253875  0.75502689  0.11047708  1
  O  O302  1  0.25815094  0.75671658  0.61398326  1
  O  O303  1  0.75600618  0.25770681  0.11774768  1
  O  O304  1  0.75384829  0.25478258  0.62204205  1
  O  O305  1  0.74448413  0.76079916  0.11660017  1
  O  O306  1  0.75392422  0.75648142  0.62589186  1
  O  O307  1  0.25089425  0.26238067  0.39680313  1
  O  O308  1  0.24199349  0.24219488  0.87274642  1
  O  O309  1  0.24162339  0.75368496  0.38422840  1
  O  O310  1  0.25014124  0.74605679  0.88379317  1
  O  O311  1  0.75278965  0.24250440  0.38489866  1
  O  O312  1  0.74359848  0.25056035  0.88156139  1
  O  O313  1  0.74296883  0.74089455  0.37636138  1
  O  O314  1  0.74382486  0.75295526  0.88608166  1
  O  O315  1  0.01316833  0.12092122  0.00595859  1
  O  O316  1  -0.00366306  0.11844468  0.50737427  1
  O  O317  1  0.00420085  0.62439769  0.00644839  1
  O  O318  1  0.00665446  0.62758318  0.51201372  1
  O  O319  1  0.51337681  0.12875153  -0.00317652  1
  O  O320  1  0.50797286  0.11606841  0.50250943  1
  O  O321  1  0.50807063  0.62539926  0.00817449  1
  O  O322  1  0.49876056  0.61100379  0.50659871  1
  O  O323  1  0.50103035  0.38531587  0.48703753  1
  O  O324  1  0.49408526  0.37996184  0.98479484  1
  O  O325  1  0.50417004  0.88458468  0.49249217  1
  O  O326  1  0.49320580  0.87680197  0.99947496  1
  O  O327  1  1.00285944  0.36997743  0.48192058  1
  O  O328  1  0.99643931  0.38243708  0.99454026  1
  O  O329  1  0.98809348  0.88095400  0.50229089  1
  O  O330  1  0.99328581  0.87812965  0.99497662  1
  O  O331  1  0.50164710  0.49361060  0.38697402  1
  O  O332  1  0.49440400  0.49550605  0.87115478  1
  O  O333  1  0.50991920  0.98745259  0.38411280  1
  O  O334  1  0.49751975  0.99133633  0.87508656  1
  O  O335  1  1.00443289  0.48421670  0.37315459  1
  O  O336  1  0.99305833  0.49682844  0.87659723  1
  O  O337  1  0.99381823  0.99638078  0.38414373  1
  O  O338  1  0.99428048  0.99541248  0.87974365  1
  O  O339  1  0.00945001  0.00545818  0.11999180  1
  O  O340  1  -0.01341843  0.01260153  0.61886145  1
  O  O341  1  0.00170946  0.51140033  0.11698712  1
  O  O342  1  0.00785584  0.50886111  0.62952231  1
  O  O343  1  0.51835258  -0.00897649  0.13117344  1
  O  O344  1  0.50673974  0.00441857  0.61811528  1
  O  O345  1  0.50470960  0.50898781  0.12215568  1
  O  O346  1  0.50422852  0.50642285  0.62278601  1
  O  O347  1  0.24398248  0.38172225  0.25068064  1
  O  O348  1  0.24485509  0.38127325  0.74127227  1
  O  O349  1  0.24377175  0.85846052  0.23346431  1
  O  O350  1  0.25020126  0.88784262  0.74207945  1
  O  O351  1  0.73900306  0.36921075  0.24342497  1
  O  O352  1  0.74932469  0.37944193  0.73997578  1
  O  O353  1  0.75574783  0.88205162  0.23887804  1
  O  O354  1  0.74832697  0.88518482  0.74464359  1
  O  O355  1  0.27437904  0.16304894  0.26903088  1
  O  O356  1  0.25471600  0.11586001  0.75294951  1
  O  O357  1  0.26560263  0.61721275  0.24787500  1
  O  O358  1  0.25076496  0.62104950  0.75354565  1
  O  O359  1  0.74953941  0.12228611  0.25715984  1
  O  O360  1  0.75251364  0.11176693  0.75316425  1
  O  O361  1  0.76133895  0.62429199  0.25527899  1
  O  O362  1  0.75068219  0.61387084  0.74607433  1
  O  O363  1  0.36413480  0.09252054  0.38763386  1
  O  O364  1  0.36196363  0.13462115  0.86557801  1
  O  O365  1  0.37892690  0.62204542  0.36537083  1
  O  O366  1  0.36967462  0.61817052  0.87241388  1
  O  O367  1  0.86143871  0.12299475  0.37454587  1
  O  O368  1  0.87473304  0.11117708  0.87651585  1
  O  O369  1  0.86293342  0.62546292  0.36407799  1
  O  O370  1  0.88056545  0.61318677  0.87465133  1
  O  O371  1  0.12346487  0.37923976  0.13782061  1
  O  O372  1  0.13054070  0.38110320  0.63122513  1
  O  O373  1  0.12626872  0.88083258  0.12692854  1
  O  O374  1  0.14358688  0.86796215  0.61158880  1
  O  O375  1  0.63515702  0.37895465  0.12396044  1
  O  O376  1  0.63026356  0.38292063  0.62575541  1
  O  O377  1  0.63892814  0.88635626  0.11470948  1
  O  O378  1  0.63689613  0.87896370  0.62481497  1
  O  O379  1  0.11867478  0.25716696  0.24858745  1
  O  O380  1  0.11868834  0.25635727  0.75508724  1
  O  O381  1  0.11425451  0.74071819  0.25823953  1
  O  O382  1  0.11385807  0.75060183  0.74909021  1
  O  O383  1  0.61884753  0.26913007  0.24265533  1
  O  O384  1  0.62017335  0.24124028  0.76302412  1
  O  O385  1  0.61586648  0.73994256  0.26328797  1
  O  O386  1  0.61894176  0.75285828  0.75994325  1
  O  O387  1  0.38878350  0.26813393  0.22427091  1
  O  O388  1  0.37941143  0.24187027  0.73998607  1
  O  O389  1  0.38636551  0.73164938  0.25383552  1
  O  O390  1  0.38170797  0.74979505  0.74224731  1
  O  O391  1  0.88468400  0.24778588  0.24213417  1
  O  O392  1  0.87989653  0.24824700  0.74433888  1
  O  O393  1  0.88455025  0.73926115  0.25362807  1
  O  O394  1  0.88319628  0.75785724  0.73885540  1
  O  O395  1  0.38990335  0.49871960  0.50647869  1
  O  O396  1  0.37661184  0.49819371  0.98644256  1
  O  O397  1  0.38545119  0.99387791  0.51370274  1
  O  O398  1  0.37896105  1.00264378  0.99519917  1
  O  O399  1  0.88462809  0.49089931  0.51238034  1
  O  O400  1  0.87978749  0.49636013  0.99054355  1
  O  O401  1  0.87964388  0.99004652  0.49924742  1
  O  O402  1  0.88224297  0.99461295  0.99498441  1
  O  O403  1  0.12093153  0.00764319  0.00515321  1
  O  O404  1  0.10479116  -0.00007388  0.50533104  1
  O  O405  1  0.11822253  0.51351430  -0.00164283  1
  O  O406  1  0.12057836  0.50741285  0.50455213  1
  O  O407  1  0.63368942  0.01762910  0.00672588  1
  O  O408  1  0.61933457  0.00614572  0.50585807  1
  O  O409  1  0.62711612  0.51058983  -0.00077897  1
  O  O410  1  0.61277152  0.49827520  0.51617971  1
  O  O411  1  0.38110732  0.38309454  0.10720599  1
  O  O412  1  0.36639836  0.36714077  0.63162098  1
  O  O413  1  0.36088121  0.86338173  0.12761522  1
  O  O414  1  0.36641339  0.86177661  0.62739732  1
  O  O415  1  0.87114517  0.36915571  0.11861911  1
  O  O416  1  0.86621747  0.36168266  0.62613254  1
  O  O417  1  0.86745210  0.88074041  0.11186832  1
  O  O418  1  0.86282009  0.87017584  0.61975267  1
  O  O419  1  0.13428361  0.12564530  0.38000814  1
  O  O420  1  0.13137008  0.13022556  0.88119903  1
  O  O421  1  0.11750344  0.63139091  0.38753286  1
  O  O422  1  0.13294325  0.62775909  0.88126388  1
  O  O423  1  0.63566783  0.12034306  0.38724805  1
  O  O424  1  0.62923307  0.13241003  0.88728736  1
  O  O425  1  0.64236930  0.62584757  0.36987494  1
  O  O426  1  0.62103415  0.63655431  0.88993276  1
