# generated using pymatgen
data_V85Zn86O256
_symmetry_space_group_name_H-M   'P 1'
_cell_length_a   16.92119892
_cell_length_b   16.90702455
_cell_length_c   16.91289157
_cell_angle_alpha   90.00537770
_cell_angle_beta   89.98124076
_cell_angle_gamma   90.03878434
_symmetry_Int_Tables_number   1
_chemical_formula_structural   V85Zn86O256
_chemical_formula_sum   'V85 Zn86 O256'
_cell_volume   4838.55914533
_cell_formula_units_Z   1
loop_
 _symmetry_equiv_pos_site_id
 _symmetry_equiv_pos_as_xyz
  1  'x, y, z'
loop_
 _atom_site_type_symbol
 _atom_site_label
 _atom_site_symmetry_multiplicity
 _atom_site_fract_x
 _atom_site_fract_y
 _atom_site_fract_z
 _atom_site_occupancy
  V  V0  1  0.37822741  -0.00328733  0.38463747  1
  V  V1  1  0.37591828  0.12853070  0.74981478  1
  V  V2  1  0.49780979  0.37597862  0.39074173  1
  V  V3  1  0.25129592  0.86936865  0.12699620  1
  V  V4  1  0.62750885  0.49193189  0.12877913  1
  V  V5  1  0.62549269  0.00146844  0.12526637  1
  V  V6  1  0.62484281  0.86885954  0.25264945  1
  V  V7  1  0.24978453  0.00039330  0.25332268  1
  V  V8  1  0.24460780  0.37745981  0.62373611  1
  V  V9  1  0.61314410  0.62114717  -0.00137250  1
  V  V10  1  0.50123168  0.87730895  0.86726059  1
  V  V11  1  0.75887702  0.12110442  0.87267677  1
  V  V12  1  0.12383529  0.50462875  0.12774319  1
  V  V13  1  0.24658722  0.63168730  0.87159045  1
  V  V14  1  0.75298215  0.25133297  0.00138601  1
  V  V15  1  0.37744480  0.50356668  0.87251609  1
  V  V16  1  0.25510991  0.50134265  0.25386842  1
  V  V17  1  0.75334510  -0.00916669  0.75164049  1
  V  V18  1  0.37829315  0.87499016  0.00413395  1
  V  V19  1  0.87696558  0.25834417  0.62187843  1
  V  V20  1  0.23452078  0.49441888  0.74895269  1
  V  V21  1  0.49708248  0.61909990  0.62448892  1
  V  V22  1  0.25709036  0.25286092  0.49782005  1
  V  V23  1  -0.00323481  0.37934378  0.38618811  1
  V  V24  1  0.25327252  0.87680619  0.61654534  1
  V  V25  1  0.50294916  0.38183182  0.87863499  1
  V  V26  1  0.87324259  0.37681083  0.00419909  1
  V  V27  1  -0.00452813  0.86219934  0.37460295  1
  V  V28  1  0.87205728  0.74896544  0.62337064  1
  V  V29  1  0.00716668  0.25688837  0.75140654  1
  V  V30  1  0.75108714  0.63155891  0.88329544  1
  V  V31  1  0.61787770  0.62578941  0.49268928  1
  V  V32  1  0.62902352  0.37688239  0.74814439  1
  V  V33  1  0.88047778  0.24998265  0.12462566  1
  V  V34  1  -0.00416447  0.00158766  0.00687892  1
  V  V35  1  0.12976185  0.24572394  0.37383009  1
  V  V36  1  -0.00130988  0.12367765  0.62563004  1
  V  V37  1  0.50020848  0.12042227  0.61973977  1
  V  V38  1  0.87048135  0.00198837  0.37578385  1
  V  V39  1  0.25387625  0.75122160  -0.00054181  1
  V  V40  1  0.74581501  0.74824230  0.48759338  1
  V  V41  1  0.75462645  0.24916225  0.49892807  1
  V  V42  1  0.62976582  0.24399581  0.37525206  1
  V  V43  1  0.37138061  0.12304947  0.25206845  1
  V  V44  1  0.74691922  0.00909555  0.25252537  1
  V  V45  1  0.62289829  -0.00886916  0.62820680  1
  V  V46  1  0.86382037  0.75101696  0.12736314  1
  V  V47  1  0.24893472  0.12779425  0.87815129  1
  V  V48  1  0.88138938  0.12164570  0.24740145  1
  V  V49  1  0.62804856  0.75572729  0.87389469  1
  V  V50  1  0.87314729  0.49911504  0.87553925  1
  V  V51  1  -0.00077345  0.50410656  0.00385268  1
  V  V52  1  0.00418918  0.75066962  0.75432824  1
  V  V53  1  0.12454472  0.74839739  0.37935132  1
  V  V54  1  -0.00148498  0.88214893  0.87448613  1
  V  V55  1  0.00527964  0.61479213  0.62475980  1
  V  V56  1  0.00054952  0.63771502  0.13310137  1
  V  V57  1  0.50244085  0.12761031  0.12589877  1
  V  V58  1  0.74303137  0.61182242  0.36681071  1
  V  V59  1  0.12351088  0.37634540  0.24996327  1
  V  V60  1  -0.00186015  -0.00170547  0.49789835  1
  V  V61  1  0.62654200  0.12654960  0.00105313  1
  V  V62  1  0.37592919  0.62839352  0.24583043  1
  V  V63  1  0.49487470  0.75348735  0.24101064  1
  V  V64  1  0.24862281  0.00159814  0.75002418  1
  V  V65  1  0.12948324  0.12337797  0.49597516  1
  V  V66  1  0.86685683  0.87428106  -0.00391693  1
  V  V67  1  0.62191371  0.49963517  0.61825608  1
  V  V68  1  0.37802511  0.75446612  0.61946003  1
  V  V69  1  0.00471648  0.24500975  0.24411914  1
  V  V70  1  0.87041830  0.61436581  0.24904857  1
  V  V71  1  0.12196612  0.12514890  0.00632296  1
  V  V72  1  0.49951678  0.87123137  0.38519143  1
  V  V73  1  0.12543977  0.61102491  0.50432300  1
  V  V74  1  0.62771376  0.11678234  0.49796350  1
  V  V75  1  0.37948246  0.49813921  0.38759933  1
  V  V76  1  0.49830801  0.25837902  0.25136000  1
  V  V77  1  0.50169343  0.24957095  0.74990347  1
  V  V78  1  0.37815202  0.37938995  0.00033934  1
  V  V79  1  0.12879375  0.87110258  0.75465033  1
  V  V80  1  0.87461776  0.62659730  0.75234637  1
  V  V81  1  0.11897576  0.86953459  0.25057164  1
  V  V82  1  0.62784929  0.25061955  0.87431075  1
  V  V83  1  0.25183383  0.37679871  0.12351257  1
  V  V84  1  0.12416701  0.63384152  -0.00163166  1
  Zn  Zn85  1  0.64874282  0.38765657  0.25581713  1
  Zn  Zn86  1  0.87165090  0.87215160  0.49897155  1
  Zn  Zn87  1  0.12843180  0.25891325  0.87414950  1
  Zn  Zn88  1  0.37402930  0.62671672  0.74841085  1
  Zn  Zn89  1  0.37496737  0.25059713  0.12374270  1
  Zn  Zn90  1  0.50343942  0.75171823  0.74729496  1
  Zn  Zn91  1  0.75390156  0.37836641  0.61835151  1
  Zn  Zn92  1  0.74376286  0.86812973  0.62531663  1
  Zn  Zn93  1  0.86918221  0.48894924  0.38680811  1
  Zn  Zn94  1  0.74989932  0.50171458  0.74842805  1
  Zn  Zn95  1  0.74501170  0.87341259  0.12181342  1
  Zn  Zn96  1  0.37747757  0.00208550  0.87829031  1
  Zn  Zn97  1  0.25257704  0.62611045  0.37905370  1
  Zn  Zn98  1  0.24811909  0.25266116  -0.00079881  1
  Zn  Zn99  1  0.87816291  0.12211316  0.75165268  1
  Zn  Zn100  1  0.12290789  -0.00226538  0.62360577  1
  Zn  Zn101  1  0.12149826  0.00199047  0.12938282  1
  Zn  Zn102  1  0.00680430  0.38142909  0.87199738  1
  Zn  Zn103  1  0.49948164  0.00067256  -0.00099254  1
  Zn  Zn104  1  0.49460578  0.62405549  0.11972380  1
  Zn  Zn105  1  0.25364114  0.75260206  0.49852246  1
  Zn  Zn106  1  0.37936915  0.25867884  0.61691212  1
  Zn  Zn107  1  0.19039257  0.18679351  0.18580516  1
  Zn  Zn108  1  0.18680050  0.18927233  0.68231962  1
  Zn  Zn109  1  0.18892761  0.69067024  0.19126333  1
  Zn  Zn110  1  0.18909468  0.68902489  0.68578798  1
  Zn  Zn111  1  0.70409038  0.21485364  0.20321200  1
  Zn  Zn112  1  0.68987792  0.18384224  0.68562595  1
  Zn  Zn113  1  0.68376059  0.68541378  0.18545268  1
  Zn  Zn114  1  0.68674861  0.68553095  0.69023790  1
  Zn  Zn115  1  0.31490959  0.31419406  0.31455741  1
  Zn  Zn116  1  0.31217132  0.31457030  0.81004168  1
  Zn  Zn117  1  0.31301502  0.81259173  0.31475542  1
  Zn  Zn118  1  0.31799401  0.81197839  0.81019086  1
  Zn  Zn119  1  0.81513147  0.30935484  0.31656113  1
  Zn  Zn120  1  0.81761387  0.31136044  0.81077505  1
  Zn  Zn121  1  0.81120807  0.80996895  0.30803781  1
  Zn  Zn122  1  0.81360482  0.81277059  0.81417650  1
  Zn  Zn123  1  0.18893530  0.43314911  0.43681901  1
  Zn  Zn124  1  0.18697396  0.44237371  0.93692833  1
  Zn  Zn125  1  0.18694578  0.93926176  0.43371585  1
  Zn  Zn126  1  0.18540530  0.94002165  0.93644665  1
  Zn  Zn127  1  0.68325218  0.43384806  0.43950753  1
  Zn  Zn128  1  0.68939192  0.44176897  0.94246281  1
  Zn  Zn129  1  0.68639468  0.93492958  0.43750993  1
  Zn  Zn130  1  0.68640828  0.93918467  0.93613286  1
  Zn  Zn131  1  0.31117493  0.05924532  0.06553490  1
  Zn  Zn132  1  0.31099395  0.06628025  0.56409262  1
  Zn  Zn133  1  0.31396115  0.56148654  0.06074606  1
  Zn  Zn134  1  0.30845228  0.56301264  0.56599725  1
  Zn  Zn135  1  0.81458213  0.06315343  0.06434556  1
  Zn  Zn136  1  0.81048554  0.06397932  0.56457099  1
  Zn  Zn137  1  0.80735956  0.56552781  0.06333295  1
  Zn  Zn138  1  0.80790088  0.56064404  0.56159349  1
  Zn  Zn139  1  0.44415071  0.44439968  0.18539280  1
  Zn  Zn140  1  0.43343098  0.43750180  0.68678275  1
  Zn  Zn141  1  0.43747371  0.93744673  0.18668287  1
  Zn  Zn142  1  0.43466985  0.93996327  0.68650935  1
  Zn  Zn143  1  0.93698496  0.43584587  0.18902293  1
  Zn  Zn144  1  0.93795820  0.43711053  0.68722024  1
  Zn  Zn145  1  0.93739436  0.93340255  0.18653445  1
  Zn  Zn146  1  0.93412172  0.93594045  0.68620018  1
  Zn  Zn147  1  0.06051623  0.05954576  0.31398217  1
  Zn  Zn148  1  0.06398208  0.06390873  0.81537373  1
  Zn  Zn149  1  0.06004666  0.56460640  0.31452332  1
  Zn  Zn150  1  0.06095743  0.56607120  0.81666305  1
  Zn  Zn151  1  0.55799082  0.06164888  0.31275749  1
  Zn  Zn152  1  0.56660629  0.06057061  0.81129399  1
  Zn  Zn153  1  0.55921891  0.56029939  0.30824988  1
  Zn  Zn154  1  0.56292838  0.56401292  0.80852523  1
  Zn  Zn155  1  0.44018921  0.18140948  0.43481760  1
  Zn  Zn156  1  0.43615193  0.19262651  0.93811614  1
  Zn  Zn157  1  0.43741731  0.68954398  0.43427267  1
  Zn  Zn158  1  0.43594723  0.69296655  0.93433174  1
  Zn  Zn159  1  0.93976940  0.18766145  0.43419172  1
  Zn  Zn160  1  0.94086991  0.18518863  0.93646202  1
  Zn  Zn161  1  0.91944868  0.64762482  0.45631018  1
  Zn  Zn162  1  0.93815858  0.69436986  0.93915945  1
  Zn  Zn163  1  0.06343986  0.31445309  0.05835756  1
  Zn  Zn164  1  0.06833841  0.31290187  0.56430753  1
  Zn  Zn165  1  0.06189339  0.81440084  0.06138987  1
  Zn  Zn166  1  0.06159163  0.81005131  0.56440946  1
  Zn  Zn167  1  0.56232835  0.31428465  0.06244241  1
  Zn  Zn168  1  0.56662024  0.30665382  0.56420680  1
  Zn  Zn169  1  0.56448705  0.80950037  0.05876085  1
  Zn  Zn170  1  0.56312069  0.80782293  0.56138721  1
  O  O171  1  0.13248065  0.12107756  0.11132260  1
  O  O172  1  0.11346229  0.12304714  0.61670623  1
  O  O173  1  0.11770872  0.62532374  0.12318364  1
  O  O174  1  0.12044492  0.62829047  0.61413124  1
  O  O175  1  0.61816533  0.12100484  0.12106917  1
  O  O176  1  0.61790590  0.11743292  0.61917525  1
  O  O177  1  0.62187595  0.62560785  0.10875229  1
  O  O178  1  0.61761968  0.61741156  0.61912218  1
  O  O179  1  0.38962854  0.38070684  0.37354348  1
  O  O180  1  0.38276404  0.38143679  0.87925941  1
  O  O181  1  0.38537961  0.88623901  0.37139561  1
  O  O182  1  0.38161857  0.87675245  0.88552186  1
  O  O183  1  0.88983454  0.37287991  0.37248437  1
  O  O184  1  0.88018397  0.38417112  0.88178080  1
  O  O185  1  0.88101555  0.87984779  0.37330748  1
  O  O186  1  0.88451519  0.87118415  0.88456999  1
  O  O187  1  0.26270091  -0.00940700  0.36179505  1
  O  O188  1  0.25155064  0.01147747  0.86782036  1
  O  O189  1  0.25860157  0.49869271  0.36765317  1
  O  O190  1  0.25552820  0.51022190  0.86735739  1
  O  O191  1  0.76218196  -0.00473663  0.36796392  1
  O  O192  1  0.74275574  0.00675011  0.86070044  1
  O  O193  1  0.74976098  0.50640353  0.37666824  1
  O  O194  1  0.76143713  0.50704984  0.87515269  1
  O  O195  1  0.24618034  0.49295895  0.13211841  1
  O  O196  1  0.25205040  0.49537297  0.64126261  1
  O  O197  1  0.24750463  0.98738259  0.13586136  1
  O  O198  1  0.24902588  0.99517186  0.63369121  1
  O  O199  1  0.72844667  0.50701070  0.11813617  1
  O  O200  1  0.74042861  0.49762318  0.62789374  1
  O  O201  1  0.73869889  1.00060381  0.13204911  1
  O  O202  1  0.74301120  0.99697238  0.63441341  1
  O  O203  1  0.00765786  0.36544987  0.25307216  1
  O  O204  1  -0.00187052  0.36059240  0.75010726  1
  O  O205  1  0.01138069  0.87921647  0.25793959  1
  O  O206  1  0.00662318  0.87244727  0.75500054  1
  O  O207  1  0.50070932  0.36275077  0.25219835  1
  O  O208  1  0.51056126  0.37090450  0.75747346  1
  O  O209  1  0.50524591  0.87071136  0.25321942  1
  O  O210  1  0.49392582  0.87586749  0.76368936  1
  O  O211  1  0.49187157  0.12904089  0.23950666  1
  O  O212  1  0.49332274  0.12868839  0.74509797  1
  O  O213  1  0.49279580  0.63611182  0.25051745  1
  O  O214  1  0.49713639  0.62749041  0.73850801  1
  O  O215  1  0.99556888  0.13204878  0.25043428  1
  O  O216  1  0.99896147  0.12955651  0.74193311  1
  O  O217  1  0.98951065  0.62236507  0.24157681  1
  O  O218  1  0.99653427  0.63425592  0.74760763  1
  O  O219  1  0.37093574  0.26534558  0.00170032  1
  O  O220  1  0.36021018  0.23840986  0.49556081  1
  O  O221  1  0.36200907  0.75707082  -0.00119688  1
  O  O222  1  0.37280493  0.74521776  0.51311515  1
  O  O223  1  0.87526325  0.25567984  0.00502314  1
  O  O224  1  0.86695143  0.24158270  0.50651681  1
  O  O225  1  0.88074110  0.76077507  0.01389316  1
  O  O226  1  0.86460228  0.74275125  0.50805808  1
  O  O227  1  0.13200463  0.24289350  0.49129241  1
  O  O228  1  0.12703720  0.24018289  0.99870451  1
  O  O229  1  0.12838773  0.75023149  0.48940300  1
  O  O230  1  0.13533073  0.74155002  1.00460785  1
  O  O231  1  0.62993470  0.23873031  0.49413561  1
  O  O232  1  0.63522953  0.24776844  0.99560112  1
  O  O233  1  0.63474078  0.73863037  0.50367332  1
  O  O234  1  0.62238460  0.73674149  0.98687442  1
  O  O235  1  0.49838243  0.24460803  0.13281056  1
  O  O236  1  0.49908697  0.24139682  0.63273304  1
  O  O237  1  0.50135366  0.74869773  0.13647785  1
  O  O238  1  0.49497359  0.74201013  0.62686121  1
  O  O239  1  0.99715312  0.25314891  0.13560887  1
  O  O240  1  0.99686428  0.24465459  0.63204809  1
  O  O241  1  0.99281043  0.74131627  0.12215828  1
  O  O242  1  0.99307866  0.74568479  0.63639434  1
  O  O243  1  0.00931561  0.25644441  0.36456899  1
  O  O244  1  -0.00199228  0.24849150  0.85882474  1
  O  O245  1  0.00460155  0.76080213  0.37986315  1
  O  O246  1  -0.00274716  0.76065992  0.86214198  1
  O  O247  1  0.50329680  0.25887551  0.37151240  1
  O  O248  1  0.50785995  0.25826698  0.86946830  1
  O  O249  1  0.49364535  0.76585525  0.36338050  1
  O  O250  1  0.50675444  0.75934359  0.87191972  1
  O  O251  1  0.23529502  0.13158604  0.50564451  1
  O  O252  1  0.24578495  0.12591313  0.99333624  1
  O  O253  1  0.23622617  0.62825131  0.50081442  1
  O  O254  1  0.24521431  0.63266697  0.99568576  1
  O  O255  1  0.73873221  0.13499368  0.50656486  1
  O  O256  1  0.74681578  0.12835642  0.99141024  1
  O  O257  1  0.73674424  0.62971511  0.48929613  1
  O  O258  1  0.74030416  0.62473861  0.98754563  1
  O  O259  1  0.25755345  0.37757924  0.00868587  1
  O  O260  1  0.24795573  0.36544108  0.50769430  1
  O  O261  1  0.25313504  0.86967391  0.00481105  1
  O  O262  1  0.24426422  0.87820140  0.51383789  1
  O  O263  1  0.76407330  0.36678675  -0.00661801  1
  O  O264  1  0.74250792  0.35649638  0.50162044  1
  O  O265  1  0.76276009  0.88164005  0.00121718  1
  O  O266  1  0.75081639  0.86318305  0.50156468  1
  O  O267  1  0.13409495  0.49829809  0.24667354  1
  O  O268  1  0.13606764  0.50279093  0.75662878  1
  O  O269  1  0.13290008  0.99137648  0.25238635  1
  O  O270  1  0.13616020  0.99646007  0.74864059  1
  O  O271  1  0.62604772  0.49872755  0.23695185  1
  O  O272  1  0.62666105  0.49287166  0.73999409  1
  O  O273  1  0.63057927  0.99664878  0.24491117  1
  O  O274  1  0.63925900  1.00631828  0.73938011  1
  O  O275  1  0.36815809  0.00487834  0.25351098  1
  O  O276  1  0.36476556  0.01168874  0.75224075  1
  O  O277  1  0.36971173  0.50373154  0.25787720  1
  O  O278  1  0.36672049  0.50208797  0.76273353  1
  O  O279  1  0.86900629  0.00413620  0.25210197  1
  O  O280  1  0.85884259  0.00355707  0.74329626  1
  O  O281  1  0.87311722  0.51093730  0.24918378  1
  O  O282  1  0.87468727  0.50589765  0.75995475  1
  O  O283  1  0.11732165  0.36721996  0.36798582  1
  O  O284  1  0.11851137  0.37223610  0.88623254  1
  O  O285  1  0.11782067  0.86918161  0.36944534  1
  O  O286  1  0.11901739  0.87801649  0.86240186  1
  O  O287  1  0.61426406  0.36587680  0.37135457  1
  O  O288  1  0.62022954  0.37378666  0.87061052  1
  O  O289  1  0.60938028  0.88527812  0.36504233  1
  O  O290  1  0.61595759  0.86602090  0.88290940  1
  O  O291  1  0.38212546  0.12593398  0.13340242  1
  O  O292  1  0.38315316  0.12730478  0.63259885  1
  O  O293  1  0.37563807  0.61684063  0.13953346  1
  O  O294  1  0.38288626  0.62983308  0.62522015  1
  O  O295  1  0.87585824  0.13499075  0.13528570  1
  O  O296  1  0.88807307  0.13272839  0.62309251  1
  O  O297  1  0.87879191  0.63441012  0.12727359  1
  O  O298  1  0.88185746  0.63444566  0.63353381  1
  O  O299  1  0.25332919  0.26613892  0.12683743  1
  O  O300  1  0.25308416  0.25581756  0.61563084  1
  O  O301  1  0.24726651  0.76167288  0.11822153  1
  O  O302  1  0.25786567  0.76052335  0.62442761  1
  O  O303  1  0.76231606  0.23877703  0.10554871  1
  O  O304  1  0.76077121  0.24981850  0.61973680  1
  O  O305  1  0.76033071  0.75117259  0.12306845  1
  O  O306  1  0.75628539  0.74727039  0.61928875  1
  O  O307  1  0.23785687  0.25707868  0.37955619  1
  O  O308  1  0.25002918  0.23875939  0.87402170  1
  O  O309  1  0.24202491  0.74806045  0.37894993  1
  O  O310  1  0.25425885  0.73922451  0.88047784  1
  O  O311  1  0.73751964  0.24525922  0.38392054  1
  O  O312  1  0.74852173  0.24333027  0.88210695  1
  O  O313  1  0.75131659  0.74311097  0.38382898  1
  O  O314  1  0.74175721  0.74449148  0.87361011  1
  O  O315  1  0.00815076  0.11393032  -0.00544369  1
  O  O316  1  0.00860174  0.12028313  0.50472628  1
  O  O317  1  0.00757348  0.62453004  0.00690280  1
  O  O318  1  0.01883955  0.63690073  0.51271644  1
  O  O319  1  0.50317436  0.12835750  0.01182253  1
  O  O320  1  0.50829820  0.12874828  0.51275303  1
  O  O321  1  0.50939586  0.62781456  -0.00350003  1
  O  O322  1  0.51090372  0.63114694  0.50521674  1
  O  O323  1  0.50286034  0.36923770  0.48926669  1
  O  O324  1  0.49378346  0.37156964  0.98752232  1
  O  O325  1  0.50382315  0.87062753  0.48411661  1
  O  O326  1  0.49135187  0.87473577  0.99418928  1
  O  O327  1  1.00573503  0.36760955  0.48478158  1
  O  O328  1  0.98801198  0.38490296  1.00241496  1
  O  O329  1  0.99662333  0.88068462  0.49292366  1
  O  O330  1  0.99549743  0.88064643  0.99181723  1
  O  O331  1  0.49567128  0.48352037  0.37116219  1
  O  O332  1  0.49251409  0.49173275  0.86893537  1
  O  O333  1  0.48624524  0.98849143  0.36936007  1
  O  O334  1  0.50077331  0.99345993  0.87838888  1
  O  O335  1  1.00059052  0.48145800  0.36869265  1
  O  O336  1  0.98745730  0.50544636  0.88440720  1
  O  O337  1  0.98850665  0.99096935  0.37908087  1
  O  O338  1  1.00308703  0.98863551  0.88218171  1
  O  O339  1  0.00373787  -0.00722424  0.11226244  1
  O  O340  1  -0.00077730  0.00627514  0.61754348  1
  O  O341  1  0.00399788  0.51060893  0.12146466  1
  O  O342  1  -0.00085972  0.51531271  0.63281550  1
  O  O343  1  0.51056814  0.00799724  0.12547487  1
  O  O344  1  0.50850434  0.00924334  0.63229373  1
  O  O345  1  0.51622516  0.50849352  0.12505977  1
  O  O346  1  0.50539157  0.50952861  0.62823592  1
  O  O347  1  0.24673259  0.38478541  0.24510090  1
  O  O348  1  0.24885886  0.38859908  0.74895228  1
  O  O349  1  0.24271773  0.87767564  0.24358904  1
  O  O350  1  0.24537758  0.88319153  0.74761717  1
  O  O351  1  0.73711779  0.32244624  0.23973040  1
  O  O352  1  0.73814441  0.37488364  0.75061230  1
  O  O353  1  0.74061598  0.88595783  0.24842077  1
  O  O354  1  0.75144647  0.88679623  0.74848553  1
  O  O355  1  0.25863003  0.11445133  0.24493721  1
  O  O356  1  0.25521539  0.12077437  0.75360253  1
  O  O357  1  0.25511321  0.61496911  0.25234767  1
  O  O358  1  0.24951410  0.61725694  0.75687151  1
  O  O359  1  0.75853776  0.11430754  0.24678541  1
  O  O360  1  0.75315514  0.11777385  0.75716457  1
  O  O361  1  0.75346477  0.63014165  0.25779248  1
  O  O362  1  0.75695630  0.62306905  0.76231480  1
  O  O363  1  0.38357759  0.11109488  0.36100265  1
  O  O364  1  0.36933571  0.12475117  0.86866324  1
  O  O365  1  0.37540722  0.61644828  0.36474183  1
  O  O366  1  0.36714998  0.61896308  0.87514833  1
  O  O367  1  0.88135682  0.11539685  0.36042064  1
  O  O368  1  0.86228551  0.12612625  0.87483606  1
  O  O369  1  0.86079977  0.62976083  0.35884405  1
  O  O370  1  0.86929224  0.62213812  0.87479983  1
  O  O371  1  0.13264040  0.38279131  0.12925141  1
  O  O372  1  0.14231401  0.37009930  0.62771524  1
  O  O373  1  0.13097406  0.87437690  0.13468080  1
  O  O374  1  0.13174273  0.87697268  0.63703659  1
  O  O375  1  0.62277464  0.38802155  0.12388810  1
  O  O376  1  0.62453147  0.38155996  0.63230823  1
  O  O377  1  0.62444923  0.88425149  0.13048141  1
  O  O378  1  0.62243497  0.88698578  0.62199482  1
  O  O379  1  0.12222924  0.25246329  0.25467242  1
  O  O380  1  0.11035901  0.24326867  0.75096989  1
  O  O381  1  0.12789888  0.75723729  0.26464014  1
  O  O382  1  0.11714727  0.75879947  0.74630248  1
  O  O383  1  0.60749651  0.23129817  0.26525070  1
  O  O384  1  0.62239836  0.25628754  0.75404004  1
  O  O385  1  0.61891749  0.76379042  0.24572955  1
  O  O386  1  0.62267374  0.74425005  0.76711216  1
  O  O387  1  0.38109719  0.24127367  0.25060682  1
  O  O388  1  0.38064195  0.23942287  0.75085422  1
  O  O389  1  0.38058189  0.74136588  0.25235801  1
  O  O390  1  0.37759108  0.74664469  0.73662985  1
  O  O391  1  0.88583806  0.24072155  0.24376296  1
  O  O392  1  0.88496164  0.24538386  0.74012294  1
  O  O393  1  0.87316925  0.74377276  0.23295093  1
  O  O394  1  0.88127288  0.74576805  0.74442577  1
  O  O395  1  0.37070918  0.50740858  0.48649652  1
  O  O396  1  0.36947672  0.48986582  0.98675956  1
  O  O397  1  0.36891634  1.00826574  0.48281505  1
  O  O398  1  0.37701536  0.99102273  0.99870654  1
  O  O399  1  0.88611988  0.53842874  0.48782087  1
  O  O400  1  0.87643976  0.49471212  0.99756151  1
  O  O401  1  0.87723407  0.99957443  0.49134607  1
  O  O402  1  0.88363799  0.98973277  1.00655304  1
  O  O403  1  0.11727027  0.00635275  0.00222463  1
  O  O404  1  0.11854192  0.00700731  0.49850233  1
  O  O405  1  0.12300326  0.51528609  0.00980264  1
  O  O406  1  0.12588670  0.51242429  0.49489137  1
  O  O407  1  0.62369500  0.00770169  0.00895005  1
  O  O408  1  0.63301052  0.00939420  0.50971083  1
  O  O409  1  0.62362443  0.51447727  0.00251522  1
  O  O410  1  0.62621017  0.50626446  0.51156703  1
  O  O411  1  0.37055230  0.38004276  0.11719312  1
  O  O412  1  0.35930038  0.37145968  0.63294058  1
  O  O413  1  0.36715723  0.87846535  0.11361813  1
  O  O414  1  0.36595124  0.86930915  0.62830200  1
  O  O415  1  0.87770239  0.36085145  0.11948737  1
  O  O416  1  0.87453958  0.36347438  0.62503185  1
  O  O417  1  0.87188474  0.86395048  0.12085450  1
  O  O418  1  0.87358323  0.85966442  0.62195333  1
  O  O419  1  0.11980488  0.13379867  0.38216523  1
  O  O420  1  0.13383020  0.12734729  0.88541571  1
  O  O421  1  0.12404440  0.63150948  0.38569884  1
  O  O422  1  0.13340910  0.62336769  0.88705022  1
  O  O423  1  0.61446614  0.12933850  0.38759063  1
  O  O424  1  0.63310825  0.13217430  0.88133105  1
  O  O425  1  0.62846355  0.61835679  0.38115334  1
  O  O426  1  0.63029043  0.62770555  0.88244853  1
