# generated using pymatgen
data_V85Zn86O256
_symmetry_space_group_name_H-M   'P 1'
_cell_length_a   16.96456952
_cell_length_b   16.98283202
_cell_length_c   16.97260931
_cell_angle_alpha   89.84704708
_cell_angle_beta   89.99955486
_cell_angle_gamma   89.95608579
_symmetry_Int_Tables_number   1
_chemical_formula_structural   V85Zn86O256
_chemical_formula_sum   'V85 Zn86 O256'
_cell_volume   4889.89909472
_cell_formula_units_Z   1
loop_
 _symmetry_equiv_pos_site_id
 _symmetry_equiv_pos_as_xyz
  1  'x, y, z'
loop_
 _atom_site_type_symbol
 _atom_site_label
 _atom_site_symmetry_multiplicity
 _atom_site_fract_x
 _atom_site_fract_y
 _atom_site_fract_z
 _atom_site_occupancy
  V  V0  1  0.25544118  0.74343649  0.50507734  1
  V  V1  1  0.49849016  0.12649314  0.12598255  1
  V  V2  1  0.12758689  0.74792428  0.36525729  1
  V  V3  1  0.62017411  0.75631769  0.37581167  1
  V  V4  1  0.62498180  -0.00359530  0.62147173  1
  V  V5  1  0.61303368  0.87646219  0.25461266  1
  V  V6  1  0.25017427  0.00045418  0.74877723  1
  V  V7  1  0.12749293  0.75107557  0.87830217  1
  V  V8  1  0.75355184  0.75042634  0.00894133  1
  V  V9  1  0.74548403  0.37527072  0.62266212  1
  V  V10  1  0.49685866  0.12800934  0.61981484  1
  V  V11  1  0.12567579  0.62405558  0.00026319  1
  V  V12  1  0.62588680  0.12313588  -0.00133231  1
  V  V13  1  0.87659608  0.00382689  0.87854283  1
  V  V14  1  0.52842950  0.47013625  0.01724215  1
  V  V15  1  0.73018425  0.48931688  0.23730442  1
  V  V16  1  0.62047850  0.50619951  0.62424206  1
  V  V17  1  -0.00009569  0.75157650  0.24798936  1
  V  V18  1  0.36623652  0.37247000  -0.00306744  1
  V  V19  1  0.75401711  0.25414492  0.00423303  1
  V  V20  1  0.37911436  0.87733483  0.48781491  1
  V  V21  1  0.26734186  0.25103370  0.50609300  1
  V  V22  1  0.74927773  0.50244263  0.75245429  1
  V  V23  1  0.36991028  0.87297423  0.01413402  1
  V  V24  1  0.62266137  0.75582714  0.87287879  1
  V  V25  1  0.74395047  0.62100819  0.37570685  1
  V  V26  1  0.75402860  0.87258549  0.13610211  1
  V  V27  1  0.00461842  0.87138184  0.37998909  1
  V  V28  1  0.49854573  0.00005512  0.00082963  1
  V  V29  1  -0.00381515  0.50321928  0.00127024  1
  V  V30  1  0.86871782  0.49582218  0.36915031  1
  V  V31  1  0.74979572  0.00197381  0.74834285  1
  V  V32  1  0.51567630  0.25729148  0.25904163  1
  V  V33  1  0.86776607  0.62656211  0.24892744  1
  V  V34  1  0.76563129  0.87212014  0.61978826  1
  V  V35  1  0.12591389  -0.00278973  0.62034788  1
  V  V36  1  0.49734062  -0.00385179  0.48602126  1
  V  V37  1  0.37537573  -0.00092436  0.87611515  1
  V  V38  1  0.62418157  0.37353373  0.74834853  1
  V  V39  1  0.26595641  0.62428986  0.36602333  1
  V  V40  1  0.12998297  -0.01312254  0.13064244  1
  V  V41  1  0.13141692  0.61488714  0.49945596  1
  V  V42  1  0.61723366  0.63086616  0.00447333  1
  V  V43  1  0.25052194  -0.00868201  0.25298266  1
  V  V44  1  0.87573863  0.87189810  0.00616261  1
  V  V45  1  0.75028427  0.12807456  0.87447134  1
  V  V46  1  0.49765375  0.24715953  0.74252889  1
  V  V47  1  0.12939474  0.25287834  0.38024241  1
  V  V48  1  0.62831515  -0.00091783  0.12653968  1
  V  V49  1  0.37377948  0.12718087  0.25264803  1
  V  V50  1  0.87646340  0.24823155  0.13523885  1
  V  V51  1  0.12563329  0.48550589  0.62903913  1
  V  V52  1  0.88292004  0.00321381  0.36274159  1
  V  V53  1  0.61862415  0.62810573  0.50349747  1
  V  V54  1  0.00228486  0.00065736  0.00319601  1
  V  V55  1  0.75070606  0.62979106  0.87135669  1
  V  V56  1  0.49449339  0.37194664  0.86816908  1
  V  V57  1  0.49062734  0.74731780  0.74617601  1
  V  V58  1  0.45319977  0.42806133  0.44342586  1
  V  V59  1  0.37690980  0.50655608  0.86381348  1
  V  V60  1  0.74450954  0.25133326  0.49308619  1
  V  V61  1  0.86888170  0.49928227  0.87874553  1
  V  V62  1  0.24715828  0.12736608  0.87707873  1
  V  V63  1  0.00470992  0.37873646  0.87149919  1
  V  V64  1  0.62506519  0.12591436  0.49239052  1
  V  V65  1  0.87622612  0.12834222  0.74955743  1
  V  V66  1  0.37522486  0.12404224  0.74550465  1
  V  V67  1  0.00039851  0.87618008  0.87499479  1
  V  V68  1  0.00349347  0.26412551  0.74774950  1
  V  V69  1  0.26802019  0.50161203  0.24840672  1
  V  V70  1  0.25632002  0.36351490  0.63939506  1
  V  V71  1  0.25479902  0.12252272  0.37658125  1
  V  V72  1  -0.00748824  0.62785158  0.12422721  1
  V  V73  1  -0.00784546  -0.00392493  0.50081395  1
  V  V74  1  0.12474263  0.87297532  0.74978896  1
  V  V75  1  0.00256493  0.37556383  0.37259977  1
  V  V76  1  0.75679999  0.12564958  0.36816731  1
  V  V77  1  0.87067700  0.37398358  0.49439512  1
  V  V78  1  0.00041465  0.12641021  0.62497807  1
  V  V79  1  0.13036469  0.37864949  0.25458195  1
  V  V80  1  0.12300092  0.12809894  0.00571891  1
  V  V81  1  0.12409853  0.49825642  0.12576359  1
  V  V82  1  0.25240700  0.74955500  0.01538632  1
  V  V83  1  0.26127842  0.87025102  0.62532906  1
  V  V84  1  0.87479337  0.25363323  0.62354023  1
  Zn  Zn85  1  0.12706887  0.12611596  0.50165613  1
  Zn  Zn86  1  0.31878042  0.68450383  0.68847997  1
  Zn  Zn87  1  0.49874407  0.87547331  0.87446448  1
  Zn  Zn88  1  0.25180246  0.50692422  0.74593495  1
  Zn  Zn89  1  -0.01715834  0.63249657  0.61930083  1
  Zn  Zn90  1  0.76108805  0.74560512  0.51179023  1
  Zn  Zn91  1  -0.02856837  0.74985659  0.72679398  1
  Zn  Zn92  1  -0.00482875  0.11980558  0.13912690  1
  Zn  Zn93  1  0.37143684  0.25093382  0.12574249  1
  Zn  Zn94  1  0.12513581  0.25580452  0.87328971  1
  Zn  Zn95  1  0.24544234  0.25005291  0.00477977  1
  Zn  Zn96  1  -0.00132490  0.24440364  0.25433002  1
  Zn  Zn97  1  0.62435445  0.24945033  0.87411723  1
  Zn  Zn98  1  0.75583523  0.00302619  0.24878513  1
  Zn  Zn99  1  0.24859792  0.37118558  0.12657993  1
  Zn  Zn100  1  0.87333185  0.37562515  0.00720795  1
  Zn  Zn101  1  0.47280688  0.62689818  0.12876053  1
  Zn  Zn102  1  0.48910699  0.62807199  0.62800527  1
  Zn  Zn103  1  0.25434325  0.62844471  0.86925945  1
  Zn  Zn104  1  0.00478554  0.49828595  0.49454487  1
  Zn  Zn105  1  0.62306486  0.87598406  0.74783132  1
  Zn  Zn106  1  0.47940997  0.74426127  0.25055017  1
  Zn  Zn107  1  0.18560933  0.18869890  0.18935673  1
  Zn  Zn108  1  0.18337000  0.18719952  0.68941905  1
  Zn  Zn109  1  0.30767867  0.68967314  0.18450768  1
  Zn  Zn110  1  0.14223697  0.66564355  0.70468523  1
  Zn  Zn111  1  0.69085514  0.18770582  0.18434320  1
  Zn  Zn112  1  0.68387099  0.18764733  0.68176958  1
  Zn  Zn113  1  0.61516914  0.68313575  0.18837873  1
  Zn  Zn114  1  0.68759413  0.69200701  0.69068565  1
  Zn  Zn115  1  0.32311549  0.31524345  0.31786423  1
  Zn  Zn116  1  0.31377713  0.30929417  0.80683391  1
  Zn  Zn117  1  0.31119718  0.81537880  0.31912783  1
  Zn  Zn118  1  0.30996708  0.81613862  0.82046821  1
  Zn  Zn119  1  0.80593244  0.31312655  0.30888811  1
  Zn  Zn120  1  0.81651648  0.31652678  0.81388578  1
  Zn  Zn121  1  0.83457837  0.79210168  0.35581964  1
  Zn  Zn122  1  0.80883100  0.81880407  0.81163059  1
  Zn  Zn123  1  0.23997066  0.45065021  0.45412573  1
  Zn  Zn124  1  0.18819075  0.44081741  0.93130390  1
  Zn  Zn125  1  0.18733618  0.93399166  0.43644521  1
  Zn  Zn126  1  0.19027473  0.93906068  0.94193292  1
  Zn  Zn127  1  0.66571706  0.43784382  0.43142196  1
  Zn  Zn128  1  0.68021058  0.43332586  0.94693368  1
  Zn  Zn129  1  0.69359754  0.93858111  0.43704909  1
  Zn  Zn130  1  0.69036985  0.93799776  0.93974919  1
  Zn  Zn131  1  0.31014601  0.06229313  0.06600751  1
  Zn  Zn132  1  0.31440663  0.06093036  0.56005255  1
  Zn  Zn133  1  0.31010560  0.55119443  0.05343730  1
  Zn  Zn134  1  0.32751880  0.54737646  0.55789710  1
  Zn  Zn135  1  0.81495320  0.06494924  0.06493721  1
  Zn  Zn136  1  0.81334263  0.06295872  0.55944236  1
  Zn  Zn137  1  0.80595519  0.56429652  0.06528809  1
  Zn  Zn138  1  0.80908660  0.56130513  0.55801210  1
  Zn  Zn139  1  0.44127251  0.43089506  0.18332969  1
  Zn  Zn140  1  0.44653710  0.42587998  0.65834517  1
  Zn  Zn141  1  0.43481889  0.94161179  0.19274789  1
  Zn  Zn142  1  0.44221316  0.93662196  0.68664051  1
  Zn  Zn143  1  0.93348508  0.43275125  0.18788310  1
  Zn  Zn144  1  0.92207436  0.46653020  0.67139756  1
  Zn  Zn145  1  0.94277286  0.93357215  0.18825574  1
  Zn  Zn146  1  0.94031829  0.94052245  0.69149973  1
  Zn  Zn147  1  0.06892998  0.06492468  0.31413233  1
  Zn  Zn148  1  0.06299506  0.06500111  0.81208709  1
  Zn  Zn149  1  0.06512091  0.56357001  0.31250863  1
  Zn  Zn150  1  0.05507544  0.56382300  0.80956146  1
  Zn  Zn151  1  0.56680058  0.06617987  0.31027305  1
  Zn  Zn152  1  0.56330940  0.06173922  0.81105322  1
  Zn  Zn153  1  0.55243092  0.55737173  0.31641907  1
  Zn  Zn154  1  0.56178463  0.56397532  0.81773873  1
  Zn  Zn155  1  0.43947168  0.18859882  0.43207375  1
  Zn  Zn156  1  0.43543083  0.18903588  0.93535293  1
  Zn  Zn157  1  0.44017596  0.69094948  0.44017010  1
  Zn  Zn158  1  0.43680613  0.69016188  0.93972809  1
  Zn  Zn159  1  0.94028511  0.18656779  0.43715222  1
  Zn  Zn160  1  0.93968659  0.19039197  0.94071736  1
  Zn  Zn161  1  0.94084290  0.68217268  0.44415498  1
  Zn  Zn162  1  0.92248455  0.70331021  0.90342133  1
  Zn  Zn163  1  0.05842190  0.31324173  0.06400181  1
  Zn  Zn164  1  0.06329460  0.31582180  0.55785550  1
  Zn  Zn165  1  0.06286591  0.80865224  0.06480253  1
  Zn  Zn166  1  0.06648730  0.80740140  0.56003225  1
  Zn  Zn167  1  0.56211295  0.30400210  0.06071586  1
  Zn  Zn168  1  0.56305828  0.32686663  0.53473128  1
  Zn  Zn169  1  0.55926784  0.81548608  0.06411354  1
  Zn  Zn170  1  0.56520527  0.81188483  0.56198984  1
  O  O171  1  0.12486612  0.11921099  0.11357532  1
  O  O172  1  0.11812937  0.11319073  0.62632200  1
  O  O173  1  0.10839261  0.61555987  0.10977720  1
  O  O174  1  0.13665835  0.60325831  0.60701398  1
  O  O175  1  0.61971314  0.11771828  0.11874994  1
  O  O176  1  0.62249332  0.11349729  0.61332983  1
  O  O177  1  0.64379848  0.61837559  0.10003701  1
  O  O178  1  0.63066844  0.62192538  0.61971496  1
  O  O179  1  0.40183329  0.36307503  0.38471044  1
  O  O180  1  0.38165318  0.37728484  0.87354986  1
  O  O181  1  0.37188749  0.88300825  0.38991825  1
  O  O182  1  0.37367858  0.89042684  0.88275393  1
  O  O183  1  0.88121699  0.37685202  0.37472591  1
  O  O184  1  0.88384466  0.38488425  0.88126231  1
  O  O185  1  0.89603545  0.88910497  0.37186180  1
  O  O186  1  0.87748453  0.88815181  0.88799232  1
  O  O187  1  0.23950961  0.00983271  0.36328093  1
  O  O188  1  0.25508213  0.00938510  0.87009832  1
  O  O189  1  0.24728764  0.51702933  0.36159576  1
  O  O190  1  0.26314576  0.50162856  0.86722799  1
  O  O191  1  0.76604193  0.00699562  0.37536671  1
  O  O192  1  0.75462274  0.01173492  0.87138962  1
  O  O193  1  0.74930662  0.50401208  0.37265177  1
  O  O194  1  0.75148982  0.50518902  0.87399784  1
  O  O195  1  0.23975945  0.49522679  0.13244255  1
  O  O196  1  0.24678544  0.47838569  0.62721673  1
  O  O197  1  0.23875951  1.00412474  0.13707692  1
  O  O198  1  0.24214654  0.99456061  0.62929466  1
  O  O199  1  0.75125229  0.49759969  0.13864004  1
  O  O200  1  0.73975506  0.49379893  0.63671439  1
  O  O201  1  0.74600314  0.99304172  0.12521214  1
  O  O202  1  0.74480218  0.99598794  0.62831818  1
  O  O203  1  0.00751265  0.37035242  0.26056452  1
  O  O204  1  -0.01057631  0.36878246  0.75538922  1
  O  O205  1  -0.00251066  0.85726129  0.25532541  1
  O  O206  1  0.00904832  0.87411322  0.75692797  1
  O  O207  1  0.50031623  0.35575147  0.24269429  1
  O  O208  1  0.50320785  0.36455076  0.74914453  1
  O  O209  1  0.51116356  0.87696289  0.24842769  1
  O  O210  1  0.50283535  0.86656690  0.75465460  1
  O  O211  1  0.49297657  0.12518240  0.24153317  1
  O  O212  1  0.49775815  0.12860155  0.74087956  1
  O  O213  1  0.52018316  0.63069339  0.23743972  1
  O  O214  1  0.50439717  0.64454764  0.75397603  1
  O  O215  1  1.00912748  0.13231582  0.25093691  1
  O  O216  1  0.99239053  0.13006975  0.74388929  1
  O  O217  1  0.99376518  0.62898821  0.24186310  1
  O  O218  1  1.02978836  0.64150310  0.73294151  1
  O  O219  1  0.36931891  0.25951242  -0.00367619  1
  O  O220  1  0.36544709  0.23976100  0.50448819  1
  O  O221  1  0.36827110  0.76605236  -0.00564981  1
  O  O222  1  0.36525557  0.76347274  0.49493232  1
  O  O223  1  0.86870054  0.25121852  0.00680257  1
  O  O224  1  0.86762780  0.25568137  0.50485543  1
  O  O225  1  0.86668575  0.76186709  -0.00851991  1
  O  O226  1  0.86224895  0.75563763  0.46344523  1
  O  O227  1  0.12998648  0.24821279  0.48921207  1
  O  O228  1  0.12244441  0.24140649  0.99499418  1
  O  O229  1  0.14054786  0.73974795  0.49367010  1
  O  O230  1  0.13252369  0.74369298  0.99734234  1
  O  O231  1  0.63531776  0.23897835  0.50800138  1
  O  O232  1  0.63515900  0.23839661  0.99707414  1
  O  O233  1  0.63472721  0.74752094  0.49371207  1
  O  O234  1  0.63206146  0.74525831  0.99277985  1
  O  O235  1  0.49892865  0.23636467  0.12826796  1
  O  O236  1  0.50853139  0.23257233  0.62812003  1
  O  O237  1  0.52181265  0.74047221  0.13565870  1
  O  O238  1  0.50559830  0.75212833  0.64326737  1
  O  O239  1  0.98892398  0.24628276  0.12770270  1
  O  O240  1  0.99480637  0.24928224  0.62981038  1
  O  O241  1  1.00348479  0.73923036  0.13440938  1
  O  O242  1  0.99512619  0.74687437  0.61812017  1
  O  O243  1  0.01071982  0.25731346  0.37673722  1
  O  O244  1  -0.00340257  0.26189347  0.86692952  1
  O  O245  1  0.00818971  0.75515890  0.37199429  1
  O  O246  1  0.02072779  0.76352872  0.89013042  1
  O  O247  1  0.50847773  0.23593042  0.35768793  1
  O  O248  1  0.50162515  0.25465827  0.86350247  1
  O  O249  1  0.51643062  0.74634983  0.37137790  1
  O  O250  1  0.50649527  0.75428533  0.86851119  1
  O  O251  1  0.24883667  0.13172700  0.49524242  1
  O  O252  1  0.24238837  0.12429519  0.99225541  1
  O  O253  1  0.24989984  0.62943925  0.48816506  1
  O  O254  1  0.23843950  0.63101043  0.99327365  1
  O  O255  1  0.74392098  0.13167762  0.49399333  1
  O  O256  1  0.74734735  0.13055594  0.99030070  1
  O  O257  1  0.74264203  0.62614319  0.49268868  1
  O  O258  1  0.74683508  0.63427877  0.98878265  1
  O  O259  1  0.25296117  0.37167014  -0.00261065  1
  O  O260  1  0.25074176  0.35397276  0.51379396  1
  O  O261  1  0.26238096  0.86902806  -0.00120488  1
  O  O262  1  0.25875756  0.86951230  0.50664693  1
  O  O263  1  0.75385871  0.35623041  -0.01271831  1
  O  O264  1  0.74837783  0.36702837  0.49879286  1
  O  O265  1  0.75817471  0.87069177  0.00716817  1
  O  O266  1  0.75075097  0.87818589  0.51797951  1
  O  O267  1  0.12824030  0.48937263  0.24734763  1
  O  O268  1  0.12773040  0.49987749  0.73171889  1
  O  O269  1  0.13586818  1.00392553  0.23806513  1
  O  O270  1  0.12801693  0.99113290  0.74154576  1
  O  O271  1  0.63157097  0.50084628  0.25162510  1
  O  O272  1  0.63465629  0.49495791  0.75257988  1
  O  O273  1  0.63155922  0.99293802  0.24559546  1
  O  O274  1  0.63178414  1.00081981  0.74009954  1
  O  O275  1  0.35990739  0.01186028  0.24549769  1
  O  O276  1  0.37128165  0.00367101  0.75847049  1
  O  O277  1  0.36708634  0.49617797  0.24161233  1
  O  O278  1  0.37749192  0.49363743  0.76330007  1
  O  O279  1  0.87914583  0.00105465  0.25935434  1
  O  O280  1  0.87047096  0.00871561  0.75795644  1
  O  O281  1  0.87313484  0.50385170  0.25882661  1
  O  O282  1  0.85499551  0.48772286  0.76479349  1
  O  O283  1  0.11801292  0.37062845  0.37051904  1
  O  O284  1  0.10897304  0.37756108  0.87536021  1
  O  O285  1  0.11699419  0.86296344  0.37812154  1
  O  O286  1  0.12356300  0.87448757  0.86910061  1
  O  O287  1  0.56553471  0.38557802  0.43349342  1
  O  O288  1  0.60992022  0.37221025  0.86715893  1
  O  O289  1  0.63569999  0.86856987  0.36678111  1
  O  O290  1  0.62598049  0.86591445  0.87676531  1
  O  O291  1  0.38310597  0.12566185  0.13148510  1
  O  O292  1  0.38609408  0.11573946  0.63216254  1
  O  O293  1  0.36351960  0.63113499  0.10702508  1
  O  O294  1  0.37670272  0.62313717  0.61757031  1
  O  O295  1  0.87939826  0.14031787  0.11908059  1
  O  O296  1  0.88074046  0.13226793  0.62864426  1
  O  O297  1  0.88398453  0.61980827  0.13376369  1
  O  O298  1  0.88893665  0.57239723  0.63219134  1
  O  O299  1  0.25226305  0.25272466  0.12309361  1
  O  O300  1  0.24216385  0.25116105  0.61524533  1
  O  O301  1  0.23827427  0.75189978  0.11297992  1
  O  O302  1  0.25023444  0.75745034  0.61716972  1
  O  O303  1  0.76164795  0.24440406  0.11521147  1
  O  O304  1  0.75472659  0.25579673  0.61572926  1
  O  O305  1  0.74712097  0.75924499  0.11062904  1
  O  O306  1  0.75162214  0.76684218  0.62953400  1
  O  O307  1  0.24922934  0.24678418  0.38848588  1
  O  O308  1  0.24703996  0.23559919  0.87237746  1
  O  O309  1  0.24354134  0.74071890  0.38078534  1
  O  O310  1  0.23957435  0.75113387  0.88556742  1
  O  O311  1  0.75619384  0.24187637  0.38593597  1
  O  O312  1  0.75150475  0.23841240  0.87683897  1
  O  O313  1  0.73722396  0.72852607  0.36772734  1
  O  O314  1  0.74170760  0.74507826  0.88195351  1
  O  O315  1  0.00861150  0.11566597  -0.00091988  1
  O  O316  1  0.00531787  0.11706318  0.50784040  1
  O  O317  1  -0.00014805  0.61417876  0.00374040  1
  O  O318  1  0.01467110  0.61659645  0.49924990  1
  O  O319  1  0.50355950  0.12053583  0.00556424  1
  O  O320  1  0.50655777  0.11861552  0.50338657  1
  O  O321  1  0.51276054  0.63242874  0.00459806  1
  O  O322  1  0.51505817  0.63842167  0.50912109  1
  O  O323  1  0.47218949  0.39404278  0.54636709  1
  O  O324  1  0.48495721  0.36773728  0.98409089  1
  O  O325  1  0.48649654  0.87987145  0.50652847  1
  O  O326  1  0.48876209  0.88206943  0.99780911  1
  O  O327  1  0.99142714  0.37453558  0.48590798  1
  O  O328  1  0.99957743  0.38949225  0.99300555  1
  O  O329  1  1.01012649  0.88569662  0.49216000  1
  O  O330  1  0.99378635  0.88099288  0.99807708  1
  O  O331  1  0.48492663  0.51054197  0.39223136  1
  O  O332  1  0.49145167  0.48886623  0.88043948  1
  O  O333  1  0.50453921  1.00530429  0.38746230  1
  O  O334  1  0.49138976  1.00152990  0.88170677  1
  O  O335  1  0.99062787  0.49137325  0.37301145  1
  O  O336  1  0.99018464  0.49794081  0.87868773  1
  O  O337  1  1.00195927  0.99504633  0.38226570  1
  O  O338  1  0.99752451  0.99465937  0.88146864  1
  O  O339  1  0.01267039  0.00099143  0.12236995  1
  O  O340  1  0.00722785  0.00267975  0.61894194  1
  O  O341  1  0.00218155  0.50344683  0.11819305  1
  O  O342  1  0.02160375  0.48493232  0.61269517  1
  O  O343  1  0.50528293  0.00984095  0.12117779  1
  O  O344  1  0.50934655  0.00789235  0.61832081  1
  O  O345  1  0.49219931  0.50373546  0.10729891  1
  O  O346  1  0.51873307  0.51342777  0.64760471  1
  O  O347  1  0.24692608  0.38382956  0.25598988  1
  O  O348  1  0.23767852  0.36382215  0.74094478  1
  O  O349  1  0.25029299  0.89335952  0.25806509  1
  O  O350  1  0.24579218  0.88183880  0.74400507  1
  O  O351  1  0.74493988  0.39051783  0.25703356  1
  O  O352  1  0.74127255  0.37831786  0.74642055  1
  O  O353  1  0.75364448  0.87747702  0.23752005  1
  O  O354  1  0.74705346  0.88571084  0.74178549  1
  O  O355  1  0.25628701  0.12214982  0.25854454  1
  O  O356  1  0.25288438  0.11844017  0.75593263  1
  O  O357  1  0.25013773  0.61807730  0.25976851  1
  O  O358  1  0.24182246  0.62759820  0.75186486  1
  O  O359  1  0.74602202  0.12405214  0.26503489  1
  O  O360  1  0.75481520  0.12259513  0.75494644  1
  O  O361  1  0.75894708  0.60839016  0.25869351  1
  O  O362  1  0.74380346  0.61792113  0.76379168  1
  O  O363  1  0.36320818  0.12609396  0.36856211  1
  O  O364  1  0.36773125  0.11511989  0.87073382  1
  O  O365  1  0.36363257  0.63338554  0.37586323  1
  O  O366  1  0.37711576  0.60939861  0.88091529  1
  O  O367  1  0.86865358  0.11608549  0.38202150  1
  O  O368  1  0.86940668  0.12244429  0.87099698  1
  O  O369  1  0.86698055  0.61107684  0.36864313  1
  O  O370  1  0.86337845  0.60705584  0.88153062  1
  O  O371  1  0.12326770  0.37962080  0.13683758  1
  O  O372  1  0.13521707  0.38061715  0.61874918  1
  O  O373  1  0.12404293  0.88901729  0.12190345  1
  O  O374  1  0.13436103  0.88026102  0.63182577  1
  O  O375  1  0.60862473  0.40639701  0.05211195  1
  O  O376  1  0.62929657  0.38486707  0.62910593  1
  O  O377  1  0.63420618  0.88251188  0.13252192  1
  O  O378  1  0.63088916  0.88809741  0.62426487  1
  O  O379  1  0.13215120  0.26323930  0.26431102  1
  O  O380  1  0.10683468  0.24234037  0.75496794  1
  O  O381  1  0.11403832  0.73977590  0.26485331  1
  O  O382  1  0.13246083  0.76729489  0.76202343  1
  O  O383  1  0.61459749  0.24570784  0.24281040  1
  O  O384  1  0.61470396  0.25293199  0.74920623  1
  O  O385  1  0.63473845  0.76694162  0.26119077  1
  O  O386  1  0.61837690  0.75622629  0.75919046  1
  O  O387  1  0.38193190  0.23729854  0.24901024  1
  O  O388  1  0.39001749  0.23888747  0.75333735  1
  O  O389  1  0.36912065  0.75658788  0.24861347  1
  O  O390  1  0.38509652  0.75495211  0.75654414  1
  O  O391  1  0.87277303  0.25089156  0.23839880  1
  O  O392  1  0.88142257  0.24686284  0.74256010  1
  O  O393  1  0.88375283  0.73244008  0.26199131  1
  O  O394  1  0.88861707  0.74469598  0.79847893  1
  O  O395  1  0.35724518  0.47491091  0.48063350  1
  O  O396  1  0.37484940  0.48209146  0.98442771  1
  O  O397  1  0.38351422  0.98735118  0.50468877  1
  O  O398  1  0.37630320  0.99408233  0.99469575  1
  O  O399  1  0.87127795  0.48883845  0.48158715  1
  O  O400  1  0.87913847  0.49762303  0.99703311  1
  O  O401  1  0.88930243  1.00352967  0.49376207  1
  O  O402  1  0.88290088  0.99610722  0.99724357  1
  O  O403  1  0.12321249  0.00507315  0.01186069  1
  O  O404  1  0.12205848  0.00007883  0.51124834  1
  O  O405  1  0.11765582  0.50714155  0.00107795  1
  O  O406  1  0.13758307  0.50199879  0.50186857  1
  O  O407  1  0.61917050  0.00400514  0.00519324  1
  O  O408  1  0.61971024  0.00471996  0.50468022  1
  O  O409  1  0.61564496  0.52709321  -0.02860102  1
  O  O410  1  0.63215080  0.51512665  0.51590135  1
  O  O411  1  0.37214667  0.37142625  0.10993259  1
  O  O412  1  0.35501834  0.36102521  0.64466866  1
  O  O413  1  0.37657334  0.88345817  0.11194811  1
  O  O414  1  0.36321082  0.88145750  0.62133118  1
  O  O415  1  0.87932320  0.35723098  0.12203675  1
  O  O416  1  0.86489390  0.37461151  0.61398028  1
  O  O417  1  0.86989341  0.88024493  0.11384957  1
  O  O418  1  0.86378254  0.88263167  0.63038154  1
  O  O419  1  0.13933517  0.13589330  0.37783718  1
  O  O420  1  0.13237148  0.12178237  0.88602047  1
  O  O421  1  0.13243145  0.62964471  0.38330731  1
  O  O422  1  0.12088739  0.63405902  0.88610625  1
  O  O423  1  0.63746639  0.11691893  0.38785147  1
  O  O424  1  0.63418165  0.12504471  0.87938370  1
  O  O425  1  0.62927925  0.62699436  0.38584440  1
  O  O426  1  0.63114981  0.64116025  0.87936876  1
