# generated using pymatgen
data_V85Zn86O256
_symmetry_space_group_name_H-M   'P 1'
_cell_length_a   16.95453317
_cell_length_b   16.94543807
_cell_length_c   16.94642345
_cell_angle_alpha   89.89387303
_cell_angle_beta   89.96461978
_cell_angle_gamma   90.03822814
_symmetry_Int_Tables_number   1
_chemical_formula_structural   V85Zn86O256
_chemical_formula_sum   'V85 Zn86 O256'
_cell_volume   4868.73084300
_cell_formula_units_Z   1
loop_
 _symmetry_equiv_pos_site_id
 _symmetry_equiv_pos_as_xyz
  1  'x, y, z'
loop_
 _atom_site_type_symbol
 _atom_site_label
 _atom_site_symmetry_multiplicity
 _atom_site_fract_x
 _atom_site_fract_y
 _atom_site_fract_z
 _atom_site_occupancy
  V  V0  1  0.12991530  0.75013073  0.87601383  1
  V  V1  1  0.74216731  0.87110704  0.13005253  1
  V  V2  1  0.74895807  0.35852681  0.61459632  1
  V  V3  1  0.87129840  0.87354518  -0.00315053  1
  V  V4  1  0.62604701  0.37597154  0.74996129  1
  V  V5  1  0.87518736  0.75572158  0.62191926  1
  V  V6  1  0.62529465  0.74873636  0.37431315  1
  V  V7  1  0.12956250  0.62672473  0.00267167  1
  V  V8  1  0.00185846  0.50284810  0.00639411  1
  V  V9  1  0.49781829  0.50893365  0.00397892  1
  V  V10  1  0.25781588  -0.00278849  0.23866634  1
  V  V11  1  0.63091597  0.13146013  0.49573502  1
  V  V12  1  -0.00394030  0.87491596  0.38408346  1
  V  V13  1  0.62583593  -0.00214137  0.62223481  1
  V  V14  1  0.25100040  0.87729659  0.62259734  1
  V  V15  1  0.25398773  0.10829425  0.38749353  1
  V  V16  1  0.50421072  0.62754706  0.61667898  1
  V  V17  1  -0.00124598  0.87485823  0.87143415  1
  V  V18  1  0.74700648  -0.00182809  0.25101795  1
  V  V19  1  0.62098128  0.24075871  0.87814531  1
  V  V20  1  0.87082300  0.37538893  0.01073384  1
  V  V21  1  0.62767043  0.50402178  0.62041293  1
  V  V22  1  0.50498013  0.87841808  0.36352556  1
  V  V23  1  0.49908554  0.37638654  0.87477939  1
  V  V24  1  0.37218335  0.37049725  0.00102283  1
  V  V25  1  0.74979044  0.62429488  0.38318720  1
  V  V26  1  0.37534218  0.62673294  0.74669726  1
  V  V27  1  0.11255311  0.49693143  0.62242601  1
  V  V28  1  0.89029108  0.37098688  0.50068089  1
  V  V29  1  0.87379463  0.75301403  0.12638485  1
  V  V30  1  0.62362262  0.75209524  0.87269646  1
  V  V31  1  0.12719775  0.87536355  0.74556767  1
  V  V32  1  0.49986811  0.49705284  0.49740826  1
  V  V33  1  0.62573049  0.00212135  0.11965735  1
  V  V34  1  0.24784055  0.86994131  0.11925508  1
  V  V35  1  0.74349672  0.50344511  0.25319786  1
  V  V36  1  0.37386747  0.49051163  0.37751593  1
  V  V37  1  0.37665998  0.87852726  0.49069729  1
  V  V38  1  0.25807627  0.12236170  0.87970773  1
  V  V39  1  0.49947383  0.12705346  0.62058235  1
  V  V40  1  0.50734596  0.25261278  0.24849467  1
  V  V41  1  -0.00327150  0.61934018  0.61625642  1
  V  V42  1  0.37400065  0.88398308  -0.00530864  1
  V  V43  1  0.63702687  0.25847792  0.37243736  1
  V  V44  1  0.74388509  0.24329296  0.00119878  1
  V  V45  1  0.75490735  0.00489231  0.74861239  1
  V  V46  1  0.74739206  0.62479298  0.87713445  1
  V  V47  1  0.00504785  0.62829313  0.12580686  1
  V  V48  1  0.24952883  0.62772441  0.87512969  1
  V  V49  1  0.50614482  0.74545623  0.24227547  1
  V  V50  1  0.12663482  0.75267789  0.37509759  1
  V  V51  1  0.25148646  0.37617208  0.61760644  1
  V  V52  1  0.49797303  0.00319565  0.48976471  1
  V  V53  1  0.61901966  0.50416798  0.12696284  1
  V  V54  1  0.37260249  0.24889078  0.13060986  1
  V  V55  1  0.37608643  0.75020919  0.62161583  1
  V  V56  1  0.25031303  0.49976668  0.74767129  1
  V  V57  1  0.75822152  0.12911465  0.37246739  1
  V  V58  1  -0.01857685  0.13019052  0.63116881  1
  V  V59  1  0.74770685  0.75780608  0.50067019  1
  V  V60  1  0.87183588  -0.00366440  0.37826537  1
  V  V61  1  0.87676534  0.62035164  0.74960217  1
  V  V62  1  0.01180595  -0.00125538  0.00886116  1
  V  V63  1  -0.00268989  0.00431659  0.50235244  1
  V  V64  1  0.00060382  0.75942628  0.24958636  1
  V  V65  1  0.49564253  0.25107400  0.74744738  1
  V  V66  1  0.25066231  0.74970301  0.49819947  1
  V  V67  1  0.37409283  0.49987427  0.87422368  1
  V  V68  1  0.25149114  0.49957006  0.24475843  1
  V  V69  1  0.37813357  0.74361318  0.11590370  1
  V  V70  1  0.49844925  0.88346633  0.87003891  1
  V  V71  1  0.50222294  0.37456199  0.37179277  1
  V  V72  1  0.87813446  0.01274668  0.87243572  1
  V  V73  1  0.87301198  0.50086001  0.88095147  1
  V  V74  1  0.87221947  0.23284852  0.13292545  1
  V  V75  1  0.23558580  0.24765618  0.49464367  1
  V  V76  1  0.74201318  0.37486671  0.13664388  1
  V  V77  1  0.12841928  0.24402755  0.88795134  1
  V  V78  1  0.37530034  0.25505019  0.61433999  1
  V  V79  1  -0.00098017  0.37105435  0.88137257  1
  V  V80  1  0.24621582  0.37708741  0.12310779  1
  V  V81  1  0.25570417  0.62450753  0.37341604  1
  V  V82  1  0.12420373  0.37180079  0.75473164  1
  V  V83  1  0.50554386  0.12661629  0.11870254  1
  V  V84  1  0.12544007  0.01305215  0.62244366  1
  Zn  Zn85  1  0.75650976  0.87903051  0.62263159  1
  Zn  Zn86  1  0.74676124  0.74948398  0.00020156  1
  Zn  Zn87  1  0.37547478  0.11951196  0.74901407  1
  Zn  Zn88  1  0.19445335  0.19539619  0.04957620  1
  Zn  Zn89  1  0.04542285  0.30853536  0.31061869  1
  Zn  Zn90  1  0.62599930  0.87567923  0.74686925  1
  Zn  Zn91  1  0.74868823  0.49807876  0.74979976  1
  Zn  Zn92  1  0.12202823  0.62113049  0.49888415  1
  Zn  Zn93  1  0.50553995  0.00658298  -0.00689691  1
  Zn  Zn94  1  0.00006584  0.74647433  0.74759461  1
  Zn  Zn95  1  0.38209248  0.62458467  0.24574996  1
  Zn  Zn96  1  0.74966654  0.12577023  0.87405771  1
  Zn  Zn97  1  0.03043159  0.12881574  0.13211579  1
  Zn  Zn98  1  0.90063519  0.50414111  0.39785023  1
  Zn  Zn99  1  0.08696574  0.44787492  0.19104302  1
  Zn  Zn100  1  0.25641993  0.00115614  0.75324412  1
  Zn  Zn101  1  0.12694098  0.87912090  0.24546810  1
  Zn  Zn102  1  0.87698354  0.62622487  0.25627982  1
  Zn  Zn103  1  0.50150478  0.75263929  0.74603188  1
  Zn  Zn104  1  0.62030361  0.62808204  0.00274968  1
  Zn  Zn105  1  -0.01208786  0.23368724  0.76027405  1
  Zn  Zn106  1  0.38381460  0.11718685  0.26013729  1
  Zn  Zn107  1  0.17873773  0.16966357  0.21463597  1
  Zn  Zn108  1  0.18791710  0.19195209  0.69498877  1
  Zn  Zn109  1  0.19169040  0.69110842  0.18944346  1
  Zn  Zn110  1  0.18562807  0.68734749  0.68583078  1
  Zn  Zn111  1  0.69004121  0.18455780  0.19088942  1
  Zn  Zn112  1  0.68470210  0.18329323  0.69098141  1
  Zn  Zn113  1  0.68439626  0.68500502  0.19058685  1
  Zn  Zn114  1  0.68926253  0.68678343  0.68932439  1
  Zn  Zn115  1  0.20892289  0.31675646  0.31293456  1
  Zn  Zn116  1  0.31006492  0.30776237  0.81100243  1
  Zn  Zn117  1  0.31868021  0.81218112  0.30663458  1
  Zn  Zn118  1  0.31346370  0.81393789  0.81049236  1
  Zn  Zn119  1  0.85699483  0.28895851  0.33789625  1
  Zn  Zn120  1  0.80924461  0.31254301  0.81683381  1
  Zn  Zn121  1  0.81332133  0.81566398  0.31230464  1
  Zn  Zn122  1  0.81027846  0.81350699  0.80695522  1
  Zn  Zn123  1  0.17465955  0.43528442  0.43812632  1
  Zn  Zn124  1  0.18646646  0.43963741  0.94120096  1
  Zn  Zn125  1  0.18294343  0.93949627  0.44081004  1
  Zn  Zn126  1  0.19147252  0.93672513  0.93559033  1
  Zn  Zn127  1  0.68781778  0.43922944  0.43772814  1
  Zn  Zn128  1  0.68561092  0.43548794  0.94146539  1
  Zn  Zn129  1  0.68429536  0.93514314  0.43736882  1
  Zn  Zn130  1  0.68817135  0.93787138  0.93612557  1
  Zn  Zn131  1  0.31690984  0.06288419  0.06450256  1
  Zn  Zn132  1  0.31575120  0.06325235  0.56601241  1
  Zn  Zn133  1  0.31237915  0.56417921  0.05892521  1
  Zn  Zn134  1  0.31311284  0.56008036  0.55866875  1
  Zn  Zn135  1  0.80900289  0.05662512  0.05595422  1
  Zn  Zn136  1  0.81343182  0.06386643  0.55836211  1
  Zn  Zn137  1  0.81075757  0.56406365  0.06800538  1
  Zn  Zn138  1  0.81113011  0.56141289  0.56084000  1
  Zn  Zn139  1  0.43552791  0.43623588  0.19042704  1
  Zn  Zn140  1  0.43744382  0.43800849  0.68453662  1
  Zn  Zn141  1  0.43620173  0.93651433  0.18363284  1
  Zn  Zn142  1  0.43850500  0.93888964  0.68386332  1
  Zn  Zn143  1  0.93032950  0.44025849  0.22799120  1
  Zn  Zn144  1  0.92108453  0.40632400  0.70532268  1
  Zn  Zn145  1  0.96100655  0.97794723  0.21219024  1
  Zn  Zn146  1  0.93863372  0.94068843  0.68947576  1
  Zn  Zn147  1  0.07310620  0.06764377  0.31692440  1
  Zn  Zn148  1  0.06688570  0.06194094  0.81290690  1
  Zn  Zn149  1  0.06190011  0.56942890  0.31487564  1
  Zn  Zn150  1  0.05986791  0.55796862  0.81155569  1
  Zn  Zn151  1  0.56988335  0.06536997  0.30695822  1
  Zn  Zn152  1  0.56153002  0.06258839  0.80552776  1
  Zn  Zn153  1  0.56568916  0.56695448  0.31324254  1
  Zn  Zn154  1  0.56064408  0.56404565  0.80938187  1
  Zn  Zn155  1  0.43471968  0.19277451  0.43488912  1
  Zn  Zn156  1  0.43474677  0.18860868  0.94031930  1
  Zn  Zn157  1  0.43972094  0.68738105  0.43466061  1
  Zn  Zn158  1  0.43737441  0.69253544  0.93400656  1
  Zn  Zn159  1  0.94234314  0.19140684  0.45007505  1
  Zn  Zn160  1  0.94320788  0.18693301  0.95421349  1
  Zn  Zn161  1  0.93346672  0.68987800  0.43919267  1
  Zn  Zn162  1  0.93968577  0.69016272  0.93626961  1
  Zn  Zn163  1  0.04311469  0.32237884  0.09590457  1
  Zn  Zn164  1  0.05961846  0.30850228  0.56556962  1
  Zn  Zn165  1  0.06233631  0.81443096  0.05803631  1
  Zn  Zn166  1  0.06161151  0.81083570  0.56212404  1
  Zn  Zn167  1  0.56159537  0.31818473  0.06150309  1
  Zn  Zn168  1  0.56485114  0.31522370  0.55706173  1
  Zn  Zn169  1  0.56086646  0.81472368  0.05711244  1
  Zn  Zn170  1  0.56432244  0.81380635  0.55545683  1
  O  O171  1  0.14333934  0.12455551  0.11988248  1
  O  O172  1  0.12619515  0.11361036  0.63260649  1
  O  O173  1  0.11838795  0.64049008  0.11358238  1
  O  O174  1  0.11432529  0.61715968  0.62604525  1
  O  O175  1  0.61838937  0.11534377  0.12917707  1
  O  O176  1  0.62053520  0.11823980  0.61456266  1
  O  O177  1  0.62952664  0.61119807  0.11928684  1
  O  O178  1  0.61538060  0.61653799  0.63203920  1
  O  O179  1  0.38659201  0.38989169  0.37430583  1
  O  O180  1  0.37851160  0.37724571  0.88055873  1
  O  O181  1  0.38499397  0.86789912  0.38576725  1
  O  O182  1  0.38197431  0.86775348  0.88634584  1
  O  O183  1  0.86192664  0.38570237  0.39816209  1
  O  O184  1  0.87545779  0.38383981  0.89414756  1
  O  O185  1  0.88419631  0.88176638  0.37673919  1
  O  O186  1  0.88261170  0.87736446  0.87780295  1
  O  O187  1  0.25989118  0.00586665  0.38667944  1
  O  O188  1  0.24288908  0.01855686  0.87325623  1
  O  O189  1  0.25851958  0.50741096  0.37170594  1
  O  O190  1  0.25542765  0.50587009  0.86745568  1
  O  O191  1  0.75334933  0.00144802  0.37115548  1
  O  O192  1  0.75920167  0.00241291  0.86897286  1
  O  O193  1  0.74128918  0.51036314  0.36679663  1
  O  O194  1  0.75396278  0.50682136  0.87535534  1
  O  O195  1  0.26232375  0.49348659  0.13333066  1
  O  O196  1  0.24663940  0.49243482  0.62941197  1
  O  O197  1  0.25708363  0.98952995  0.13272271  1
  O  O198  1  0.23992407  0.99248795  0.61848541  1
  O  O199  1  0.73703999  0.49359627  0.12510385  1
  O  O200  1  0.73480976  0.49999266  0.62709904  1
  O  O201  1  0.74651011  0.99150159  0.13109526  1
  O  O202  1  0.74471334  1.00035148  0.62889108  1
  O  O203  1  0.00989934  0.36697555  0.20569618  1
  O  O204  1  0.02002685  0.39443441  0.76742136  1
  O  O205  1  0.00621062  0.87744886  0.26513109  1
  O  O206  1  0.00762702  0.87465026  0.75867915  1
  O  O207  1  0.50018241  0.36930020  0.26205115  1
  O  O208  1  0.50822261  0.37054275  0.75212749  1
  O  O209  1  0.49436300  0.86809803  0.26008691  1
  O  O210  1  0.50296734  0.87295277  0.75523213  1
  O  O211  1  0.50048474  0.13311000  0.24194453  1
  O  O212  1  0.50067621  0.13511362  0.73882232  1
  O  O213  1  0.49934883  0.64063396  0.25299714  1
  O  O214  1  0.49099464  0.62579366  0.73694623  1
  O  O215  1  1.00430711  0.08181196  0.23206262  1
  O  O216  1  0.99959077  0.11887153  0.73764481  1
  O  O217  1  0.99963749  0.64278652  0.23962408  1
  O  O218  1  0.99087031  0.62407856  0.74250686  1
  O  O219  1  0.38572278  0.26178155  0.01438165  1
  O  O220  1  0.36984070  0.25342376  0.51181872  1
  O  O221  1  0.38308227  0.76011082  0.01079191  1
  O  O222  1  0.37085112  0.75659596  0.50279348  1
  O  O223  1  0.86308843  0.25742348  0.00638281  1
  O  O224  1  0.87465642  0.26953213  0.50737031  1
  O  O225  1  0.87396537  0.76047878  0.00236950  1
  O  O226  1  0.86431881  0.74521086  0.51196406  1
  O  O227  1  0.13690257  0.24853610  0.50343860  1
  O  O228  1  0.12054857  0.25906868  0.98854660  1
  O  O229  1  0.13304226  0.74593597  0.49410511  1
  O  O230  1  0.11987076  0.73991009  0.98621598  1
  O  O231  1  0.62010681  0.24024690  0.48781835  1
  O  O232  1  0.63064059  0.25958512  0.98873372  1
  O  O233  1  0.63482065  0.75031499  0.49089499  1
  O  O234  1  0.62494996  0.74697573  0.98673524  1
  O  O235  1  0.50221129  0.24543145  0.13093222  1
  O  O236  1  0.49426158  0.24993191  0.62640690  1
  O  O237  1  0.49137745  0.75797783  0.13067575  1
  O  O238  1  0.49678279  0.74314579  0.62181906  1
  O  O239  1  0.97744322  0.23218208  0.11222937  1
  O  O240  1  1.00541264  0.23120711  0.63142307  1
  O  O241  1  0.99240093  0.74999372  0.12704824  1
  O  O242  1  0.99251028  0.73939476  0.62606119  1
  O  O243  1  -0.03571801  0.25117914  0.35989828  1
  O  O244  1  0.00947655  0.25283762  0.88047807  1
  O  O245  1  0.00624972  0.75647474  0.37344746  1
  O  O246  1  0.00967131  0.75706378  0.86882323  1
  O  O247  1  0.50707534  0.25791548  0.36789868  1
  O  O248  1  0.50377702  0.25684830  0.86966287  1
  O  O249  1  0.50773623  0.75659702  0.36862200  1
  O  O250  1  0.50745351  0.75990990  0.87036472  1
  O  O251  1  0.25536209  0.13516269  0.49552481  1
  O  O252  1  0.26213440  0.12729826  0.98636780  1
  O  O253  1  0.25067309  0.63026790  0.48763881  1
  O  O254  1  0.24152533  0.62168783  0.98837820  1
  O  O255  1  0.73695466  0.11808511  0.49075838  1
  O  O256  1  0.74983974  0.13923429  0.99567820  1
  O  O257  1  0.75154544  0.63472787  0.48889384  1
  O  O258  1  0.75025026  0.62692646  0.98680435  1
  O  O259  1  0.26600399  0.38484054  0.00457187  1
  O  O260  1  0.24329231  0.36536517  0.51203880  1
  O  O261  1  0.26444202  0.87741388  0.00216239  1
  O  O262  1  0.25884585  0.87055002  0.50282893  1
  O  O263  1  0.75417490  0.36724910  0.00732119  1
  O  O264  1  0.73753618  0.37132868  0.51479183  1
  O  O265  1  0.75727309  0.87198637  0.00468015  1
  O  O266  1  0.74898677  0.86287954  0.50265021  1
  O  O267  1  0.14708022  0.52144694  0.24753694  1
  O  O268  1  0.13535634  0.49697035  0.74319262  1
  O  O269  1  0.15525670  0.99039018  0.26642623  1
  O  O270  1  0.12812788  0.98804635  0.74278511  1
  O  O271  1  0.63224263  0.50590294  0.24105545  1
  O  O272  1  0.62209172  0.49107433  0.74175618  1
  O  O273  1  0.63889114  0.99838318  0.23984106  1
  O  O274  1  0.63132397  0.99997113  0.73716942  1
  O  O275  1  0.36392862  -0.00510286  0.25293421  1
  O  O276  1  0.36865435  0.00574056  0.73617455  1
  O  O277  1  0.36954097  0.50595110  0.25858434  1
  O  O278  1  0.37004126  0.50550111  0.75423517  1
  O  O279  1  0.86053473  -0.00551533  0.26871220  1
  O  O280  1  0.86796273  -0.00451585  0.76113000  1
  O  O281  1  0.84770922  0.51374556  0.22906497  1
  O  O282  1  0.87183308  0.50668846  0.75781205  1
  O  O283  1  0.12557709  0.38086323  0.35844392  1
  O  O284  1  0.12454520  0.36607520  0.87302262  1
  O  O285  1  0.12108357  0.86219936  0.37908125  1
  O  O286  1  0.12114491  0.86852919  0.86708762  1
  O  O287  1  0.62144487  0.36360994  0.37707308  1
  O  O288  1  0.61850924  0.37073877  0.86624022  1
  O  O289  1  0.61555929  0.86334243  0.37814804  1
  O  O290  1  0.61741529  0.86855821  0.87331099  1
  O  O291  1  0.38394984  0.13319686  0.12983126  1
  O  O292  1  0.38415309  0.13720298  0.62306681  1
  O  O293  1  0.37484290  0.64026853  0.12129557  1
  O  O294  1  0.38031373  0.63056779  0.62699720  1
  O  O295  1  0.85665196  0.13389517  0.12436565  1
  O  O296  1  0.88230911  0.12475057  0.62809096  1
  O  O297  1  0.88289343  0.64116358  0.12016266  1
  O  O298  1  0.87941746  0.62814577  0.63273421  1
  O  O299  1  0.26221635  0.26080058  0.12282618  1
  O  O300  1  0.25498885  0.25591942  0.61891408  1
  O  O301  1  0.26860798  0.75643730  0.12830646  1
  O  O302  1  0.25493108  0.75568063  0.61760386  1
  O  O303  1  0.74725659  0.25704425  0.11769263  1
  O  O304  1  0.74207070  0.26054744  0.62928348  1
  O  O305  1  0.75458471  0.75370328  0.12406229  1
  O  O306  1  0.75616255  0.74991338  0.61825503  1
  O  O307  1  0.25749749  0.25069852  0.39461407  1
  O  O308  1  0.23693570  0.24244649  0.87447617  1
  O  O309  1  0.24557051  0.74541343  0.37638866  1
  O  O310  1  0.23747901  0.74474369  0.86709146  1
  O  O311  1  0.74746935  0.24087053  0.36707326  1
  O  O312  1  0.73929567  0.25014930  0.88145111  1
  O  O313  1  0.74561666  0.74726388  0.38100952  1
  O  O314  1  0.74222257  0.74318768  0.87414742  1
  O  O315  1  -0.00484547  0.10244409  0.01394248  1
  O  O316  1  -0.00239148  0.11633680  0.51714881  1
  O  O317  1  0.00630821  0.62365597  0.00624440  1
  O  O318  1  -0.00111755  0.62466856  0.51231006  1
  O  O319  1  0.49683474  0.12395748  0.01330017  1
  O  O320  1  0.50710902  0.11970124  0.49916999  1
  O  O321  1  0.49805604  0.61225768  -0.00799573  1
  O  O322  1  0.49710187  0.61894328  0.51106739  1
  O  O323  1  0.50374210  0.38346971  0.48536675  1
  O  O324  1  0.49000379  0.38588534  0.99369551  1
  O  O325  1  0.49518129  0.88344601  0.48874233  1
  O  O326  1  0.49086982  0.87938339  0.98997845  1
  O  O327  1  0.99126829  0.37714955  0.50730635  1
  O  O328  1  0.99055785  0.38235205  1.00284418  1
  O  O329  1  1.00287233  0.88036271  0.49032184  1
  O  O330  1  0.99279765  0.87434224  0.98403087  1
  O  O331  1  0.49900336  0.49670029  0.37982592  1
  O  O332  1  0.49311012  0.49470429  0.87874076  1
  O  O333  1  0.51014755  0.99324062  0.37926008  1
  O  O334  1  0.50653885  0.98846957  0.87422084  1
  O  O335  1  0.98167117  0.49424327  0.32263723  1
  O  O336  1  0.99247102  0.49527128  0.88702484  1
  O  O337  1  0.99387132  0.99573323  0.38488511  1
  O  O338  1  0.99483582  0.99298024  0.88076299  1
  O  O339  1  -0.00204665  -0.03287746  0.10383735  1
  O  O340  1  0.00426047  0.00715945  0.62092613  1
  O  O341  1  0.00468941  0.52047471  0.12497145  1
  O  O342  1  0.00938084  0.50455205  0.63585501  1
  O  O343  1  0.50983993  0.00745557  0.12712431  1
  O  O344  1  0.50945189  0.00668275  0.61355149  1
  O  O345  1  0.50473247  0.49516095  0.11616420  1
  O  O346  1  0.50613651  0.50478566  0.61726278  1
  O  O347  1  0.25917695  0.38883546  0.23656122  1
  O  O348  1  0.24021860  0.37855390  0.74394691  1
  O  O349  1  0.25485028  0.87980284  0.23808958  1
  O  O350  1  0.24322505  0.87656468  0.74150217  1
  O  O351  1  0.74855162  0.38604426  0.23739467  1
  O  O352  1  0.73601090  0.37698271  0.74260005  1
  O  O353  1  0.75284046  0.88096883  0.23904992  1
  O  O354  1  0.74604793  0.88811399  0.74528416  1
  O  O355  1  0.26238835  0.10706294  0.26264371  1
  O  O356  1  0.25171031  0.12621115  0.76327439  1
  O  O357  1  0.25811931  0.62520087  0.26119954  1
  O  O358  1  0.25598324  0.62015534  0.75335410  1
  O  O359  1  0.74639182  0.11295520  0.26226676  1
  O  O360  1  0.74615223  0.11144645  0.75458467  1
  O  O361  1  0.74934796  0.62329397  0.26447859  1
  O  O362  1  0.75754784  0.62141830  0.76124942  1
  O  O363  1  0.36072888  0.13203317  0.37481786  1
  O  O364  1  0.36213679  0.13537224  0.86956653  1
  O  O365  1  0.36948001  0.61751413  0.37399017  1
  O  O366  1  0.36911926  0.62309127  0.86721858  1
  O  O367  1  0.86147505  0.11383924  0.38841479  1
  O  O368  1  0.87818014  0.11484395  0.88300213  1
  O  O369  1  0.86653326  0.62097456  0.37491502  1
  O  O370  1  0.87000763  0.62099812  0.86938087  1
  O  O371  1  0.14349414  0.38051554  0.10876156  1
  O  O372  1  0.12921977  0.38014552  0.63498286  1
  O  O373  1  0.14380257  0.86321198  0.12197054  1
  O  O374  1  0.12849253  0.87945080  0.63122338  1
  O  O375  1  0.63136907  0.38887781  0.11966628  1
  O  O376  1  0.62941363  0.38158094  0.63125494  1
  O  O377  1  0.63686590  0.87871001  0.11912470  1
  O  O378  1  0.62498302  0.88904949  0.62110305  1
  O  O379  1  0.13219616  0.25939135  0.25192561  1
  O  O380  1  0.11773638  0.25953781  0.76232243  1
  O  O381  1  0.12051280  0.75613157  0.25898020  1
  O  O382  1  0.12279608  0.76094525  0.75272197  1
  O  O383  1  0.61603412  0.24679023  0.25830696  1
  O  O384  1  0.61646098  0.25742570  0.75639906  1
  O  O385  1  0.61672503  0.75195550  0.25651381  1
  O  O386  1  0.62418233  0.75248245  0.76007083  1
  O  O387  1  0.39309792  0.24963023  0.23596329  1
  O  O388  1  0.38279054  0.25111094  0.73885898  1
  O  O389  1  0.38652997  0.74953926  0.23615869  1
  O  O390  1  0.37634023  0.74488160  0.73902876  1
  O  O391  1  0.86046179  0.25164309  0.22909806  1
  O  O392  1  0.89832094  0.30091161  0.75433801  1
  O  O393  1  0.88168339  0.75139195  0.24107852  1
  O  O394  1  0.87452386  0.73592799  0.74372069  1
  O  O395  1  0.38929437  0.50320752  0.49297158  1
  O  O396  1  0.38128784  0.49518313  0.99242678  1
  O  O397  1  0.39018901  0.99295373  0.50487677  1
  O  O398  1  0.38228469  0.98666019  1.00288104  1
  O  O399  1  0.87172697  0.48668803  0.50502746  1
  O  O400  1  0.88087701  0.49539511  1.00310237  1
  O  O401  1  0.88526440  0.99761294  0.49357269  1
  O  O402  1  0.87809721  0.98653432  0.99061664  1
  O  O403  1  0.10971126  -0.00962725  -0.00612720  1
  O  O404  1  0.10956129  -0.00488201  0.51057861  1
  O  O405  1  0.11631024  0.51674709  -0.00587437  1
  O  O406  1  0.13063601  0.50405804  0.51709195  1
  O  O407  1  0.62622957  -0.00262357  0.01393473  1
  O  O408  1  0.61655997  0.00743084  0.50291650  1
  O  O409  1  0.61337966  0.50167665  0.00500701  1
  O  O410  1  0.61236615  0.49924390  0.50809273  1
  O  O411  1  0.37141794  0.36938743  0.11798254  1
  O  O412  1  0.36204688  0.36958768  0.63077072  1
  O  O413  1  0.37084676  0.86801557  0.11147418  1
  O  O414  1  0.37403896  0.86772165  0.61050913  1
  O  O415  1  0.86118579  0.36889938  0.11689336  1
  O  O416  1  0.85300978  0.38272508  0.61521429  1
  O  O417  1  0.86304960  0.86245568  0.11355767  1
  O  O418  1  0.87753072  0.85913720  0.63337758  1
  O  O419  1  0.15304813  0.12524830  0.37347828  1
  O  O420  1  0.13162619  0.13809031  0.87497393  1
  O  O421  1  0.13174573  0.63670411  0.37754992  1
  O  O422  1  0.12855848  0.63234608  0.87653596  1
  O  O423  1  0.63391307  0.13474269  0.37927790  1
  O  O424  1  0.62188955  0.13814363  0.87176051  1
  O  O425  1  0.63196644  0.64025008  0.37426621  1
  O  O426  1  0.63163975  0.63145819  0.87382801  1
