# generated using pymatgen
data_V85Zn86O256
_symmetry_space_group_name_H-M   'P 1'
_cell_length_a   16.94507918
_cell_length_b   16.95060782
_cell_length_c   16.95557566
_cell_angle_alpha   89.92028501
_cell_angle_beta   90.04238283
_cell_angle_gamma   89.99636027
_symmetry_Int_Tables_number   1
_chemical_formula_structural   V85Zn86O256
_chemical_formula_sum   'V85 Zn86 O256'
_cell_volume   4870.13362469
_cell_formula_units_Z   1
loop_
 _symmetry_equiv_pos_site_id
 _symmetry_equiv_pos_as_xyz
  1  'x, y, z'
loop_
 _atom_site_type_symbol
 _atom_site_label
 _atom_site_symmetry_multiplicity
 _atom_site_fract_x
 _atom_site_fract_y
 _atom_site_fract_z
 _atom_site_occupancy
  V  V0  1  0.87639157  0.87221446  0.00587354  1
  V  V1  1  0.50992054  0.11892742  0.60768055  1
  V  V2  1  0.37231916  0.36550987  0.50219113  1
  V  V3  1  0.50109273  0.37234879  0.37578532  1
  V  V4  1  0.00878977  0.00320522  0.50806179  1
  V  V5  1  0.37220065  0.75587188  0.62212204  1
  V  V6  1  0.38662942  0.49426369  0.88010405  1
  V  V7  1  0.74666005  0.12793956  0.87523164  1
  V  V8  1  0.12469721  0.25948009  0.87954406  1
  V  V9  1  -0.01143944  0.74516080  0.74410674  1
  V  V10  1  0.00174820  0.25544252  0.75177452  1
  V  V11  1  -0.00344174  0.63089846  0.12106220  1
  V  V12  1  0.12573415  0.88324792  0.74223803  1
  V  V13  1  0.62102374  0.36946401  0.76240609  1
  V  V14  1  0.24837352  0.62501643  0.37473411  1
  V  V15  1  0.75103440  0.25661264  -0.00115546  1
  V  V16  1  0.12487566  0.62264359  0.51168179  1
  V  V17  1  0.87142766  0.24810839  0.62705069  1
  V  V18  1  -0.00407517  0.49494938  0.00094100  1
  V  V19  1  0.75312984  0.74758337  0.00507547  1
  V  V20  1  0.50027083  0.49725681  0.50207736  1
  V  V21  1  0.12568011  0.50284408  0.12209001  1
  V  V22  1  0.12053088  0.75117493  0.37366223  1
  V  V23  1  0.36409245  0.12782079  0.24138393  1
  V  V24  1  0.75299406  0.87182662  0.12521319  1
  V  V25  1  0.38415870  0.62639255  0.24530726  1
  V  V26  1  0.87426970  0.62943000  0.24495071  1
  V  V27  1  0.62576143  0.12380017  -0.00096140  1
  V  V28  1  0.25059758  0.62355477  0.87574297  1
  V  V29  1  0.61414345  0.50302724  0.12042022  1
  V  V30  1  0.75506521  0.12404220  0.37947927  1
  V  V31  1  0.62316840  0.88655622  0.74544315  1
  V  V32  1  0.62462973  0.24543600  0.37515393  1
  V  V33  1  0.62080131  0.74192258  0.37805340  1
  V  V34  1  0.88445199  -0.00745986  0.37885674  1
  V  V35  1  0.12587070  0.37800015  0.24733824  1
  V  V36  1  0.37425715  0.88063885  0.49360803  1
  V  V37  1  0.36764702  -0.00001358  0.87770651  1
  V  V38  1  0.12470119  0.75066747  0.87291279  1
  V  V39  1  -0.00800164  0.37717369  0.87546012  1
  V  V40  1  0.75201799  0.62594980  0.37794389  1
  V  V41  1  0.87710986  0.49943517  0.37475172  1
  V  V42  1  0.49958761  0.12779813  0.12960047  1
  V  V43  1  0.23997471  0.37713490  0.62478888  1
  V  V44  1  0.62960430  0.62422600  0.50639040  1
  V  V45  1  0.61423306  0.62469717  0.00259612  1
  V  V46  1  0.63021659  0.37482532  0.24754662  1
  V  V47  1  0.49379059  0.87746719  0.88241768  1
  V  V48  1  0.87421522  0.00078635  0.87619881  1
  V  V49  1  0.88073273  0.86282804  0.50609905  1
  V  V50  1  0.87566437  0.37164895  0.50083874  1
  V  V51  1  0.12572791  0.12119962  0.00177123  1
  V  V52  1  -0.00068094  0.75252686  0.24950826  1
  V  V53  1  0.74516548  0.86923343  0.61845267  1
  V  V54  1  0.37457801  0.49972101  0.37431233  1
  V  V55  1  0.53353745  0.91452152  0.39589069  1
  V  V56  1  0.13063997  0.24798139  0.37486341  1
  V  V57  1  0.50305204  0.75492442  0.74831602  1
  V  V58  1  0.36393257  -0.00648617  0.36239359  1
  V  V59  1  0.23783122  0.49670016  0.74822371  1
  V  V60  1  0.24862372  0.12362332  0.38048916  1
  V  V61  1  0.00451584  0.49573489  0.51389073  1
  V  V62  1  0.75079064  0.50212133  0.74833655  1
  V  V63  1  0.37666375  0.75219271  0.11806279  1
  V  V64  1  0.25892791  0.25261359  0.00206832  1
  V  V65  1  0.75383186  -0.00078325  0.25163981  1
  V  V66  1  0.26086167  0.37462360  0.12278921  1
  V  V67  1  0.00240930  0.37485202  0.37717283  1
  V  V68  1  0.37543018  0.62348474  0.74899007  1
  V  V69  1  0.74390568  0.24674600  0.50174655  1
  V  V70  1  0.25005084  0.50217250  0.24731629  1
  V  V71  1  0.87664026  0.12322084  0.74628638  1
  V  V72  1  0.62699072  0.86967655  0.25097691  1
  V  V73  1  0.25200240  0.88703495  0.12086245  1
  V  V74  1  0.12901229  0.88192287  0.24562595  1
  V  V75  1  0.87593074  0.25665452  0.12020754  1
  V  V76  1  0.75435449  0.62695809  0.87031571  1
  V  V77  1  0.62454037  0.75284852  0.87447894  1
  V  V78  1  0.49864082  0.62472137  0.62324902  1
  V  V79  1  -0.00129790  0.24998651  0.24928776  1
  V  V80  1  0.86663090  0.50008685  0.88009573  1
  V  V81  1  -0.00123242  0.87496861  0.87395166  1
  V  V82  1  0.49960980  0.24745508  0.76493597  1
  V  V83  1  0.00325695  0.11841460  0.12555727  1
  V  V84  1  0.62546932  -0.00126904  0.12748453  1
  Zn  Zn85  1  0.24888652  0.74959529  0.50075241  1
  Zn  Zn86  1  0.02562144  0.11993365  0.62667225  1
  Zn  Zn87  1  0.12469485  0.62673069  -0.00145563  1
  Zn  Zn88  1  0.74552803  0.00502488  0.73858666  1
  Zn  Zn89  1  0.75135212  0.50098944  0.24485404  1
  Zn  Zn90  1  -0.01085994  0.62326309  0.62890330  1
  Zn  Zn91  1  0.24663702  0.01069415  0.73995468  1
  Zn  Zn92  1  0.49688638  0.24903057  0.24853606  1
  Zn  Zn93  1  0.25130022  0.75500773  -0.00214730  1
  Zn  Zn94  1  0.24424534  0.88695155  0.61648907  1
  Zn  Zn95  1  0.00426172  -0.00272744  0.00421947  1
  Zn  Zn96  1  0.39033372  0.37262060  0.00111455  1
  Zn  Zn97  1  0.37597968  0.12335512  0.74527291  1
  Zn  Zn98  1  0.75349361  0.38172261  0.11479786  1
  Zn  Zn99  1  0.49312169  -0.00380107  0.00513163  1
  Zn  Zn100  1  0.49788674  0.75434108  0.25123052  1
  Zn  Zn101  1  0.87745297  0.12213293  0.25011804  1
  Zn  Zn102  1  0.25125650  0.12909100  0.87446175  1
  Zn  Zn103  1  0.20568449  0.20391665  0.53977266  1
  Zn  Zn104  1  0.37945918  0.24959108  0.62674204  1
  Zn  Zn105  1  0.74493909  0.37355756  0.62729794  1
  Zn  Zn106  1  0.62366957  0.49404448  0.62783539  1
  Zn  Zn107  1  0.18671938  0.18954422  0.18507631  1
  Zn  Zn108  1  0.18953544  0.19711097  0.70109656  1
  Zn  Zn109  1  0.19023580  0.69021058  0.18483227  1
  Zn  Zn110  1  0.18776001  0.69236442  0.69136586  1
  Zn  Zn111  1  0.68998093  0.18689526  0.18845377  1
  Zn  Zn112  1  0.68042033  0.18597908  0.68946965  1
  Zn  Zn113  1  0.68786994  0.68491999  0.18641087  1
  Zn  Zn114  1  0.81410865  0.68791434  0.68814501  1
  Zn  Zn115  1  0.31369350  0.31014320  0.31013269  1
  Zn  Zn116  1  0.31346919  0.31563582  0.81105818  1
  Zn  Zn117  1  0.30749399  0.80981985  0.30796640  1
  Zn  Zn118  1  0.31207545  0.81556811  0.81038160  1
  Zn  Zn119  1  0.81363959  0.31218148  0.31148352  1
  Zn  Zn120  1  0.80912832  0.31488473  0.81631169  1
  Zn  Zn121  1  0.81309838  0.80860117  0.31924723  1
  Zn  Zn122  1  0.80633593  0.82073614  0.81510045  1
  Zn  Zn123  1  0.18616824  0.43686458  0.44020488  1
  Zn  Zn124  1  0.18778944  0.43895543  0.93768816  1
  Zn  Zn125  1  0.18863977  0.93385149  0.43325437  1
  Zn  Zn126  1  0.18768374  0.93674589  0.93713807  1
  Zn  Zn127  1  0.68953796  0.43638582  0.43608155  1
  Zn  Zn128  1  0.56168259  0.43854354  0.93953550  1
  Zn  Zn129  1  0.70136010  0.93502175  0.43903011  1
  Zn  Zn130  1  0.68678233  0.93976581  0.93603372  1
  Zn  Zn131  1  0.31294130  0.06244522  0.05816198  1
  Zn  Zn132  1  0.32477000  0.05814378  0.56680056  1
  Zn  Zn133  1  0.31589298  0.56638534  0.05988301  1
  Zn  Zn134  1  0.31219735  0.55910033  0.56312793  1
  Zn  Zn135  1  0.81598882  0.06417198  0.06400795  1
  Zn  Zn136  1  0.81170540  0.05619782  0.56265429  1
  Zn  Zn137  1  0.80792912  0.56155359  0.06144095  1
  Zn  Zn138  1  0.81300848  0.55794745  0.56159989  1
  Zn  Zn139  1  0.44097095  0.43640384  0.18912056  1
  Zn  Zn140  1  0.43589585  0.43453611  0.69112985  1
  Zn  Zn141  1  0.43854527  0.93800076  0.19351805  1
  Zn  Zn142  1  0.43617698  0.94418564  0.68625725  1
  Zn  Zn143  1  0.93692839  0.43946110  0.18709144  1
  Zn  Zn144  1  0.93041147  0.43573031  0.69069922  1
  Zn  Zn145  1  0.93972139  0.93529025  0.18870683  1
  Zn  Zn146  1  0.93690149  0.93650907  0.68344061  1
  Zn  Zn147  1  0.06290677  0.06301274  0.31622449  1
  Zn  Zn148  1  0.06057717  0.06671933  0.81758249  1
  Zn  Zn149  1  0.06153039  0.56399219  0.31445825  1
  Zn  Zn150  1  0.06031419  0.56405655  0.81298552  1
  Zn  Zn151  1  0.56428828  0.06377997  0.31890896  1
  Zn  Zn152  1  0.55754771  0.06412711  0.81486578  1
  Zn  Zn153  1  0.56371496  0.55832770  0.31169631  1
  Zn  Zn154  1  0.56893841  0.56835148  0.80780955  1
  Zn  Zn155  1  0.43516586  0.18153458  0.43342427  1
  Zn  Zn156  1  0.43922150  0.18245014  0.93898608  1
  Zn  Zn157  1  0.43749606  0.68804211  0.43728146  1
  Zn  Zn158  1  0.43479667  0.68897199  0.93514990  1
  Zn  Zn159  1  0.93959324  0.18323392  0.43929709  1
  Zn  Zn160  1  0.93603116  0.18687242  0.93927558  1
  Zn  Zn161  1  0.94159201  0.68335769  0.43821662  1
  Zn  Zn162  1  0.93644346  0.68767815  0.93537569  1
  Zn  Zn163  1  0.06560358  0.31316070  0.06259801  1
  Zn  Zn164  1  0.06513050  0.29726354  0.57003195  1
  Zn  Zn165  1  0.06577543  0.81243766  0.06273482  1
  Zn  Zn166  1  0.05912823  0.81127727  0.56126949  1
  Zn  Zn167  1  0.56706112  0.30673501  0.06419922  1
  Zn  Zn168  1  0.56247457  0.30810103  0.57114701  1
  Zn  Zn169  1  0.56221180  0.80905540  0.06374236  1
  Zn  Zn170  1  0.56510902  0.81106397  0.56160843  1
  O  O171  1  0.11533304  0.13212463  0.11553098  1
  O  O172  1  0.12016910  0.18095335  0.61299650  1
  O  O173  1  0.11772592  0.61921700  0.12290405  1
  O  O174  1  0.12467159  0.63221390  0.61354481  1
  O  O175  1  0.62056629  0.11501533  0.12402364  1
  O  O176  1  0.61143488  0.12835779  0.62336837  1
  O  O177  1  0.62879972  0.61297847  0.11780111  1
  O  O178  1  0.61626075  0.61791000  0.61073796  1
  O  O179  1  0.37892906  0.38140506  0.37896439  1
  O  O180  1  0.37320430  0.39208411  0.87670611  1
  O  O181  1  0.36882888  0.88103415  0.37528449  1
  O  O182  1  0.38238521  0.88425085  0.87118756  1
  O  O183  1  0.88282866  0.37828974  0.37945038  1
  O  O184  1  0.88375279  0.38271905  0.87819084  1
  O  O185  1  0.86602602  0.88240810  0.39040264  1
  O  O186  1  0.87793752  0.88338843  0.88404154  1
  O  O187  1  0.25499867  0.00789692  0.37321225  1
  O  O188  1  0.25912868  -0.00032313  0.87181782  1
  O  O189  1  0.25278425  0.50911444  0.36985112  1
  O  O190  1  0.25677905  0.50676398  0.86857767  1
  O  O191  1  0.76319086  0.00796658  0.37180825  1
  O  O192  1  0.76166263  0.00843206  0.87362656  1
  O  O193  1  0.75785145  0.50806552  0.37092489  1
  O  O194  1  0.75660541  0.51090588  0.87046297  1
  O  O195  1  0.24524897  0.49664501  0.12689118  1
  O  O196  1  0.25560480  0.48976484  0.63539128  1
  O  O197  1  0.25370049  0.98601799  0.12249649  1
  O  O198  1  0.25237563  0.99872266  0.62713713  1
  O  O199  1  0.74044589  0.49704030  0.12647148  1
  O  O200  1  0.74759491  0.49609663  0.63602958  1
  O  O201  1  0.74761065  0.99296767  0.13242198  1
  O  O202  1  0.75290253  0.98254068  0.62567465  1
  O  O203  1  0.00546567  0.36946366  0.25473365  1
  O  O204  1  -0.00751698  0.36722646  0.76152133  1
  O  O205  1  0.00979378  0.85860559  0.23881888  1
  O  O206  1  0.00535079  0.86653019  0.75345621  1
  O  O207  1  0.51119017  0.37162164  0.25690758  1
  O  O208  1  0.51141209  0.36454071  0.74681119  1
  O  O209  1  0.51797490  0.88112786  0.27081637  1
  O  O210  1  0.50383561  0.87170402  0.75499453  1
  O  O211  1  0.49074902  0.12299234  0.24453068  1
  O  O212  1  0.50189240  0.13980039  0.75051378  1
  O  O213  1  0.48622511  0.62329205  0.25427775  1
  O  O214  1  0.49714473  0.63529172  0.74318737  1
  O  O215  1  1.00179676  0.13385006  0.24345911  1
  O  O216  1  0.99307267  0.13390488  0.74692653  1
  O  O217  1  0.99474396  0.63205605  0.24198015  1
  O  O218  1  1.00197997  0.64090021  0.75055133  1
  O  O219  1  0.36223476  0.25144919  -0.00661670  1
  O  O220  1  0.37628731  0.26377447  0.49392794  1
  O  O221  1  0.37395934  0.74778573  0.01438075  1
  O  O222  1  0.37524419  0.75798694  0.50555564  1
  O  O223  1  0.86601262  0.24354024  0.01012165  1
  O  O224  1  0.86846968  0.25092329  0.50837973  1
  O  O225  1  0.86524468  0.75997584  -0.00685001  1
  O  O226  1  0.88349548  0.76403797  0.49426953  1
  O  O227  1  0.12559471  0.26326399  0.47717668  1
  O  O228  1  0.13171071  0.24455511  0.99535837  1
  O  O229  1  0.12346157  0.74262421  0.49102561  1
  O  O230  1  0.12353950  0.74818859  0.98427705  1
  O  O231  1  0.63875140  0.25784467  0.49211676  1
  O  O232  1  0.63683113  0.23062735  1.00986474  1
  O  O233  1  0.62155289  0.73604513  0.49172106  1
  O  O234  1  0.63392771  0.74655910  0.99537537  1
  O  O235  1  0.50719497  0.23151369  0.12994175  1
  O  O236  1  0.49869146  0.23987961  0.63512288  1
  O  O237  1  0.48250119  0.76390771  0.13290232  1
  O  O238  1  0.49129367  0.74697713  0.62993736  1
  O  O239  1  0.99536035  0.24601715  0.13129736  1
  O  O240  1  0.98155014  0.25348464  0.63609865  1
  O  O241  1  1.00427679  0.73643277  0.12879321  1
  O  O242  1  1.00054582  0.74903936  0.64165547  1
  O  O243  1  0.00490342  0.25355403  0.36694481  1
  O  O244  1  -0.00026652  0.25940694  0.87248548  1
  O  O245  1  0.01010480  0.74200724  0.36306791  1
  O  O246  1  0.00499012  0.75467737  0.86612722  1
  O  O247  1  0.50981745  0.25385928  0.37385560  1
  O  O248  1  0.50109034  0.24685690  0.86466201  1
  O  O249  1  0.51488076  0.74031856  0.36946109  1
  O  O250  1  0.50025168  0.75866913  0.86650166  1
  O  O251  1  0.26302542  0.12467487  0.48478918  1
  O  O252  1  0.24304405  0.13498564  0.99851735  1
  O  O253  1  0.24338171  0.62434992  0.49261262  1
  O  O254  1  0.24830158  0.62816329  0.98584793  1
  O  O255  1  0.75613517  0.13104574  0.48822656  1
  O  O256  1  0.74542075  0.12650680  0.99364105  1
  O  O257  1  0.73934973  0.61444008  0.49069349  1
  O  O258  1  0.74328961  0.63410036  0.99339255  1
  O  O259  1  0.25201408  0.37031459  0.00783497  1
  O  O260  1  0.26026907  0.38633930  0.51218612  1
  O  O261  1  0.24198131  0.87233051  0.01605554  1
  O  O262  1  0.25847692  0.86811996  0.49916323  1
  O  O263  1  0.74346325  0.35539631  -0.00237528  1
  O  O264  1  0.75853475  0.36484381  0.49879466  1
  O  O265  1  0.75601493  0.86822278  0.00343372  1
  O  O266  1  0.75957646  0.87192440  0.51045717  1
  O  O267  1  0.13000679  0.49817922  0.24339302  1
  O  O268  1  0.13845399  0.50279204  0.75597936  1
  O  O269  1  0.11389175  0.97913146  0.25573444  1
  O  O270  1  0.12004929  0.98592044  0.75721527  1
  O  O271  1  0.62745664  0.49357108  0.24075951  1
  O  O272  1  0.63437940  0.49289902  0.75019796  1
  O  O273  1  0.63482089  0.99134092  0.24808308  1
  O  O274  1  0.62374137  0.98883239  0.75670800  1
  O  O275  1  0.37015865  0.01135456  0.25292283  1
  O  O276  1  0.37236170  0.00125143  0.76369118  1
  O  O277  1  0.36942099  0.50623022  0.25413573  1
  O  O278  1  0.37060895  0.50672919  0.76054689  1
  O  O279  1  0.87182734  -0.00391955  0.26001272  1
  O  O280  1  0.87555269  0.00772381  0.75680967  1
  O  O281  1  0.87784314  0.51161862  0.25727878  1
  O  O282  1  0.85982776  0.49213144  0.76319312  1
  O  O283  1  0.12181931  0.37190662  0.36473843  1
  O  O284  1  0.11025575  0.36666756  0.88500059  1
  O  O285  1  0.13317418  0.85869180  0.36104022  1
  O  O286  1  0.11751417  0.86892765  0.86815407  1
  O  O287  1  0.62243318  0.36612582  0.36853237  1
  O  O288  1  0.62381163  0.38161723  0.86085823  1
  O  O289  1  0.63367770  0.85683720  0.36928281  1
  O  O290  1  0.61940848  0.87075421  0.86700019  1
  O  O291  1  0.38153883  0.11858909  0.13474512  1
  O  O292  1  0.38856579  0.13173317  0.62652018  1
  O  O293  1  0.36976113  0.63909815  0.13271922  1
  O  O294  1  0.37994104  0.63257613  0.62864025  1
  O  O295  1  0.88420249  0.13580751  0.12910151  1
  O  O296  1  0.87081139  0.12970575  0.63753246  1
  O  O297  1  0.88282123  0.61993206  0.13428198  1
  O  O298  1  0.87592523  0.62373215  0.62339451  1
  O  O299  1  0.24402828  0.26353677  0.11566496  1
  O  O300  1  0.25936100  0.26575714  0.62597619  1
  O  O301  1  0.26052070  0.75707695  0.12201401  1
  O  O302  1  0.26392969  0.75354079  0.62574916  1
  O  O303  1  0.75987165  0.24926662  0.11872121  1
  O  O304  1  0.75617038  0.24662686  0.61798648  1
  O  O305  1  0.74658449  0.75558408  0.11326695  1
  O  O306  1  0.75348998  0.77029633  0.63632838  1
  O  O307  1  0.24138253  0.24094092  0.36659864  1
  O  O308  1  0.23969782  0.25688432  0.88265996  1
  O  O309  1  0.24359938  0.73609557  0.37476699  1
  O  O310  1  0.24319594  0.74360403  0.87351493  1
  O  O311  1  0.74793139  0.24299099  0.38146059  1
  O  O312  1  0.75820856  0.23486046  0.88331126  1
  O  O313  1  0.74006301  0.73263612  0.37063999  1
  O  O314  1  0.74441167  0.74585671  0.88156644  1
  O  O315  1  0.00726117  0.12616276  0.00884711  1
  O  O316  1  -0.00345136  0.10913596  0.50544562  1
  O  O317  1  -0.00094485  0.61650625  0.00612639  1
  O  O318  1  0.00822150  0.61396052  0.50305993  1
  O  O319  1  0.50891782  0.12037580  0.00911006  1
  O  O320  1  0.50075205  0.12759927  0.50707434  1
  O  O321  1  0.51529862  0.63602040  -0.00364593  1
  O  O322  1  0.50417174  0.61519926  0.50255116  1
  O  O323  1  0.49468788  0.38038088  0.49617918  1
  O  O324  1  0.50212281  0.37233111  1.00495231  1
  O  O325  1  0.49542944  0.86813960  0.48317448  1
  O  O326  1  0.50802295  0.87550243  0.98544557  1
  O  O327  1  0.99670084  0.37789669  0.49777156  1
  O  O328  1  1.00099334  0.38879417  0.99747408  1
  O  O329  1  0.98733775  0.88371640  0.50729018  1
  O  O330  1  0.99304264  0.87536109  0.99556291  1
  O  O331  1  0.49544609  0.49227679  0.38167800  1
  O  O332  1  0.49062166  0.50693340  0.87127402  1
  O  O333  1  0.47523077  1.00164715  0.36417776  1
  O  O334  1  0.48963312  0.99250934  0.87764487  1
  O  O335  1  0.99532639  0.49340634  0.38202772  1
  O  O336  1  0.99217435  0.49623912  0.88054043  1
  O  O337  1  0.98853327  1.00443531  0.38294575  1
  O  O338  1  0.98808940  0.99544990  0.87785145  1
  O  O339  1  -0.00521159  0.01450892  0.12451815  1
  O  O340  1  0.00167070  0.00458223  0.61484415  1
  O  O341  1  0.00367139  0.50804784  0.11807772  1
  O  O342  1  -0.00421567  0.49739965  0.61679300  1
  O  O343  1  0.50712639  0.00416238  0.12556410  1
  O  O344  1  0.49791498  0.01889491  0.62811474  1
  O  O345  1  0.51484271  0.50065265  0.12985317  1
  O  O346  1  0.49815401  0.50546247  0.61750813  1
  O  O347  1  0.24664719  0.38171309  0.24223743  1
  O  O348  1  0.25409260  0.38364474  0.73651613  1
  O  O349  1  0.23610934  0.87097720  0.23891899  1
  O  O350  1  0.23221812  0.87444462  0.74965615  1
  O  O351  1  0.73909416  0.37650309  0.25094961  1
  O  O352  1  0.73823884  0.38012133  0.75230147  1
  O  O353  1  0.74374990  0.87551937  0.24687156  1
  O  O354  1  0.73918279  0.88082878  0.74367048  1
  O  O355  1  0.26008167  0.12805893  0.25112722  1
  O  O356  1  0.25473606  0.12787298  0.75807145  1
  O  O357  1  0.25631472  0.61988593  0.25664726  1
  O  O358  1  0.25519406  0.62029181  0.75779401  1
  O  O359  1  0.75439729  0.11925814  0.26128715  1
  O  O360  1  0.75518228  0.12432084  0.75818202  1
  O  O361  1  0.75962580  0.62364880  0.25569491  1
  O  O362  1  0.74825938  0.61805036  0.76000811  1
  O  O363  1  0.36574262  0.11847090  0.36163256  1
  O  O364  1  0.37429955  0.11156100  0.87362991  1
  O  O365  1  0.36663159  0.61999664  0.36932333  1
  O  O366  1  0.36846254  0.61993788  0.86858463  1
  O  O367  1  0.86995856  0.11749614  0.37194297  1
  O  O368  1  0.87167254  0.11862873  0.86588773  1
  O  O369  1  0.86916491  0.61983769  0.37047527  1
  O  O370  1  0.86263493  0.61829570  0.87935111  1
  O  O371  1  0.13183356  0.38439246  0.12968868  1
  O  O372  1  0.14106421  0.37301896  0.61760589  1
  O  O373  1  0.13571802  0.86952111  0.13603597  1
  O  O374  1  0.12441918  0.86790527  0.63958952  1
  O  O375  1  0.62858059  0.38420555  0.13254068  1
  O  O376  1  0.62775298  0.37659083  0.63680748  1
  O  O377  1  0.63000904  0.87824395  0.13378388  1
  O  O378  1  0.63359035  0.87296295  0.62976933  1
  O  O379  1  0.11482883  0.25706201  0.25392345  1
  O  O380  1  0.10827315  0.25302105  0.76489217  1
  O  O381  1  0.11793796  0.75161656  0.25513338  1
  O  O382  1  0.11635532  0.75841938  0.75892036  1
  O  O383  1  0.62581233  0.25775810  0.25732093  1
  O  O384  1  0.61777735  0.26167047  0.75306177  1
  O  O385  1  0.62262554  0.75461810  0.25381811  1
  O  O386  1  0.60947461  0.76224254  0.75617265  1
  O  O387  1  0.37827345  0.23307716  0.25197710  1
  O  O388  1  0.38994549  0.25288155  0.75221492  1
  O  O389  1  0.37592063  0.74165064  0.24358368  1
  O  O390  1  0.38390443  0.74748336  0.74259023  1
  O  O391  1  0.88757781  0.24909657  0.24592609  1
  O  O392  1  0.87847239  0.24364123  0.74652156  1
  O  O393  1  0.88342973  0.73859212  0.25655992  1
  O  O394  1  0.88548157  0.75530089  0.75838213  1
  O  O395  1  0.38590158  0.49589918  0.49324838  1
  O  O396  1  0.37363424  0.50262242  0.98305366  1
  O  O397  1  0.37434890  0.98497835  0.48670665  1
  O  O398  1  0.37584830  1.00000265  0.98466317  1
  O  O399  1  0.88372774  0.49062130  0.49271102  1
  O  O400  1  0.88072169  0.50348815  0.98959912  1
  O  O401  1  0.88318428  0.99083913  0.49465859  1
  O  O402  1  0.87669741  0.99292966  0.99261960  1
  O  O403  1  0.12299728  0.01666270  -0.00863221  1
  O  O404  1  0.10594406  -0.01074550  0.49013220  1
  O  O405  1  0.11587879  0.50444888  0.00449264  1
  O  O406  1  0.11470944  0.50940930  0.49462667  1
  O  O407  1  0.62680855  0.00751787  0.01017327  1
  O  O408  1  0.60201338  -0.01232628  0.43043651  1
  O  O409  1  0.62305446  0.50921019  0.01154979  1
  O  O410  1  0.61314808  0.50220208  0.49821699  1
  O  O411  1  0.36438004  0.38135334  0.12356885  1
  O  O412  1  0.37183149  0.37455901  0.61472867  1
  O  O413  1  0.36117951  0.86586152  0.13637001  1
  O  O414  1  0.37963093  0.86933094  0.61265377  1
  O  O415  1  0.87332939  0.36196997  0.13053896  1
  O  O416  1  0.86724776  0.36473575  0.62029244  1
  O  O417  1  0.87096923  0.87848221  0.11269742  1
  O  O418  1  0.86715113  0.87555126  0.61265808  1
  O  O419  1  0.13648972  0.13397064  0.36706231  1
  O  O420  1  0.12220133  0.14103548  0.88414436  1
  O  O421  1  0.13169709  0.63152545  0.38062808  1
  O  O422  1  0.13305749  0.63317452  0.87357652  1
  O  O423  1  0.63606651  0.14001722  0.36923967  1
  O  O424  1  0.63552170  0.11571644  0.88597300  1
  O  O425  1  0.63237422  0.62364805  0.38149087  1
  O  O426  1  0.63384006  0.63328312  0.88137171  1
