# generated using pymatgen
data_V85Zn86O256
_symmetry_space_group_name_H-M   'P 1'
_cell_length_a   16.94218966
_cell_length_b   16.92579130
_cell_length_c   16.93575740
_cell_angle_alpha   90.00187728
_cell_angle_beta   90.03989977
_cell_angle_gamma   89.96133849
_symmetry_Int_Tables_number   1
_chemical_formula_structural   V85Zn86O256
_chemical_formula_sum   'V85 Zn86 O256'
_cell_volume   4856.49493667
_cell_formula_units_Z   1
loop_
 _symmetry_equiv_pos_site_id
 _symmetry_equiv_pos_as_xyz
  1  'x, y, z'
loop_
 _atom_site_type_symbol
 _atom_site_label
 _atom_site_symmetry_multiplicity
 _atom_site_fract_x
 _atom_site_fract_y
 _atom_site_fract_z
 _atom_site_occupancy
  V  V0  1  0.00962449  0.76036591  0.76402042  1
  V  V1  1  0.62485019  0.37460146  0.24883446  1
  V  V2  1  0.24786682  0.38967271  0.62931585  1
  V  V3  1  0.50016993  0.63568701  0.12718900  1
  V  V4  1  0.75123836  0.12654615  0.87403048  1
  V  V5  1  0.13840487  0.50448606  0.12683213  1
  V  V6  1  0.49892251  0.75050136  0.75380828  1
  V  V7  1  0.24838338  0.62951406  0.37700596  1
  V  V8  1  0.75573436  0.62813583  0.37321381  1
  V  V9  1  0.00620620  0.11914862  0.12357856  1
  V  V10  1  0.75193529  0.50293495  0.24956769  1
  V  V11  1  0.00678451  0.50146366  0.50147693  1
  V  V12  1  0.62721303  0.62492633  0.49890671  1
  V  V13  1  0.37968878  0.00246286  0.87464972  1
  V  V14  1  -0.00107367  0.37157204  0.87618507  1
  V  V15  1  0.87809213  0.37299334  0.50281390  1
  V  V16  1  0.74863418  0.12318611  0.37523222  1
  V  V17  1  0.37425362  0.24875368  0.64345416  1
  V  V18  1  0.24914216  0.25925445  0.00163709  1
  V  V19  1  0.73676546  0.62533099  0.87295293  1
  V  V20  1  0.37435541  0.89300858  0.49638663  1
  V  V21  1  0.87414103  0.24908108  0.12648955  1
  V  V22  1  0.25490987  0.12890030  0.86558414  1
  V  V23  1  0.49837395  0.24956090  0.24785566  1
  V  V24  1  0.60964010  0.12086558  0.49773121  1
  V  V25  1  0.62001096  0.36571592  0.74735784  1
  V  V26  1  0.87376495  0.49810390  0.87651644  1
  V  V27  1  0.75196516  0.75277450  0.50196742  1
  V  V28  1  0.76305403  0.86770645  0.12238963  1
  V  V29  1  0.75395052  0.24677474  0.50412769  1
  V  V30  1  -0.00561697  0.24892068  0.74827989  1
  V  V31  1  0.62438827  0.24906783  0.37488898  1
  V  V32  1  0.62460830  0.49805872  0.62308180  1
  V  V33  1  0.75424217  0.75865860  -0.01192946  1
  V  V34  1  0.36959411  0.50663541  0.86809064  1
  V  V35  1  0.12867104  0.63175092  0.50350100  1
  V  V36  1  0.25402473  0.11729344  0.37737601  1
  V  V37  1  0.37554437  0.11592457  0.25203636  1
  V  V38  1  0.87613179  0.62590351  0.75540878  1
  V  V39  1  0.00005442  0.00011255  0.50105554  1
  V  V40  1  0.87926836  0.62949585  0.23474128  1
  V  V41  1  -0.00352429  0.50380617  0.01557916  1
  V  V42  1  0.61748660  -0.00483353  0.62123837  1
  V  V43  1  0.61761646  0.12014716  -0.00125691  1
  V  V44  1  0.50422705  0.87517635  0.87998579  1
  V  V45  1  0.87611911  -0.00165520  0.37414853  1
  V  V46  1  0.13905262  0.37738872  0.24423476  1
  V  V47  1  0.25495965  0.87450233  0.12936755  1
  V  V48  1  0.12775884  -0.00317510  0.62734457  1
  V  V49  1  0.36662088  0.63004868  0.24490912  1
  V  V50  1  -0.00040040  0.12933057  0.62457707  1
  V  V51  1  0.25056868  0.74481687  -0.00168360  1
  V  V52  1  0.75001084  -0.00410427  0.74274945  1
  V  V53  1  0.37450880  0.37935919  0.00492395  1
  V  V54  1  0.36842546  0.49953638  0.36985188  1
  V  V55  1  0.49896490  0.88964411  0.37851968  1
  V  V56  1  0.12513961  0.88325829  0.25030322  1
  V  V57  1  0.12769088  0.25267463  0.37784038  1
  V  V58  1  0.49332027  0.12538938  0.64524576  1
  V  V59  1  0.37360885  0.75129445  0.61408949  1
  V  V60  1  0.62178230  0.75201753  0.37223221  1
  V  V61  1  0.24632124  0.86964151  0.61899564  1
  V  V62  1  0.13017593  0.11836643  0.00610609  1
  V  V63  1  0.74932200  -0.00160185  0.24455617  1
  V  V64  1  0.00457118  0.62120295  0.62932341  1
  V  V65  1  0.12242471  0.24884002  0.87472085  1
  V  V66  1  0.49992792  0.62557040  0.62427340  1
  V  V67  1  0.37112307  0.25170378  0.12585785  1
  V  V68  1  0.87340097  0.12553069  0.74124816  1
  V  V69  1  0.25407924  0.25043866  0.50571246  1
  V  V70  1  0.00278745  0.74513200  0.23841322  1
  V  V71  1  0.87090966  0.87568904  0.50459500  1
  V  V72  1  0.22757284  -0.03356912  0.77838944  1
  V  V73  1  0.74997187  0.49772160  0.74852356  1
  V  V74  1  0.87278144  0.75195437  0.62735922  1
  V  V75  1  0.75199806  0.37154176  0.62379260  1
  V  V76  1  0.62177584  0.50259365  0.12257515  1
  V  V77  1  0.49904955  0.37753744  0.37649633  1
  V  V78  1  0.38341166  0.87264348  0.00718221  1
  V  V79  1  0.49770376  0.37122255  0.87180329  1
  V  V80  1  0.87348817  0.36792571  0.00009975  1
  V  V81  1  0.00052321  0.25347094  0.25125425  1
  V  V82  1  0.74797051  0.37499145  0.12560088  1
  V  V83  1  0.12504532  0.38891617  0.74767838  1
  V  V84  1  0.62451244  0.87150354  0.74797299  1
  Zn  Zn85  1  0.24623220  0.00355412  0.24409509  1
  Zn  Zn86  1  0.87639854  0.12521098  0.25051600  1
  Zn  Zn87  1  0.62094200  -0.00846585  0.11200846  1
  Zn  Zn88  1  0.62057173  0.87517273  0.24418003  1
  Zn  Zn89  1  0.61920262  0.24748246  0.87186128  1
  Zn  Zn90  1  0.49919340  0.50435787  -0.00097136  1
  Zn  Zn91  1  0.00263524  0.87076073  0.37501224  1
  Zn  Zn92  1  0.49483651  0.11797804  0.11726766  1
  Zn  Zn93  1  0.23207052  0.63228640  0.86358804  1
  Zn  Zn94  1  0.62136068  0.63023770  -0.00409682  1
  Zn  Zn95  1  0.49320872  0.75396030  0.25129257  1
  Zn  Zn96  1  0.12516212  0.75075730  0.37538349  1
  Zn  Zn97  1  0.49974857  0.50054981  0.49773130  1
  Zn  Zn98  1  0.37490789  0.37721861  0.50327869  1
  Zn  Zn99  1  0.87722336  -0.02105395  0.87879850  1
  Zn  Zn100  1  0.00142543  0.37827143  0.37623641  1
  Zn  Zn101  1  0.87847014  0.50149950  0.37550575  1
  Zn  Zn102  1  0.74477957  0.24947672  -0.00168764  1
  Zn  Zn103  1  0.12654612  0.12498289  0.50105975  1
  Zn  Zn104  1  0.36550119  0.62203951  0.74267809  1
  Zn  Zn105  1  -0.00644266  -0.02210928  0.00088808  1
  Zn  Zn106  1  0.10646643  0.63899717  0.00133722  1
  Zn  Zn107  1  0.19108653  0.19161967  0.18834313  1
  Zn  Zn108  1  0.18316595  0.18784566  0.69018635  1
  Zn  Zn109  1  0.18950193  0.69194081  0.18369510  1
  Zn  Zn110  1  0.18717733  0.68876912  0.68618005  1
  Zn  Zn111  1  0.68706157  0.18396951  0.18518328  1
  Zn  Zn112  1  0.68383986  0.18377133  0.68301528  1
  Zn  Zn113  1  0.68904081  0.69235665  0.18460424  1
  Zn  Zn114  1  0.68726847  0.68885681  0.68683758  1
  Zn  Zn115  1  0.31358652  0.30890939  0.31489377  1
  Zn  Zn116  1  0.30829525  0.32178888  0.81520638  1
  Zn  Zn117  1  0.31198706  0.81263504  0.31731596  1
  Zn  Zn118  1  0.31736209  0.80621302  0.81439648  1
  Zn  Zn119  1  0.81339741  0.31405548  0.31649251  1
  Zn  Zn120  1  0.81189145  0.30776489  0.81081168  1
  Zn  Zn121  1  0.81758860  0.81189400  0.30961091  1
  Zn  Zn122  1  0.80579859  0.80977456  0.80599930  1
  Zn  Zn123  1  0.18839381  0.44020867  0.43931263  1
  Zn  Zn124  1  0.18035875  0.45212364  0.93321135  1
  Zn  Zn125  1  0.18653801  0.93582569  0.43910079  1
  Zn  Zn126  1  0.19193695  0.93819443  0.95218202  1
  Zn  Zn127  1  0.68900319  0.43851983  0.43651586  1
  Zn  Zn128  1  0.68457926  0.43710819  0.93691232  1
  Zn  Zn129  1  0.68712080  0.93796934  0.43769856  1
  Zn  Zn130  1  0.69203133  0.93794832  0.93118216  1
  Zn  Zn131  1  0.31431654  0.05995049  0.05961121  1
  Zn  Zn132  1  0.31052365  0.06321868  0.57116284  1
  Zn  Zn133  1  0.31520087  0.56045270  0.06436368  1
  Zn  Zn134  1  0.31519696  0.56328768  0.55589848  1
  Zn  Zn135  1  0.81219082  0.06280256  0.06034240  1
  Zn  Zn136  1  0.80828114  0.06186012  0.56330317  1
  Zn  Zn137  1  0.81004425  0.56473184  0.05670731  1
  Zn  Zn138  1  0.81694650  0.56136516  0.56304891  1
  Zn  Zn139  1  0.43543880  0.44189898  0.18812818  1
  Zn  Zn140  1  0.43625230  0.43634502  0.68686662  1
  Zn  Zn141  1  0.44055434  0.93858811  0.18696963  1
  Zn  Zn142  1  0.42992459  0.94066747  0.69291571  1
  Zn  Zn143  1  0.93642754  0.43619949  0.19247320  1
  Zn  Zn144  1  0.93816735  0.43692673  0.68538211  1
  Zn  Zn145  1  0.93936980  0.93556910  0.18745129  1
  Zn  Zn146  1  0.93573202  0.93783283  0.68596945  1
  Zn  Zn147  1  0.06354374  0.06551163  0.31374681  1
  Zn  Zn148  1  0.05616436  -0.05716159  0.82201740  1
  Zn  Zn149  1  0.06395254  0.56233326  0.31182900  1
  Zn  Zn150  1  0.05767424  0.56719738  0.82349520  1
  Zn  Zn151  1  0.56262271  0.06180797  0.30375005  1
  Zn  Zn152  1  0.56507637  0.05757875  0.81552370  1
  Zn  Zn153  1  0.56102562  0.56448559  0.30915868  1
  Zn  Zn154  1  0.55602313  0.55453049  0.80736898  1
  Zn  Zn155  1  0.43356645  0.19028696  0.43813636  1
  Zn  Zn156  1  0.43631118  0.19017024  0.93415436  1
  Zn  Zn157  1  0.43712601  0.68846692  0.43601731  1
  Zn  Zn158  1  0.43679690  0.69055958  0.94022228  1
  Zn  Zn159  1  0.93739551  0.18716946  0.43794797  1
  Zn  Zn160  1  0.95390920  0.11877635  0.92228373  1
  Zn  Zn161  1  0.94262168  0.68977588  0.43417963  1
  Zn  Zn162  1  0.93355129  0.80436299  0.94317251  1
  Zn  Zn163  1  0.06203201  0.31256844  0.06425135  1
  Zn  Zn164  1  0.06654325  0.31386614  0.56496740  1
  Zn  Zn165  1  0.07212958  0.81505529  0.06856804  1
  Zn  Zn166  1  0.05750862  0.81002813  0.56569756  1
  Zn  Zn167  1  0.55910694  0.30828203  0.05823876  1
  Zn  Zn168  1  0.55980152  0.30621572  0.56317355  1
  Zn  Zn169  1  0.57350371  0.81124005  0.06045933  1
  Zn  Zn170  1  0.55808417  0.81299943  0.55846250  1
  O  O171  1  0.11908070  0.13500203  0.11924621  1
  O  O172  1  0.11742269  0.11706626  0.62298946  1
  O  O173  1  0.12985504  0.60867212  0.12109021  1
  O  O174  1  0.11449695  0.62827024  0.61802338  1
  O  O175  1  0.62699133  0.12491062  0.10730068  1
  O  O176  1  0.60993241  0.11894036  0.61837304  1
  O  O177  1  0.61828589  0.61717947  0.12914755  1
  O  O178  1  0.61917314  0.62001473  0.61981608  1
  O  O179  1  0.38216573  0.38145709  0.37424973  1
  O  O180  1  0.38060201  0.38400609  0.88201428  1
  O  O181  1  0.38433313  0.87363841  0.38721529  1
  O  O182  1  0.38672528  0.87922929  0.88228221  1
  O  O183  1  0.87711588  0.37801679  0.38890744  1
  O  O184  1  0.87567548  0.37681345  0.88362249  1
  O  O185  1  0.87686850  0.88597377  0.38098836  1
  O  O186  1  0.86501481  0.86839132  0.87826667  1
  O  O187  1  0.24424103  0.01531471  0.37476743  1
  O  O188  1  0.25858712  0.01258165  0.88046769  1
  O  O189  1  0.25858483  0.50968982  0.37799875  1
  O  O190  1  0.26838451  0.49866111  0.87731307  1
  O  O191  1  0.75815249  0.00303666  0.36922966  1
  O  O192  1  0.75102136  0.01116538  0.85988774  1
  O  O193  1  0.75003933  0.51104113  0.36794033  1
  O  O194  1  0.75463941  0.50361369  0.86901210  1
  O  O195  1  0.23667025  0.49436143  0.11929080  1
  O  O196  1  0.25830491  0.48809428  0.62223659  1
  O  O197  1  0.25579704  0.98310648  0.12521911  1
  O  O198  1  0.24227632  0.98966737  0.63060340  1
  O  O199  1  0.74236153  0.49515189  0.13000754  1
  O  O200  1  0.74495785  0.49356421  0.62831347  1
  O  O201  1  0.74885070  0.99422080  0.13042022  1
  O  O202  1  0.73530695  1.00728328  0.63548935  1
  O  O203  1  0.00596144  0.36433562  0.25466263  1
  O  O204  1  0.00207529  0.36669134  0.75376385  1
  O  O205  1  0.00824140  0.86624871  0.24873686  1
  O  O206  1  -0.00160293  0.86673194  0.75168805  1
  O  O207  1  0.50389128  0.37017316  0.25873136  1
  O  O208  1  0.50969933  0.38026274  0.75625587  1
  O  O209  1  0.49892798  0.87165251  0.26558216  1
  O  O210  1  0.50363322  0.86869602  0.75493042  1
  O  O211  1  0.49117483  0.13585069  0.25396492  1
  O  O212  1  0.50460434  0.12833706  0.74308934  1
  O  O213  1  0.48938767  0.62858938  0.24530261  1
  O  O214  1  0.50000787  0.63200292  0.73774056  1
  O  O215  1  1.00187085  0.13748826  0.24332317  1
  O  O216  1  0.98925831  0.13298435  0.74001930  1
  O  O217  1  0.99363919  0.63545506  0.25348554  1
  O  O218  1  0.99261036  0.62921359  0.74701350  1
  O  O219  1  0.36995150  0.25756472  0.00652688  1
  O  O220  1  0.36339809  0.25400921  0.50702658  1
  O  O221  1  0.36950167  0.76524550  -0.00112176  1
  O  O222  1  0.38137444  0.75808068  0.51093116  1
  O  O223  1  0.86948471  0.26111007  0.01021498  1
  O  O224  1  0.86509435  0.25729206  0.49529000  1
  O  O225  1  0.85299401  0.74075356  -0.00016244  1
  O  O226  1  0.87387170  0.75656192  0.50651419  1
  O  O227  1  0.13517877  0.24983070  0.49360628  1
  O  O228  1  0.13475640  0.25416811  0.99434007  1
  O  O229  1  0.11570361  0.73543889  0.49760747  1
  O  O230  1  0.14469188  0.74751689  1.00616332  1
  O  O231  1  0.63094802  0.24147846  0.49302668  1
  O  O232  1  0.62682292  0.23953236  0.99453897  1
  O  O233  1  0.63132521  0.74610754  0.49199657  1
  O  O234  1  0.64580437  0.74247756  1.00400569  1
  O  O235  1  0.48873013  0.24562229  0.12972826  1
  O  O236  1  0.48921941  0.23614000  0.62236717  1
  O  O237  1  0.50902926  0.73913178  0.13044791  1
  O  O238  1  0.49544020  0.74387394  0.63036402  1
  O  O239  1  0.99204189  0.24856617  0.13493821  1
  O  O240  1  1.00779190  0.23707489  0.63059365  1
  O  O241  1  1.00656091  0.74744690  0.13887977  1
  O  O242  1  0.98835251  0.73986959  0.63210323  1
  O  O243  1  0.00959050  0.25047034  0.36962590  1
  O  O244  1  0.00763522  0.25237998  0.86595611  1
  O  O245  1  0.00449310  0.75302933  0.36386946  1
  O  O246  1  -0.00183070  0.74406721  0.86160044  1
  O  O247  1  0.50432213  0.25876211  0.36965630  1
  O  O248  1  0.49876911  0.26592595  0.87503230  1
  O  O249  1  0.50940017  0.75585064  0.37537339  1
  O  O250  1  0.49560460  0.75591787  0.86097467  1
  O  O251  1  0.25032376  0.13255980  0.49582519  1
  O  O252  1  0.24621850  0.13834896  0.99668275  1
  O  O253  1  0.23909040  0.62103183  0.49307075  1
  O  O254  1  0.26250322  0.64242802  1.00499625  1
  O  O255  1  0.74223654  0.13142584  0.49487526  1
  O  O256  1  0.74196931  0.12811834  0.98825333  1
  O  O257  1  0.74746265  0.63004203  0.49231383  1
  O  O258  1  0.74625313  0.62751437  0.98624637  1
  O  O259  1  0.25877097  0.36550631  -0.00880019  1
  O  O260  1  0.24898195  0.36803888  0.51099903  1
  O  O261  1  0.25873890  0.86713247  0.01164293  1
  O  O262  1  0.26521667  0.87824857  0.50331009  1
  O  O263  1  0.75564327  0.37432715  0.00705992  1
  O  O264  1  0.75593883  0.36749479  0.50325562  1
  O  O265  1  0.74591834  0.86688935  0.00600508  1
  O  O266  1  0.76276201  0.86965686  0.49569149  1
  O  O267  1  0.11963851  0.48856082  0.23782793  1
  O  O268  1  0.11022788  0.48667476  0.75469454  1
  O  O269  1  0.12487547  0.98824903  0.25412442  1
  O  O270  1  0.12814565  0.99897780  0.73470902  1
  O  O271  1  0.63063543  0.49554557  0.24104492  1
  O  O272  1  0.63135413  0.48967760  0.74129504  1
  O  O273  1  0.64289280  0.99545720  0.25543292  1
  O  O274  1  0.62882138  0.99188480  0.74132135  1
  O  O275  1  0.37167382  0.01378301  0.25039250  1
  O  O276  1  0.35591990  -0.01043590  0.77031951  1
  O  O277  1  0.37893320  0.51125563  0.26182815  1
  O  O278  1  0.38061736  0.50213210  0.76395687  1
  O  O279  1  0.86807727  0.00112917  0.25795068  1
  O  O280  1  0.86450387  0.00720393  0.74641202  1
  O  O281  1  0.86954424  0.50794868  0.25426936  1
  O  O282  1  0.86914410  0.50484224  0.75355449  1
  O  O283  1  0.12535035  0.36735251  0.36740424  1
  O  O284  1  0.12028753  0.36775342  0.86977932  1
  O  O285  1  0.12568382  0.87137869  0.36691629  1
  O  O286  1  0.16196690  0.90655195  0.84722893  1
  O  O287  1  0.61918140  0.37094125  0.36845525  1
  O  O288  1  0.61717970  0.37518968  0.86527723  1
  O  O289  1  0.61355699  0.86918763  0.37802721  1
  O  O290  1  0.61347524  0.88145004  0.86350005  1
  O  O291  1  0.37412973  0.13295923  0.13205050  1
  O  O292  1  0.38610540  0.13008357  0.62783388  1
  O  O293  1  0.38283933  0.61776560  0.13940226  1
  O  O294  1  0.38378980  0.63224591  0.62118735  1
  O  O295  1  0.88099725  0.13899068  0.12784783  1
  O  O296  1  0.88164055  0.12157760  0.63190665  1
  O  O297  1  0.86942944  0.62014341  0.13654307  1
  O  O298  1  0.88031481  0.62924213  0.63632528  1
  O  O299  1  0.26270246  0.25123347  0.11746521  1
  O  O300  1  0.25626015  0.25054007  0.62097454  1
  O  O301  1  0.25500633  0.76357165  0.11832412  1
  O  O302  1  0.25804778  0.76172457  0.62336369  1
  O  O303  1  0.75838097  0.25673475  0.12709348  1
  O  O304  1  0.74386148  0.25299826  0.61076881  1
  O  O305  1  0.75297635  0.76289985  0.11828763  1
  O  O306  1  0.76429522  0.74265713  0.61821575  1
  O  O307  1  0.24423185  0.24608690  0.38544639  1
  O  O308  1  0.24606852  0.24709550  0.88116739  1
  O  O309  1  0.24816893  0.73449238  0.37410478  1
  O  O310  1  0.25539931  0.74947703  0.89224965  1
  O  O311  1  0.74390773  0.24464273  0.38286260  1
  O  O312  1  0.74465495  0.23800805  0.87241325  1
  O  O313  1  0.74562488  0.74574570  0.38036981  1
  O  O314  1  0.74617893  0.73974487  0.87968471  1
  O  O315  1  0.01898283  0.14414017  0.01245334  1
  O  O316  1  0.00059336  0.11946995  0.50771783  1
  O  O317  1  -0.00602339  0.60207403  0.00309219  1
  O  O318  1  0.00247903  0.61859680  0.50899294  1
  O  O319  1  0.51355431  0.12843936  -0.00365935  1
  O  O320  1  0.50819123  0.12861533  0.50108782  1
  O  O321  1  0.50190716  0.62506713  0.01040383  1
  O  O322  1  0.50824516  0.62644908  0.50903744  1
  O  O323  1  0.50032533  0.37351946  0.48707466  1
  O  O324  1  0.49118709  0.37789985  0.99237510  1
  O  O325  1  0.48914934  0.87552256  0.48851327  1
  O  O326  1  0.49766273  0.86710599  0.99141121  1
  O  O327  1  0.99502777  0.38143462  0.50266987  1
  O  O328  1  0.98945359  0.37494232  0.99544825  1
  O  O329  1  0.98814320  0.88144011  0.49954067  1
  O  O330  1  1.01112868  0.86805947  0.99417387  1
  O  O331  1  0.49606618  0.49183182  0.37444222  1
  O  O332  1  0.49190689  0.48971585  0.87827939  1
  O  O333  1  0.50571339  0.98820217  0.37418479  1
  O  O334  1  0.49053775  0.98975509  0.86884068  1
  O  O335  1  0.99865342  0.49885884  0.38530703  1
  O  O336  1  0.98932286  0.48904490  0.88726819  1
  O  O337  1  0.99227185  1.00051450  0.38172055  1
  O  O338  1  0.99340318  1.01277490  0.88046987  1
  O  O339  1  -0.00572143  0.01652158  0.12323990  1
  O  O340  1  0.00598280  0.00848261  0.62111341  1
  O  O341  1  0.00338813  0.49273612  0.11858160  1
  O  O342  1  -0.00607556  0.51383676  0.61927260  1
  O  O343  1  0.51235961  0.00865940  0.14036018  1
  O  O344  1  0.50225558  0.01451376  0.63262710  1
  O  O345  1  0.50815639  0.50953985  0.12603574  1
  O  O346  1  0.50427651  0.50842587  0.62205544  1
  O  O347  1  0.23736556  0.37175266  0.25343615  1
  O  O348  1  0.23806108  0.37425771  0.74125695  1
  O  O349  1  0.24748110  0.87610462  0.24522898  1
  O  O350  1  0.25895385  0.87345291  0.73543483  1
  O  O351  1  0.74494974  0.38099871  0.24601778  1
  O  O352  1  0.74545893  0.37803349  0.74214518  1
  O  O353  1  0.75395588  0.87953925  0.23781783  1
  O  O354  1  0.73695159  0.88283968  0.74771350  1
  O  O355  1  0.25697959  0.12671922  0.25837881  1
  O  O356  1  0.23972162  0.11844603  0.76575853  1
  O  O357  1  0.26109903  0.62534560  0.25409276  1
  O  O358  1  0.25446811  0.63441877  0.75409126  1
  O  O359  1  0.75265497  0.11745504  0.25639854  1
  O  O360  1  0.75335723  0.11992169  0.75047764  1
  O  O361  1  0.75745181  0.62495513  0.25620911  1
  O  O362  1  0.75463944  0.61990566  0.75349676  1
  O  O363  1  0.36466406  0.13550411  0.36511988  1
  O  O364  1  0.36804405  0.11597474  0.88145128  1
  O  O365  1  0.36946285  0.61878666  0.36885110  1
  O  O366  1  0.38067320  0.61125847  0.87500620  1
  O  O367  1  0.86931923  0.11364748  0.37534797  1
  O  O368  1  0.86404544  0.13296909  0.85311957  1
  O  O369  1  0.86370116  0.62652686  0.37161830  1
  O  O370  1  0.86245600  0.61538550  0.86080298  1
  O  O371  1  0.12324352  0.37716858  0.14043698  1
  O  O372  1  0.13585776  0.37246092  0.63493819  1
  O  O373  1  0.14281553  0.87397167  0.13759207  1
  O  O374  1  0.13524833  0.88108117  0.61422584  1
  O  O375  1  0.62642580  0.38042647  0.13012911  1
  O  O376  1  0.62842511  0.37788217  0.62835923  1
  O  O377  1  0.63943777  0.87700253  0.12805046  1
  O  O378  1  0.61277960  0.88850201  0.62836991  1
  O  O379  1  0.12112376  0.26048273  0.25657751  1
  O  O380  1  0.11434078  0.25521690  0.75790481  1
  O  O381  1  0.11675082  0.75548860  0.25118113  1
  O  O382  1  0.10692378  0.74827431  0.74652339  1
  O  O383  1  0.61950876  0.25355880  0.25462220  1
  O  O384  1  0.62831630  0.26232437  0.74780570  1
  O  O385  1  0.62717455  0.75328298  0.26405789  1
  O  O386  1  0.61673500  0.76390524  0.73921774  1
  O  O387  1  0.37870525  0.24658801  0.24168236  1
  O  O388  1  0.36840714  0.25338041  0.74257883  1
  O  O389  1  0.37554576  0.73358310  0.25670165  1
  O  O390  1  0.38621914  0.75103039  0.73536244  1
  O  O391  1  0.88333342  0.25067992  0.24621292  1
  O  O392  1  0.88721974  0.24689918  0.74606507  1
  O  O393  1  0.89006631  0.74328262  0.25127676  1
  O  O394  1  0.87991619  0.74212602  0.74282176  1
  O  O395  1  0.38088979  0.49715779  0.48577415  1
  O  O396  1  0.37760850  0.49290196  0.99338686  1
  O  O397  1  0.37513049  0.99139104  0.50343535  1
  O  O398  1  0.37227608  0.98527274  0.98875825  1
  O  O399  1  0.88586673  0.49320520  0.49863269  1
  O  O400  1  0.88128210  0.48765661  1.00108006  1
  O  O401  1  0.87669227  0.99361471  0.49557315  1
  O  O402  1  0.88836994  1.03098612  0.98602783  1
  O  O403  1  0.12321206  0.01642507  0.00156527  1
  O  O404  1  0.11870180  0.00242344  0.50894837  1
  O  O405  1  0.10947453  0.48205380  0.01991088  1
  O  O406  1  0.11245222  0.50765771  0.49899742  1
  O  O407  1  0.63111045  0.01564926  -0.00537438  1
  O  O408  1  0.63046592  0.00935451  0.50940220  1
  O  O409  1  0.62388339  0.50243172  0.01296893  1
  O  O410  1  0.62407667  0.50687217  0.50510460  1
  O  O411  1  0.38065800  0.37017921  0.11392380  1
  O  O412  1  0.36706699  0.36658550  0.62528185  1
  O  O413  1  0.37105961  0.87648672  0.11910308  1
  O  O414  1  0.37218726  0.87235893  0.61250539  1
  O  O415  1  0.87023774  0.36686754  0.12172017  1
  O  O416  1  0.86823022  0.37784937  0.61183513  1
  O  O417  1  0.86199024  0.88315513  0.11993085  1
  O  O418  1  0.87731194  0.86506400  0.61702917  1
  O  O419  1  0.13289236  0.13889123  0.37551065  1
  O  O420  1  0.13566235  0.14246347  0.88852930  1
  O  O421  1  0.13313657  0.62277796  0.38252525  1
  O  O422  1  0.13420352  0.59040511  0.90115350  1
  O  O423  1  0.62850893  0.12806411  0.38080239  1
  O  O424  1  0.63115050  0.12631408  0.88046777  1
  O  O425  1  0.63448474  0.63196719  0.37760070  1
  O  O426  1  0.63392272  0.61479192  0.87007710  1
