# generated using pymatgen
data_V85Zn86O256
_symmetry_space_group_name_H-M   'P 1'
_cell_length_a   16.93385587
_cell_length_b   16.93927270
_cell_length_c   16.93812573
_cell_angle_alpha   89.90527806
_cell_angle_beta   89.94991381
_cell_angle_gamma   90.03566995
_symmetry_Int_Tables_number   1
_chemical_formula_structural   V85Zn86O256
_chemical_formula_sum   'V85 Zn86 O256'
_cell_volume   4858.64453771
_cell_formula_units_Z   1
loop_
 _symmetry_equiv_pos_site_id
 _symmetry_equiv_pos_as_xyz
  1  'x, y, z'
loop_
 _atom_site_type_symbol
 _atom_site_label
 _atom_site_symmetry_multiplicity
 _atom_site_fract_x
 _atom_site_fract_y
 _atom_site_fract_z
 _atom_site_occupancy
  V  V0  1  0.37356188  0.37531572  0.00186824  1
  V  V1  1  0.86815880  -0.00585067  0.38265462  1
  V  V2  1  0.78879163  0.80700487  0.55699375  1
  V  V3  1  -0.00697287  0.87202559  0.37988857  1
  V  V4  1  -0.00099637  0.24852643  0.74865825  1
  V  V5  1  -0.00125215  0.75532100  0.74164423  1
  V  V6  1  0.12155332  0.74441504  0.37857948  1
  V  V7  1  -0.01290357  0.87480978  0.87793776  1
  V  V8  1  0.37566762  0.24126527  0.13292282  1
  V  V9  1  0.24856188  0.25030207  0.00049183  1
  V  V10  1  0.12910102  0.75305371  0.87030014  1
  V  V11  1  0.12459728  0.87439118  0.25176927  1
  V  V12  1  0.74562704  -0.00892452  0.25247687  1
  V  V13  1  0.62842449  -0.00595169  0.63401159  1
  V  V14  1  0.74538573  0.25653156  0.50060631  1
  V  V15  1  0.62825620  0.62978687  -0.00546863  1
  V  V16  1  0.74779227  0.49924043  0.24908588  1
  V  V17  1  -0.00342456  -0.00411189  0.50081296  1
  V  V18  1  0.49994404  0.50226153  -0.00175833  1
  V  V19  1  0.24786129  0.62322185  0.38430461  1
  V  V20  1  0.87940685  0.49655884  0.37326177  1
  V  V21  1  -0.00466784  0.75083506  0.24256905  1
  V  V22  1  0.88408483  0.62589535  0.73726372  1
  V  V23  1  0.62581191  -0.00377334  0.12919499  1
  V  V24  1  0.51355585  0.87243590  0.37235560  1
  V  V25  1  0.49747507  0.00780133  0.00097672  1
  V  V26  1  0.24650453  0.37763008  0.62374448  1
  V  V27  1  0.00048495  0.37498717  0.87677752  1
  V  V28  1  0.73583214  0.63191249  0.38754204  1
  V  V29  1  0.37696433  0.49956133  0.37537656  1
  V  V30  1  0.37474755  0.62753795  0.25241635  1
  V  V31  1  0.74804851  0.25129551  -0.00294974  1
  V  V32  1  0.12314733  0.37516600  0.26384384  1
  V  V33  1  0.88591792  0.37420749  0.49941187  1
  V  V34  1  0.87344966  0.62779754  0.24601343  1
  V  V35  1  0.37733250  0.75148269  0.12618618  1
  V  V36  1  0.62446353  0.49926458  0.12359063  1
  V  V37  1  0.37704731  0.00073566  0.36872582  1
  V  V38  1  0.25039615  0.74149203  -0.00263271  1
  V  V39  1  0.12369317  0.37884301  0.74590510  1
  V  V40  1  -0.01307994  -0.00457391  -0.00365074  1
  V  V41  1  0.25673482  0.00126157  0.74748983  1
  V  V42  1  0.37638924  0.37391582  0.49984213  1
  V  V43  1  0.00162985  0.50025996  0.00461448  1
  V  V44  1  0.63254707  0.37584717  0.74898331  1
  V  V45  1  0.24244763  0.24991565  0.49546707  1
  V  V46  1  0.86651169  0.11720525  0.76126166  1
  V  V47  1  0.75492433  0.49729869  0.74816428  1
  V  V48  1  0.74401321  0.12981636  0.37467703  1
  V  V49  1  0.36558725  0.50623728  0.87366935  1
  V  V50  1  0.00265377  0.25163923  0.26526229  1
  V  V51  1  0.00101577  0.12617558  0.12575263  1
  V  V52  1  0.25601286  0.12488636  0.86829442  1
  V  V53  1  0.87638055  0.25086262  0.12513716  1
  V  V54  1  0.49923204  0.00003436  0.50266935  1
  V  V55  1  0.62126383  0.13258065  0.50281591  1
  V  V56  1  0.77419836  0.74563770  0.00592518  1
  V  V57  1  0.25173205  0.00125636  0.24933944  1
  V  V58  1  0.62423661  0.24917010  0.88117024  1
  V  V59  1  0.62350026  0.36116320  0.24686305  1
  V  V60  1  0.24960693  0.74977679  0.49979373  1
  V  V61  1  0.00412488  0.52108816  0.49881358  1
  V  V62  1  0.51251647  0.75770559  0.74504549  1
  V  V63  1  0.76339054  0.86947328  0.12159815  1
  V  V64  1  0.49832903  0.38137351  0.87408122  1
  V  V65  1  0.25022229  0.87439408  0.12402072  1
  V  V66  1  0.51381281  0.87575750  0.87611037  1
  V  V67  1  0.12359194  0.51546760  0.61992740  1
  V  V68  1  0.12223017  0.12467259  0.49516640  1
  V  V69  1  0.50248536  0.36813994  0.37302037  1
  V  V70  1  0.67980912  0.06892901  -0.05332980  1
  V  V71  1  0.49298653  0.24739795  0.75147560  1
  V  V72  1  0.75962380  0.62829260  0.87265335  1
  V  V73  1  0.86848496  0.25343505  0.62637653  1
  V  V74  1  0.50170065  0.62696367  0.12552484  1
  V  V75  1  0.37481710  0.87594035  -0.00386439  1
  V  V76  1  0.51322695  0.75353402  0.25343229  1
  V  V77  1  0.24911384  0.12519154  0.36854842  1
  V  V78  1  0.12365656  0.12208437  -0.00381989  1
  V  V79  1  0.12368944  -0.00107110  0.12352484  1
  V  V80  1  0.36974807  0.24310835  0.62952800  1
  V  V81  1  0.36819550  0.63773164  0.75534034  1
  V  V82  1  0.24652974  0.87404166  0.62776968  1
  V  V83  1  0.12128486  -0.00423383  0.63211851  1
  V  V84  1  -0.00429581  0.12237886  0.62587102  1
  Zn  Zn85  1  0.12711965  0.62342694  0.00059116  1
  Zn  Zn86  1  0.50218051  0.62155113  0.62162406  1
  Zn  Zn87  1  0.87463037  0.37496487  -0.00056036  1
  Zn  Zn88  1  0.12503271  0.24892440  0.87200442  1
  Zn  Zn89  1  0.37833109  0.75420971  0.62248849  1
  Zn  Zn90  1  0.63657905  0.75789457  0.87216789  1
  Zn  Zn91  1  0.00085836  0.62891380  0.12284038  1
  Zn  Zn92  1  0.87975168  0.49990955  0.87574507  1
  Zn  Zn93  1  0.37554241  0.87433863  0.49855402  1
  Zn  Zn94  1  0.74956884  0.37379958  0.12317116  1
  Zn  Zn95  1  0.74703711  -0.00445808  0.75360062  1
  Zn  Zn96  1  0.24713766  0.50062747  0.24914690  1
  Zn  Zn97  1  0.52926929  0.51847571  0.50434995  1
  Zn  Zn98  1  0.49768241  0.23685415  0.25849728  1
  Zn  Zn99  1  0.49391754  0.12360560  0.63030873  1
  Zn  Zn100  1  0.69433857  0.43351177  0.58496887  1
  Zn  Zn101  1  0.87348110  0.12502596  0.25381662  1
  Zn  Zn102  1  0.12739463  0.49931470  0.12627366  1
  Zn  Zn103  1  0.50476109  0.12243852  0.13066952  1
  Zn  Zn104  1  0.24679770  0.37563212  0.12894536  1
  Zn  Zn105  1  0.24617063  0.50918853  0.75032036  1
  Zn  Zn106  1  0.37646056  0.00219904  0.86969584  1
  Zn  Zn107  1  0.18384850  0.19179212  0.18728216  1
  Zn  Zn108  1  0.18364660  0.18607539  0.68508374  1
  Zn  Zn109  1  0.18583388  0.68443054  0.18810910  1
  Zn  Zn110  1  0.18717113  0.69169953  0.69117488  1
  Zn  Zn111  1  0.68749596  0.17928317  0.18159936  1
  Zn  Zn112  1  0.68583653  0.18548340  0.68818573  1
  Zn  Zn113  1  0.69097127  0.68602981  0.18716189  1
  Zn  Zn114  1  0.67625538  0.68190607  0.60582745  1
  Zn  Zn115  1  0.30861170  0.31192325  0.31360871  1
  Zn  Zn116  1  0.30874506  0.31559279  0.81355585  1
  Zn  Zn117  1  0.31579123  0.81413110  0.31396833  1
  Zn  Zn118  1  0.31016791  0.81948889  0.81285533  1
  Zn  Zn119  1  0.81368983  0.31263260  0.31326989  1
  Zn  Zn120  1  0.81349676  0.30786745  0.81507963  1
  Zn  Zn121  1  0.80707644  0.81002826  0.31372134  1
  Zn  Zn122  1  0.79977441  0.80994684  0.72756117  1
  Zn  Zn123  1  0.18526820  0.44059995  0.43688715  1
  Zn  Zn124  1  0.18383586  0.43630552  0.93739988  1
  Zn  Zn125  1  0.18466921  0.93614666  0.43907850  1
  Zn  Zn126  1  0.18302112  0.93387696  0.93281606  1
  Zn  Zn127  1  0.69114653  0.43058309  0.42039431  1
  Zn  Zn128  1  0.68989705  0.43946069  0.93331868  1
  Zn  Zn129  1  0.68412620  0.93893684  0.44483442  1
  Zn  Zn130  1  0.77427029  0.89278257  0.89833291  1
  Zn  Zn131  1  0.31091966  0.06296865  0.06037159  1
  Zn  Zn132  1  0.31100439  0.06125556  0.55919600  1
  Zn  Zn133  1  0.31272562  0.56076747  0.06691694  1
  Zn  Zn134  1  0.34419069  0.54797711  0.57899423  1
  Zn  Zn135  1  0.81521373  0.06198081  0.07066471  1
  Zn  Zn136  1  0.80866953  0.06170300  0.56402982  1
  Zn  Zn137  1  0.81732427  0.55983374  0.06323024  1
  Zn  Zn138  1  0.82020572  0.56657555  0.56146807  1
  Zn  Zn139  1  0.43570421  0.43440835  0.18760916  1
  Zn  Zn140  1  0.44019971  0.43890726  0.68912310  1
  Zn  Zn141  1  0.43892383  0.93754540  0.18943136  1
  Zn  Zn142  1  0.43627068  0.93429921  0.68568055  1
  Zn  Zn143  1  0.93998412  0.43296962  0.18883236  1
  Zn  Zn144  1  0.93935903  0.44054858  0.68271233  1
  Zn  Zn145  1  0.93559000  0.94017958  0.19305162  1
  Zn  Zn146  1  0.92628420  0.92918067  0.68195420  1
  Zn  Zn147  1  0.06048304  0.06184393  0.31308699  1
  Zn  Zn148  1  0.05981007  0.05898778  0.81230530  1
  Zn  Zn149  1  0.06055571  0.56258395  0.31317939  1
  Zn  Zn150  1  0.06503326  0.56667239  0.81651531  1
  Zn  Zn151  1  0.56494350  0.06292368  0.31214379  1
  Zn  Zn152  1  0.55372438  0.06337674  0.81096619  1
  Zn  Zn153  1  0.56072600  0.55758272  0.31305820  1
  Zn  Zn154  1  0.59699386  0.59511268  0.76812632  1
  Zn  Zn155  1  0.43143953  0.18575395  0.43767378  1
  Zn  Zn156  1  0.43517558  0.18880853  0.93930035  1
  Zn  Zn157  1  0.44075532  0.68810289  0.44077122  1
  Zn  Zn158  1  0.44095582  0.69005660  0.93332632  1
  Zn  Zn159  1  0.92975495  0.18197634  0.44037313  1
  Zn  Zn160  1  0.93821898  0.18879193  0.93780408  1
  Zn  Zn161  1  0.92112934  0.69172712  0.43552460  1
  Zn  Zn162  1  0.94462344  0.68516357  0.93306663  1
  Zn  Zn163  1  0.06529805  0.31468799  0.06713219  1
  Zn  Zn164  1  0.06119692  0.31264687  0.56283459  1
  Zn  Zn165  1  0.06298703  0.81360523  0.05850064  1
  Zn  Zn166  1  0.06429493  0.81110875  0.55941162  1
  Zn  Zn167  1  0.55959878  0.31146863  0.06341577  1
  Zn  Zn168  1  0.55833662  0.31429032  0.56263291  1
  Zn  Zn169  1  0.56803164  0.81695560  0.06218875  1
  Zn  Zn170  1  0.57472074  0.81461056  0.55770674  1
  O  O171  1  0.12176978  0.12057626  0.11443242  1
  O  O172  1  0.11719727  0.11722644  0.61424162  1
  O  O173  1  0.12026818  0.62044643  0.12244231  1
  O  O174  1  0.13087430  0.61423592  0.62820356  1
  O  O175  1  0.62618327  0.10445605  0.12168148  1
  O  O176  1  0.61728795  0.12409559  0.61449464  1
  O  O177  1  0.62095988  0.61857713  0.11624125  1
  O  O178  1  0.61275060  0.60876435  0.65404452  1
  O  O179  1  0.37787279  0.38082855  0.37837614  1
  O  O180  1  0.38057131  0.38052685  0.88091959  1
  O  O181  1  0.38006982  0.88826032  0.37807240  1
  O  O182  1  0.37889995  0.87836900  0.88757861  1
  O  O183  1  0.86970456  0.38862410  0.38240728  1
  O  O184  1  0.89075600  0.37313879  0.87373463  1
  O  O185  1  0.88100532  0.88309244  0.36954085  1
  O  O186  1  0.88889746  0.87133516  0.88439136  1
  O  O187  1  0.25589476  0.00416260  0.37089735  1
  O  O188  1  0.24807965  0.00568249  0.86485120  1
  O  O189  1  0.25391823  0.50886193  0.36960681  1
  O  O190  1  0.26232323  0.49372780  0.87302826  1
  O  O191  1  0.75265255  0.00324056  0.37016343  1
  O  O192  1  0.73735963  0.01054257  0.89031835  1
  O  O193  1  0.75730583  0.50497873  0.36181684  1
  O  O194  1  0.75770410  0.50683194  0.86748603  1
  O  O195  1  0.24927162  0.49500973  0.13209057  1
  O  O196  1  0.24590702  0.49384194  0.62630117  1
  O  O197  1  0.24419635  0.99541747  0.12948810  1
  O  O198  1  0.24222266  0.99630733  0.62871127  1
  O  O199  1  0.74622227  0.49765891  0.13541654  1
  O  O200  1  0.76560765  0.49918622  0.64163352  1
  O  O201  1  0.74767543  0.99102605  0.13276052  1
  O  O202  1  0.73258591  1.00755172  0.62880065  1
  O  O203  1  0.00718604  0.36054941  0.25169108  1
  O  O204  1  0.00864321  0.37207167  0.75331636  1
  O  O205  1  0.00273831  0.86977662  0.26060551  1
  O  O206  1  -0.00943246  0.86297323  0.76064737  1
  O  O207  1  0.50643863  0.37034002  0.25589201  1
  O  O208  1  0.50538916  0.36928183  0.75781552  1
  O  O209  1  0.49773858  0.86889541  0.26318084  1
  O  O210  1  0.49055634  0.86581003  0.76194994  1
  O  O211  1  0.50307621  0.12511694  0.24552961  1
  O  O212  1  0.49610359  0.14310114  0.75215767  1
  O  O213  1  0.49281802  0.63135643  0.24827809  1
  O  O214  1  0.48913429  0.64801142  0.75524350  1
  O  O215  1  1.00054933  0.13463055  0.24479889  1
  O  O216  1  0.99321901  0.12832532  0.74372924  1
  O  O217  1  0.99198371  0.63461155  0.25170941  1
  O  O218  1  0.99108677  0.63583290  0.75798970  1
  O  O219  1  0.36570973  0.25499333  0.00647850  1
  O  O220  1  0.36164283  0.25511846  0.50613119  1
  O  O221  1  0.37085605  0.75725824  0.00353157  1
  O  O222  1  0.36090231  0.75362962  0.49905592  1
  O  O223  1  0.86681469  0.24944277  0.00676620  1
  O  O224  1  0.86828436  0.25586094  0.50634649  1
  O  O225  1  0.87272096  0.73696677  0.00838414  1
  O  O226  1  0.85685715  0.75567405  0.50254103  1
  O  O227  1  0.13429903  0.24121204  0.50543464  1
  O  O228  1  0.13220983  0.24117067  0.99968416  1
  O  O229  1  0.13355100  0.75201665  0.48691998  1
  O  O230  1  0.13549881  0.75000127  0.99356751  1
  O  O231  1  0.63207386  0.24560478  0.50361037  1
  O  O232  1  0.62917103  0.25382798  0.98991833  1
  O  O233  1  0.67490158  0.76921529  0.53239673  1
  O  O234  1  0.62675257  0.73541131  1.00043981  1
  O  O235  1  0.48461391  0.24640182  0.12166629  1
  O  O236  1  0.48760659  0.25094436  0.63403664  1
  O  O237  1  0.49647370  0.74730047  0.13078443  1
  O  O238  1  0.49973747  0.76101245  0.63736201  1
  O  O239  1  0.99267636  0.24319431  0.12889240  1
  O  O240  1  0.99254013  0.24310490  0.63017775  1
  O  O241  1  1.00499091  0.75402006  0.13978806  1
  O  O242  1  1.00829337  0.75718620  0.64270157  1
  O  O243  1  -0.00653704  0.24157192  0.36313814  1
  O  O244  1  0.00396737  0.25672005  0.86776199  1
  O  O245  1  0.00346829  0.75507244  0.37184694  1
  O  O246  1  0.00722660  0.76046104  0.87171824  1
  O  O247  1  0.48847254  0.26288305  0.37408872  1
  O  O248  1  0.50261334  0.25965828  0.87285077  1
  O  O249  1  0.49416993  0.76570303  0.36881975  1
  O  O250  1  0.50375070  0.76137543  0.86854748  1
  O  O251  1  0.24099812  0.12924521  0.49235835  1
  O  O252  1  0.24247140  0.13245449  0.99341513  1
  O  O253  1  0.25626861  0.63268472  0.48715176  1
  O  O254  1  0.25472487  0.63911929  1.00268942  1
  O  O255  1  0.74081871  0.13268490  0.49498111  1
  O  O256  1  0.74518497  0.12828359  1.00214693  1
  O  O257  1  0.74871753  0.61525669  0.48896247  1
  O  O258  1  0.74604909  0.62712784  0.99739450  1
  O  O259  1  0.25205047  0.36168858  -0.00198563  1
  O  O260  1  0.25320000  0.36614162  0.50079360  1
  O  O261  1  0.25742255  0.87018453  0.00500878  1
  O  O262  1  0.24975163  0.86712767  0.50539821  1
  O  O263  1  0.75213387  0.36617652  0.00142763  1
  O  O264  1  0.76105945  0.36901498  0.50054080  1
  O  O265  1  0.75584418  0.85863635  0.00841710  1
  O  O266  1  0.76467239  0.89147040  0.50315816  1
  O  O267  1  0.12063651  0.48568835  0.25162999  1
  O  O268  1  0.12411532  0.49591495  0.74227397  1
  O  O269  1  0.12958742  0.99391661  0.24468622  1
  O  O270  1  0.13070596  1.00533158  0.73583904  1
  O  O271  1  0.63170307  0.49168748  0.24337142  1
  O  O272  1  0.64209572  0.48721524  0.75945788  1
  O  O273  1  0.63791524  0.99735126  0.24527284  1
  O  O274  1  0.62323407  1.01361670  0.73711782  1
  O  O275  1  0.36520070  -0.00368889  0.25677271  1
  O  O276  1  0.36123671  0.00128259  0.74802416  1
  O  O277  1  0.37568180  0.50593018  0.26075986  1
  O  O278  1  0.37415833  0.51352783  0.75875061  1
  O  O279  1  0.86411591  0.00292841  0.26204198  1
  O  O280  1  0.87305298  0.01474931  0.74365990  1
  O  O281  1  0.87048169  0.50114955  0.25662706  1
  O  O282  1  0.87915719  0.50915854  0.75393483  1
  O  O283  1  0.12552715  0.37320488  0.36381073  1
  O  O284  1  0.11581109  0.37331614  0.86475648  1
  O  O285  1  0.11633023  0.86887113  0.36941772  1
  O  O286  1  0.11395447  0.86005142  0.87835395  1
  O  O287  1  0.61413076  0.37142822  0.35899941  1
  O  O288  1  0.61628188  0.36778014  0.87027745  1
  O  O289  1  0.61222558  0.87962699  0.37679359  1
  O  O290  1  0.61263137  0.87480663  0.88660583  1
  O  O291  1  0.37239381  0.13892784  0.12117039  1
  O  O292  1  0.37214713  0.13932629  0.61941824  1
  O  O293  1  0.38293130  0.63126560  0.13214054  1
  O  O294  1  0.37673480  0.63764589  0.64386587  1
  O  O295  1  0.88081367  0.13525976  0.13113928  1
  O  O296  1  0.87942415  0.13525927  0.62802206  1
  O  O297  1  0.87853742  0.61843997  0.14206049  1
  O  O298  1  0.88485770  0.62190117  0.63890799  1
  O  O299  1  0.25822982  0.24966341  0.11714215  1
  O  O300  1  0.25181809  0.25565335  0.61845123  1
  O  O301  1  0.25629223  0.75613961  0.11832445  1
  O  O302  1  0.24602220  0.75813005  0.61682801  1
  O  O303  1  0.75630316  0.24796049  0.11440223  1
  O  O304  1  0.75691122  0.24473605  0.61355970  1
  O  O305  1  0.74792904  0.76143263  0.12054423  1
  O  O306  1  0.76540320  0.74135356  0.64415588  1
  O  O307  1  0.25488774  0.23802276  0.38419183  1
  O  O308  1  0.24621742  0.24266423  0.88108129  1
  O  O309  1  0.24219235  0.74660247  0.38018485  1
  O  O310  1  0.23822194  0.75938997  0.88217459  1
  O  O311  1  0.75575112  0.24165307  0.38716425  1
  O  O312  1  0.74180089  0.25022926  0.88819155  1
  O  O313  1  0.74896200  0.73037022  0.37024868  1
  O  O314  1  0.75217844  0.74077228  0.89220244  1
  O  O315  1  0.00798463  0.11929049  0.00304806  1
  O  O316  1  0.00540269  0.11929342  0.50477472  1
  O  O317  1  0.00137885  0.61411706  0.00340077  1
  O  O318  1  -0.00622407  0.61908546  0.49582134  1
  O  O319  1  0.49161809  0.11127975  0.00419465  1
  O  O320  1  0.50558073  0.11904194  0.49854531  1
  O  O321  1  0.50785078  0.62035765  0.00201051  1
  O  O322  1  0.50637442  0.62947780  0.50566432  1
  O  O323  1  0.48312602  0.36815191  0.49294422  1
  O  O324  1  0.49467828  0.38136990  0.99286912  1
  O  O325  1  0.50085243  0.88105892  0.49048455  1
  O  O326  1  0.49250205  0.88301957  0.99539169  1
  O  O327  1  0.98825399  0.37401059  0.49824742  1
  O  O328  1  1.00148437  0.37809413  0.99133854  1
  O  O329  1  1.00283063  0.87855640  0.48725595  1
  O  O330  1  1.00235482  0.88279314  0.99057765  1
  O  O331  1  0.49158401  0.48761140  0.37881516  1
  O  O332  1  0.48922719  0.48807913  0.87915566  1
  O  O333  1  0.49507125  0.99146233  0.38003115  1
  O  O334  1  0.49572553  0.99448012  0.88249457  1
  O  O335  1  0.99274468  0.50365154  0.38777596  1
  O  O336  1  1.00293369  0.49191446  0.88534094  1
  O  O337  1  0.98997260  0.99212978  0.37843579  1
  O  O338  1  1.00624804  0.98404432  0.88111311  1
  O  O339  1  0.00446150  0.00544343  0.12006986  1
  O  O340  1  0.00327365  -0.00132245  0.62105774  1
  O  O341  1  0.00027791  0.49569589  0.11330728  1
  O  O342  1  0.00826873  0.49840240  0.60747724  1
  O  O343  1  0.50822589  -0.00516463  0.11724108  1
  O  O344  1  0.50182209  0.00484284  0.61853473  1
  O  O345  1  0.50332341  0.50701141  0.11932224  1
  O  O346  1  0.46090209  0.50722687  0.60367448  1
  O  O347  1  0.23431235  0.37263606  0.25164786  1
  O  O348  1  0.23531083  0.37677426  0.74579177  1
  O  O349  1  0.24483252  0.87905789  0.24398476  1
  O  O350  1  0.24808904  0.88578942  0.74034359  1
  O  O351  1  0.74130166  0.37998910  0.24881151  1
  O  O352  1  0.74460444  0.38116666  0.75892912  1
  O  O353  1  0.75278015  0.87926074  0.23694891  1
  O  O354  1  0.75077978  0.88722534  0.78796044  1
  O  O355  1  0.23933411  0.12140508  0.26271516  1
  O  O356  1  0.24147532  0.11789199  0.75835927  1
  O  O357  1  0.26155603  0.62877417  0.26024501  1
  O  O358  1  0.26368027  0.62890237  0.75395132  1
  O  O359  1  0.74896143  0.11722422  0.25977995  1
  O  O360  1  0.76264990  0.12413379  0.75030212  1
  O  O361  1  0.75538566  0.61552956  0.25340998  1
  O  O362  1  0.76896987  0.61555935  0.76012440  1
  O  O363  1  0.36341053  0.11051276  0.38025270  1
  O  O364  1  0.35986143  0.12256877  0.88025686  1
  O  O365  1  0.37108210  0.61779683  0.37060349  1
  O  O366  1  0.37880188  0.61859084  0.86670791  1
  O  O367  1  0.86029688  0.11533811  0.37543443  1
  O  O368  1  0.88006833  0.12846440  0.85918216  1
  O  O369  1  0.86591278  0.61276297  0.36654116  1
  O  O370  1  0.86911839  0.62236806  0.87255089  1
  O  O371  1  0.12723517  0.37603052  0.13925624  1
  O  O372  1  0.12789390  0.38349101  0.62953196  1
  O  O373  1  0.13009534  0.87995534  0.13080268  1
  O  O374  1  0.13525274  0.88437050  0.61787678  1
  O  O375  1  0.62431076  0.38250455  0.12930425  1
  O  O376  1  0.62354236  0.36274112  0.64516867  1
  O  O377  1  0.63941322  0.88926348  0.11556514  1
  O  O378  1  0.61690873  0.89650661  0.63059438  1
  O  O379  1  0.11061102  0.25687141  0.24976430  1
  O  O380  1  0.11650841  0.25883998  0.74716511  1
  O  O381  1  0.11815906  0.75551784  0.26089759  1
  O  O382  1  0.11364312  0.74777547  0.76159321  1
  O  O383  1  0.62368573  0.25870274  0.23766296  1
  O  O384  1  0.61976615  0.25297372  0.76449239  1
  O  O385  1  0.61194930  0.74535115  0.24513390  1
  O  O386  1  0.61174407  0.75228718  0.75405012  1
  O  O387  1  0.37339088  0.25488346  0.23505488  1
  O  O388  1  0.38017636  0.26064699  0.74131090  1
  O  O389  1  0.38227151  0.74522120  0.24502497  1
  O  O390  1  0.37716687  0.74594666  0.75375763  1
  O  O391  1  0.88507773  0.24913051  0.24457084  1
  O  O392  1  0.87831253  0.24220930  0.74262665  1
  O  O393  1  0.88390249  0.74032961  0.25799414  1
  O  O394  1  0.89031210  0.73640320  0.75670944  1
  O  O395  1  0.35979978  0.48648404  0.48234324  1
  O  O396  1  0.37988186  0.49652190  0.99347386  1
  O  O397  1  0.38701666  0.99991244  0.49436437  1
  O  O398  1  0.38040011  0.99175546  1.00034602  1
  O  O399  1  0.88664878  0.49433447  0.49550506  1
  O  O400  1  0.88471360  0.49378013  0.99745278  1
  O  O401  1  0.88195485  1.00873804  0.49010026  1
  O  O402  1  0.88810680  1.00764396  1.00124339  1
  O  O403  1  0.12047184  0.00669923  0.00492463  1
  O  O404  1  0.11757263  0.00633443  0.50830654  1
  O  O405  1  0.11769363  0.50186092  0.00157355  1
  O  O406  1  0.11174059  0.50082564  0.50305364  1
  O  O407  1  0.61756384  0.00631217  0.00312658  1
  O  O408  1  0.61353155  0.00902655  0.50991954  1
  O  O409  1  0.62147083  0.50998926  0.00188141  1
  O  O410  1  0.62451566  0.46324167  0.50384382  1
  O  O411  1  0.37176359  0.36577650  0.11715100  1
  O  O412  1  0.36546888  0.36612701  0.61615683  1
  O  O413  1  0.37190214  0.87027939  0.11557768  1
  O  O414  1  0.36064943  0.87436214  0.61977131  1
  O  O415  1  0.87311809  0.36084231  0.12490317  1
  O  O416  1  0.88015338  0.36082908  0.61930809  1
  O  O417  1  0.86246139  0.88170284  0.12563438  1
  O  O418  1  0.85030982  0.86325988  0.63082867  1
  O  O419  1  0.13075252  0.11619923  0.38852018  1
  O  O420  1  0.13079047  0.12400271  0.88458348  1
  O  O421  1  0.13460998  0.63419706  0.36791815  1
  O  O422  1  0.11996216  0.64573528  0.88163604  1
  O  O423  1  0.63606831  0.11804098  0.38851259  1
  O  O424  1  0.62149487  0.12930870  0.88306345  1
  O  O425  1  0.63776235  0.61635129  0.37199873  1
  O  O426  1  0.64150844  0.62736495  0.87659034  1
