# generated using pymatgen
data_V85Zn86O256
_symmetry_space_group_name_H-M   'P 1'
_cell_length_a   16.92359581
_cell_length_b   16.94184625
_cell_length_c   16.94777941
_cell_angle_alpha   90.02625716
_cell_angle_beta   89.92840820
_cell_angle_gamma   89.94033529
_symmetry_Int_Tables_number   1
_chemical_formula_structural   V85Zn86O256
_chemical_formula_sum   'V85 Zn86 O256'
_cell_volume   4859.20882071
_cell_formula_units_Z   1
loop_
 _symmetry_equiv_pos_site_id
 _symmetry_equiv_pos_as_xyz
  1  'x, y, z'
loop_
 _atom_site_type_symbol
 _atom_site_label
 _atom_site_symmetry_multiplicity
 _atom_site_fract_x
 _atom_site_fract_y
 _atom_site_fract_z
 _atom_site_occupancy
  V  V0  1  0.74969453  0.75001427  0.49989524  1
  V  V1  1  0.12084907  0.87556205  0.75702497  1
  V  V2  1  0.74857115  0.49720059  0.24895497  1
  V  V3  1  0.12309485  0.12524221  0.50043711  1
  V  V4  1  0.37139152  0.62274404  0.75155444  1
  V  V5  1  -0.00544423  0.51275070  -0.00608568  1
  V  V6  1  0.62354881  0.12531008  0.49326833  1
  V  V7  1  0.37655967  0.00011250  0.37066698  1
  V  V8  1  -0.00270674  0.12712595  0.63279759  1
  V  V9  1  0.50103543  0.62426780  0.62557683  1
  V  V10  1  0.75318153  0.87539190  0.62973546  1
  V  V11  1  0.62429115  0.49109887  0.12667910  1
  V  V12  1  0.36740959  0.75081090  0.12483292  1
  V  V13  1  0.50071952  0.74996418  0.25112987  1
  V  V14  1  0.50104963  0.25090965  0.75193409  1
  V  V15  1  0.75122620  0.75203358  0.00448511  1
  V  V16  1  0.85769735  0.11900873  0.74495423  1
  V  V17  1  0.24885133  0.75887669  0.50174845  1
  V  V18  1  0.87267227  0.25770815  0.62628391  1
  V  V19  1  0.87842697  0.12127328  0.23805411  1
  V  V20  1  0.62945030  0.88106658  0.75246449  1
  V  V21  1  0.74702925  0.26024876  0.50251882  1
  V  V22  1  0.74939614  0.88621562  0.12315533  1
  V  V23  1  0.37188151  0.75939536  0.62516816  1
  V  V24  1  0.62735167  0.62434295  0.00041478  1
  V  V25  1  0.24897787  0.49853211  0.75119178  1
  V  V26  1  -0.00342734  0.00130485  0.49368344  1
  V  V27  1  0.50114664  0.12509703  0.62433735  1
  V  V28  1  0.25089903  0.62325084  0.37728665  1
  V  V29  1  0.37303354  0.12471405  0.75331136  1
  V  V30  1  0.87290513  0.87973396  0.49404341  1
  V  V31  1  0.75800465  0.12433112  0.37645887  1
  V  V32  1  0.11922963  0.25031502  0.37203407  1
  V  V33  1  0.11888914  0.50074499  0.62972803  1
  V  V34  1  0.12091196  0.86835385  0.24866522  1
  V  V35  1  0.10661444  0.00450651  0.11861959  1
  V  V36  1  0.75391276  0.24543764  0.00335102  1
  V  V37  1  0.25046236  -0.00519736  0.74817397  1
  V  V38  1  -0.00777163  0.24999867  0.23632480  1
  V  V39  1  0.00275263  0.74947926  0.75362720  1
  V  V40  1  0.75020786  0.62652373  0.37163905  1
  V  V41  1  0.37486676  0.23362211  0.12546902  1
  V  V42  1  0.75568474  0.36968653  0.12756797  1
  V  V43  1  0.50209657  0.88203355  0.87712722  1
  V  V44  1  0.24868385  0.00163642  0.24331759  1
  V  V45  1  0.24620624  0.37269553  0.12694621  1
  V  V46  1  0.25476658  0.12647190  0.36805478  1
  V  V47  1  0.62989854  0.00150340  0.62517872  1
  V  V48  1  0.87932906  0.62769157  0.74605528  1
  V  V49  1  0.37788198  0.49365010  0.37238251  1
  V  V50  1  0.75343854  0.49911244  0.75308134  1
  V  V51  1  0.12158271  0.62614642  0.50622518  1
  V  V52  1  0.31587412  0.55528354  0.91808747  1
  V  V53  1  0.50342012  0.00384145  0.01739518  1
  V  V54  1  0.37610581  0.37492079  0.49951016  1
  V  V55  1  0.62998575  0.49593684  0.62613413  1
  V  V56  1  -0.00128207  0.86763156  0.37354264  1
  V  V57  1  0.74767244  0.00099157  0.25393588  1
  V  V58  1  0.11386192  0.25355267  0.85818907  1
  V  V59  1  0.24315569  0.37392914  0.62968732  1
  V  V60  1  0.11667216  0.50648607  0.12606028  1
  V  V61  1  0.62451216  0.87849939  0.24748892  1
  V  V62  1  0.87935656  0.37259757  -0.00557375  1
  V  V63  1  0.88821298  0.74741562  0.12742980  1
  V  V64  1  0.36822226  0.87448069  0.00061729  1
  V  V65  1  0.37132774  0.37187738  -0.00221263  1
  V  V66  1  0.63150919  0.37412510  0.75009797  1
  V  V67  1  0.24866977  0.24999145  0.49894955  1
  V  V68  1  0.61900899  0.26523312  0.36666460  1
  V  V69  1  0.49937312  0.49984263  -0.00355708  1
  V  V70  1  0.50094302  0.75196244  0.75100657  1
  V  V71  1  0.50258249  0.62428849  0.12678253  1
  V  V72  1  0.50074000  0.49547449  0.49697992  1
  V  V73  1  0.12837402  -0.00717594  0.62361923  1
  V  V74  1  0.62309818  0.12381457  0.01279917  1
  V  V75  1  0.14068426  0.74705444  0.88262374  1
  V  V76  1  0.37450674  0.25085565  0.62539224  1
  V  V77  1  0.63212227  0.24811492  0.87748214  1
  V  V78  1  0.49389179  0.25053578  0.24734632  1
  V  V79  1  0.87875104  -0.00814389  0.86456616  1
  V  V80  1  0.49787575  0.37783759  0.87556841  1
  V  V81  1  0.75639500  0.62294347  0.87658913  1
  V  V82  1  0.88927937  0.88068462  -0.00255875  1
  V  V83  1  -0.00206692  0.50042674  0.49957689  1
  V  V84  1  0.88737543  0.62795858  0.24797092  1
  Zn  Zn85  1  0.24613483  0.49681818  0.25339965  1
  Zn  Zn86  1  0.24463072  0.87294855  0.12143191  1
  Zn  Zn87  1  0.37269162  0.00298281  0.87845866  1
  Zn  Zn88  1  0.12202671  0.74615072  0.37133927  1
  Zn  Zn89  1  0.37538246  0.87785787  0.49978308  1
  Zn  Zn90  1  0.13902586  0.62648170  -0.00103765  1
  Zn  Zn91  1  0.62407515  0.75093233  0.37505458  1
  Zn  Zn92  1  0.24233662  0.24393741  -0.00386439  1
  Zn  Zn93  1  0.87573333  0.49778585  0.37350419  1
  Zn  Zn94  1  0.11084528  0.13003038  -0.00326916  1
  Zn  Zn95  1  0.88757811  0.74954352  0.62247700  1
  Zn  Zn96  1  0.62543989  0.62580910  0.49943106  1
  Zn  Zn97  1  0.11896149  0.37513786  0.24744103  1
  Zn  Zn98  1  1.00493482  0.38075048  0.85803005  1
  Zn  Zn99  1  0.62736145  0.75259226  0.87669498  1
  Zn  Zn100  1  0.49850191  -0.00237918  0.49713422  1
  Zn  Zn101  1  -0.00584982  0.37280201  0.37547629  1
  Zn  Zn102  1  0.49955149  0.87522371  0.37614675  1
  Zn  Zn103  1  0.87034687  0.37946690  0.49966116  1
  Zn  Zn104  1  0.23913658  0.12545974  0.87571036  1
  Zn  Zn105  1  0.74749727  0.11397359  0.87501341  1
  Zn  Zn106  1  0.37657182  0.62328956  0.25324648  1
  Zn  Zn107  1  0.18375118  0.18595179  0.18509233  1
  Zn  Zn108  1  0.18586194  0.18361654  0.68876679  1
  Zn  Zn109  1  0.18704587  0.68448271  0.19003781  1
  Zn  Zn110  1  0.18873557  0.68822067  0.68864972  1
  Zn  Zn111  1  0.68730496  0.18821520  0.18989369  1
  Zn  Zn112  1  0.68949886  0.18878953  0.68631788  1
  Zn  Zn113  1  0.68980863  0.68826204  0.18650028  1
  Zn  Zn114  1  0.68801249  0.69040682  0.68830104  1
  Zn  Zn115  1  0.31324442  0.31201420  0.30923701  1
  Zn  Zn116  1  0.30602467  0.31094825  0.81485544  1
  Zn  Zn117  1  0.31036389  0.81451226  0.31236834  1
  Zn  Zn118  1  0.31301372  0.81723911  0.81097830  1
  Zn  Zn119  1  0.81289708  0.31172830  0.31457661  1
  Zn  Zn120  1  0.84272066  0.33121669  0.79391412  1
  Zn  Zn121  1  0.81430839  0.81211593  0.31196895  1
  Zn  Zn122  1  0.81345069  0.81144427  0.81544751  1
  Zn  Zn123  1  0.18551114  0.43580907  0.43916247  1
  Zn  Zn124  1  0.17504232  0.42625770  0.94281908  1
  Zn  Zn125  1  0.18615247  0.93830043  0.43299161  1
  Zn  Zn126  1  0.18453204  0.94019877  0.93480677  1
  Zn  Zn127  1  0.68750022  0.44126637  0.43588000  1
  Zn  Zn128  1  0.69081781  0.43533196  0.93753350  1
  Zn  Zn129  1  0.68540084  0.93853122  0.43424831  1
  Zn  Zn130  1  0.69134392  0.94225293  0.94020757  1
  Zn  Zn131  1  0.30479278  0.06012994  0.05535484  1
  Zn  Zn132  1  0.31157639  0.06281122  0.56048837  1
  Zn  Zn133  1  0.31363465  0.55821259  0.08247726  1
  Zn  Zn134  1  0.31152386  0.56428512  0.56332360  1
  Zn  Zn135  1  0.93354960  0.06313243  0.05927016  1
  Zn  Zn136  1  0.81067945  0.06287278  0.55889541  1
  Zn  Zn137  1  0.81626163  0.56255438  0.06531892  1
  Zn  Zn138  1  0.81324700  0.56585959  0.56558308  1
  Zn  Zn139  1  0.43898082  0.42890028  0.18949720  1
  Zn  Zn140  1  0.43625596  0.43769584  0.68867067  1
  Zn  Zn141  1  0.43333536  0.93704491  0.19073504  1
  Zn  Zn142  1  0.44137360  0.94041153  0.68760456  1
  Zn  Zn143  1  0.93569119  0.43728133  0.18408266  1
  Zn  Zn144  1  0.93633407  0.44173586  0.68418482  1
  Zn  Zn145  1  0.93057699  0.93322492  0.19497170  1
  Zn  Zn146  1  0.94161476  0.93645444  0.68450853  1
  Zn  Zn147  1  0.06231347  0.06093217  0.30978422  1
  Zn  Zn148  1  0.05532698  0.06364319  0.81552798  1
  Zn  Zn149  1  0.06419833  0.56049273  0.31671247  1
  Zn  Zn150  1  0.06475005  0.56765715  0.81756330  1
  Zn  Zn151  1  0.56161609  0.06672900  0.30598069  1
  Zn  Zn152  1  0.56439782  0.06339402  0.81449736  1
  Zn  Zn153  1  0.56514491  0.56108865  0.31281353  1
  Zn  Zn154  1  0.56525820  0.56352431  0.81482332  1
  Zn  Zn155  1  0.43875846  0.18758326  0.43369859  1
  Zn  Zn156  1  0.43900378  0.18789472  0.93938327  1
  Zn  Zn157  1  0.43636823  0.68540327  0.43842060  1
  Zn  Zn158  1  0.44302822  0.69511357  0.94026595  1
  Zn  Zn159  1  0.93566371  0.18909484  0.43904022  1
  Zn  Zn160  1  0.93668084  0.18876579  0.92698592  1
  Zn  Zn161  1  0.93589068  0.68536425  0.43861109  1
  Zn  Zn162  1  0.94030685  0.69461093  0.93086630  1
  Zn  Zn163  1  0.06122059  0.31083313  0.05635119  1
  Zn  Zn164  1  0.05961744  0.31356200  0.56614502  1
  Zn  Zn165  1  0.06747032  0.81190882  0.06094041  1
  Zn  Zn166  1  0.06238535  0.81256559  0.56579428  1
  Zn  Zn167  1  0.55951557  0.31067282  0.06612149  1
  Zn  Zn168  1  0.56437914  0.31408030  0.56280714  1
  Zn  Zn169  1  0.56248048  0.81463485  0.06595149  1
  Zn  Zn170  1  0.56198758  0.81440757  0.56116452  1
  O  O171  1  0.12259345  0.10631630  0.12712210  1
  O  O172  1  0.11506113  0.11805936  0.62008651  1
  O  O173  1  0.13574834  0.61162359  0.11851932  1
  O  O174  1  0.13337759  0.61592092  0.61361978  1
  O  O175  1  0.62804646  0.12897806  0.11187123  1
  O  O176  1  0.62316482  0.11858082  0.61651217  1
  O  O177  1  0.62215673  0.61527636  0.11969138  1
  O  O178  1  0.61355831  0.61998489  0.62712861  1
  O  O179  1  0.36852217  0.38589028  0.38226175  1
  O  O180  1  0.37986098  0.36561332  0.88952470  1
  O  O181  1  0.37617549  0.88564487  0.37594084  1
  O  O182  1  0.38472191  0.87632621  0.88285989  1
  O  O183  1  0.87490174  0.37879643  0.38188762  1
  O  O184  1  0.86061915  0.38550571  0.89709912  1
  O  O185  1  0.88076732  0.87258788  0.38620675  1
  O  O186  1  0.87303855  0.88020352  0.88648069  1
  O  O187  1  0.25262382  0.00797165  0.36567285  1
  O  O188  1  0.25262579  0.00410331  0.86375441  1
  O  O189  1  0.25692572  0.50528707  0.37668045  1
  O  O190  1  0.24776608  0.49085548  0.86790252  1
  O  O191  1  0.74573093  0.01166488  0.36778859  1
  O  O192  1  0.76953209  -0.00035666  0.88213657  1
  O  O193  1  0.75081095  0.50783644  0.36649551  1
  O  O194  1  0.74317461  0.51197430  0.86633361  1
  O  O195  1  0.24026305  0.48851432  0.13102539  1
  O  O196  1  0.24269645  0.49305423  0.63017966  1
  O  O197  1  0.24779470  0.99711254  0.13613952  1
  O  O198  1  0.23884972  1.00843791  0.63260226  1
  O  O199  1  0.74341825  0.49419405  0.13008848  1
  O  O200  1  0.73529616  0.50829097  0.63196021  1
  O  O201  1  0.75502168  0.98597850  0.13490472  1
  O  O202  1  0.73839886  0.98927960  0.61750834  1
  O  O203  1  -0.00428500  0.36123367  0.25201071  1
  O  O204  1  -0.05113327  0.36649374  0.76219061  1
  O  O205  1  0.00520134  0.88017703  0.26289636  1
  O  O206  1  0.01427517  0.87123652  0.74774990  1
  O  O207  1  0.50601838  0.35424793  0.24167252  1
  O  O208  1  0.50558038  0.37006115  0.75647348  1
  O  O209  1  0.50826442  0.86847129  0.24999526  1
  O  O210  1  0.50726710  0.87269779  0.75775072  1
  O  O211  1  0.51413621  0.14843724  0.24543053  1
  O  O212  1  0.49483953  0.13039684  0.74427056  1
  O  O213  1  0.50102178  0.63191373  0.24419405  1
  O  O214  1  0.49205293  0.62814435  0.74562063  1
  O  O215  1  0.98511536  0.13066313  0.25616444  1
  O  O216  1  0.98665361  0.11587787  0.73482709  1
  O  O217  1  0.98653285  0.62339136  0.25849280  1
  O  O218  1  0.98926868  0.63131588  0.75616061  1
  O  O219  1  0.37204065  0.25472739  0.00996377  1
  O  O220  1  0.36965597  0.25411136  0.50464079  1
  O  O221  1  0.38525492  0.76245344  0.01216473  1
  O  O222  1  0.36753458  0.74913799  0.50861790  1
  O  O223  1  0.86607121  0.26261369  -0.00562675  1
  O  O224  1  0.86226399  0.24861317  0.50638935  1
  O  O225  1  0.87040918  0.75708435  0.00684420  1
  O  O226  1  0.86540983  0.75677710  0.50314507  1
  O  O227  1  0.12902562  0.24546653  0.49321391  1
  O  O228  1  0.12496618  0.25041218  0.98736751  1
  O  O229  1  0.13176265  0.74244507  0.50202881  1
  O  O230  1  0.12856233  0.74885189  0.98855362  1
  O  O231  1  0.62778610  0.24390726  0.49297530  1
  O  O232  1  0.62574226  0.24451230  0.99465134  1
  O  O233  1  0.63731451  0.74912069  0.49876243  1
  O  O234  1  0.63319359  0.74384539  1.00298609  1
  O  O235  1  0.48189696  0.25111945  0.12792216  1
  O  O236  1  0.49597201  0.24498839  0.63168752  1
  O  O237  1  0.49457060  0.74599496  0.13536198  1
  O  O238  1  0.49544521  0.74189759  0.63061507  1
  O  O239  1  1.00066332  0.25176680  0.13828749  1
  O  O240  1  0.98706084  0.23738716  0.61483789  1
  O  O241  1  0.98684511  0.75248383  0.12190487  1
  O  O242  1  1.00342789  0.75349913  0.64307844  1
  O  O243  1  0.00694925  0.25006250  0.37052894  1
  O  O244  1  0.00903661  0.25693485  0.87016064  1
  O  O245  1  0.00274410  0.76325267  0.38422838  1
  O  O246  1  0.01393651  0.75071928  0.86174396  1
  O  O247  1  0.51079541  0.24920795  0.36784196  1
  O  O248  1  0.50942834  0.25651829  0.87118510  1
  O  O249  1  0.49991353  0.74772870  0.36265508  1
  O  O250  1  0.50498649  0.76415346  0.86989701  1
  O  O251  1  0.24206747  0.13199709  0.49290378  1
  O  O252  1  0.23742245  0.12470512  0.99399458  1
  O  O253  1  0.24470981  0.63067129  0.49233284  1
  O  O254  1  0.26131505  0.60844457  0.98978952  1
  O  O255  1  0.74117071  0.13174138  0.49268237  1
  O  O256  1  0.74139332  0.14088473  0.99663238  1
  O  O257  1  0.75020558  0.63356781  0.49260054  1
  O  O258  1  0.74917637  0.63083286  0.99542069  1
  O  O259  1  0.25558687  0.37231367  0.01021081  1
  O  O260  1  0.25444386  0.36946630  0.51044553  1
  O  O261  1  0.26514401  0.88417813  0.00069820  1
  O  O262  1  0.24998663  0.86209684  0.49521041  1
  O  O263  1  0.75368251  0.36721686  0.00870263  1
  O  O264  1  0.74541950  0.36353626  0.49897053  1
  O  O265  1  0.75460989  0.86802905  0.00775875  1
  O  O266  1  0.75576561  0.87055324  0.50346990  1
  O  O267  1  0.12312640  0.49615967  0.24175086  1
  O  O268  1  0.13842143  0.51061501  0.74290448  1
  O  O269  1  0.12806749  0.99150736  0.24047435  1
  O  O270  1  0.12908603  0.99454353  0.74531336  1
  O  O271  1  0.63810805  0.50460971  0.24096181  1
  O  O272  1  0.63247208  0.49643613  0.74432427  1
  O  O273  1  0.63719954  0.99407035  0.25219101  1
  O  O274  1  0.62170640  0.98930259  0.74161558  1
  O  O275  1  0.36387628  -0.00237374  0.26005715  1
  O  O276  1  0.36797418  0.00721981  0.74824412  1
  O  O277  1  0.37482738  0.49923482  0.25903654  1
  O  O278  1  0.36322200  0.50807783  0.74787106  1
  O  O279  1  0.86432190  0.01190478  0.25252386  1
  O  O280  1  0.87476806  -0.00052971  0.75658747  1
  O  O281  1  0.86494477  0.51034593  0.24633210  1
  O  O282  1  0.85890935  0.51271681  0.74027956  1
  O  O283  1  0.12582014  0.36053341  0.37205570  1
  O  O284  1  0.12045338  0.36209501  0.86898037  1
  O  O285  1  0.11685460  0.87251688  0.36719581  1
  O  O286  1  0.12928762  0.86468609  0.86717284  1
  O  O287  1  0.62377688  0.36305067  0.37949123  1
  O  O288  1  0.61902908  0.36776529  0.87042539  1
  O  O289  1  0.62359932  0.87209955  0.36160424  1
  O  O290  1  0.62174144  0.87725435  0.86820494  1
  O  O291  1  0.36914228  0.13597476  0.11990401  1
  O  O292  1  0.37957908  0.13044953  0.63342213  1
  O  O293  1  0.38439665  0.63264421  0.13035919  1
  O  O294  1  0.38524381  0.62967821  0.63244145  1
  O  O295  1  0.86995149  0.12159774  0.14025174  1
  O  O296  1  0.87860060  0.12616422  0.62798578  1
  O  O297  1  0.87139252  0.63981364  0.13172328  1
  O  O298  1  0.86606125  0.63466304  0.64115080  1
  O  O299  1  0.25829624  0.25451004  0.12492858  1
  O  O300  1  0.25259651  0.25631874  0.62106455  1
  O  O301  1  0.26360621  0.75025998  0.12963170  1
  O  O302  1  0.26109455  0.74288463  0.61572024  1
  O  O303  1  0.74402363  0.26037503  0.11815914  1
  O  O304  1  0.75644331  0.24360373  0.61190503  1
  O  O305  1  0.75719001  0.75620536  0.11564246  1
  O  O306  1  0.74913251  0.76179664  0.61700969  1
  O  O307  1  0.24416228  0.24316112  0.37665968  1
  O  O308  1  0.23578479  0.24667688  0.87390410  1
  O  O309  1  0.24965755  0.74092589  0.38381927  1
  O  O310  1  0.23990677  0.75237755  0.87049397  1
  O  O311  1  0.73735827  0.24426310  0.38070236  1
  O  O312  1  0.73678354  0.25257125  0.88272837  1
  O  O313  1  0.74995515  0.74393603  0.38202890  1
  O  O314  1  0.74868521  0.74593476  0.88940845  1
  O  O315  1  -0.00384600  0.12953071  -0.00033402  1
  O  O316  1  0.00364218  0.11724529  0.50401585  1
  O  O317  1  -0.00286395  0.61418812  -0.00509328  1
  O  O318  1  0.00933519  0.61524869  0.49710930  1
  O  O319  1  0.50552779  0.11055630  -0.00350570  1
  O  O320  1  0.50849353  0.12520181  0.50542752  1
  O  O321  1  0.50569931  0.61910790  0.00559036  1
  O  O322  1  0.50143687  0.61584011  0.50946247  1
  O  O323  1  0.49358318  0.38815849  0.50739087  1
  O  O324  1  0.49077234  0.38073209  0.99746433  1
  O  O325  1  0.49650965  0.87830506  0.49476826  1
  O  O326  1  0.49850032  0.88620939  0.99541823  1
  O  O327  1  1.00119628  0.38928117  0.49995531  1
  O  O328  1  0.98583952  0.38019273  0.99761059  1
  O  O329  1  0.99221783  0.88122232  0.49714133  1
  O  O330  1  0.98698518  0.87094601  1.00084995  1
  O  O331  1  0.49299013  0.50480935  0.38578093  1
  O  O332  1  0.50611427  0.48989817  0.88251112  1
  O  O333  1  0.48930353  1.00327567  0.37212505  1
  O  O334  1  0.49754873  0.98992550  0.87668845  1
  O  O335  1  0.99821330  0.49567489  0.38543177  1
  O  O336  1  1.00602517  0.49702648  0.88987387  1
  O  O337  1  1.00817575  0.99149456  0.38868093  1
  O  O338  1  0.97964710  1.00126015  0.87538079  1
  O  O339  1  0.00295961  -0.00343071  0.12896217  1
  O  O340  1  0.00727660  0.00593908  0.61317763  1
  O  O341  1  0.00839009  0.49536340  0.11326915  1
  O  O342  1  0.01277485  0.49865376  0.62138194  1
  O  O343  1  0.49977158  -0.00327771  0.11555551  1
  O  O344  1  0.51159017  0.00691361  0.62228252  1
  O  O345  1  0.50692744  0.50227293  0.11989045  1
  O  O346  1  0.50700270  0.50713004  0.62161742  1
  O  O347  1  0.24611275  0.37335874  0.23779601  1
  O  O348  1  0.25803796  0.38385653  0.73708523  1
  O  O349  1  0.23908956  0.88417455  0.24964664  1
  O  O350  1  0.24250152  0.88785309  0.74939274  1
  O  O351  1  0.75696592  0.38456127  0.24102775  1
  O  O352  1  0.74458013  0.38742314  0.75727799  1
  O  O353  1  0.74650605  0.88183272  0.24684347  1
  O  O354  1  0.74325335  0.86897463  0.74008768  1
  O  O355  1  0.24169519  0.11651683  0.25876718  1
  O  O356  1  0.25873501  0.11564099  0.74972269  1
  O  O357  1  0.25177098  0.62267374  0.26614043  1
  O  O358  1  0.26405739  0.61825427  0.74751478  1
  O  O359  1  0.75665968  0.12043663  0.25604148  1
  O  O360  1  0.75417529  0.11481939  0.74726376  1
  O  O361  1  0.75643058  0.62041207  0.25583670  1
  O  O362  1  0.75243715  0.62380608  0.75965142  1
  O  O363  1  0.36126095  0.12068713  0.37862918  1
  O  O364  1  0.37768903  0.12575816  0.86120018  1
  O  O365  1  0.36839094  0.61201202  0.37687764  1
  O  O366  1  0.38121935  0.62458053  0.86870047  1
  O  O367  1  0.86065663  0.13112000  0.37049984  1
  O  O368  1  0.86951762  0.11645641  0.85953217  1
  O  O369  1  0.86479497  0.62477870  0.36713753  1
  O  O370  1  0.86264298  0.63191716  0.86615670  1
  O  O371  1  0.13096399  0.38213322  0.12372545  1
  O  O372  1  0.13355597  0.38410354  0.62323970  1
  O  O373  1  0.12447702  0.88382200  0.13139044  1
  O  O374  1  0.12362170  0.88854045  0.63103182  1
  O  O375  1  0.63285082  0.38667389  0.11817646  1
  O  O376  1  0.61984274  0.38498785  0.63608236  1
  O  O377  1  0.63513703  0.87008239  0.13779472  1
  O  O378  1  0.63100103  0.88246250  0.63110751  1
  O  O379  1  0.10957965  0.24714445  0.25533962  1
  O  O380  1  0.12375482  0.24823593  0.75756600  1
  O  O381  1  0.12818855  0.76333908  0.24985648  1
  O  O382  1  0.12478724  0.75726076  0.75605185  1
  O  O383  1  0.62555028  0.25293665  0.26384269  1
  O  O384  1  0.62209238  0.25346280  0.75722010  1
  O  O385  1  0.61783173  0.75663761  0.24996447  1
  O  O386  1  0.61839054  0.76320345  0.75031251  1
  O  O387  1  0.38020025  0.25013405  0.23721930  1
  O  O388  1  0.37933760  0.24375168  0.74464759  1
  O  O389  1  0.38330646  0.75028600  0.24352190  1
  O  O390  1  0.37993147  0.74385650  0.74434009  1
  O  O391  1  0.88407522  0.23761059  0.25368765  1
  O  O392  1  0.85857109  0.23269443  0.73350805  1
  O  O393  1  0.87075809  0.74550053  0.23501348  1
  O  O394  1  0.88497146  0.74653183  0.75150977  1
  O  O395  1  0.38197793  0.49577404  0.49605184  1
  O  O396  1  0.37595275  0.49537528  0.99346106  1
  O  O397  1  0.37329564  0.99982135  0.48687825  1
  O  O398  1  0.38792609  0.99426569  0.99969484  1
  O  O399  1  0.88401717  0.50229511  0.50253485  1
  O  O400  1  0.88845604  0.49409283  1.00725623  1
  O  O401  1  0.88345903  0.99179940  0.50281862  1
  O  O402  1  0.87497553  0.98379589  0.99642300  1
  O  O403  1  0.12400317  -0.00439501  0.01730067  1
  O  O404  1  0.12137543  0.00460685  0.50667989  1
  O  O405  1  0.11266205  0.50260595  0.00661264  1
  O  O406  1  0.12026513  0.50671431  0.50829417  1
  O  O407  1  0.61222499  0.00736929  -0.00261230  1
  O  O408  1  0.62347750  0.00949485  0.50530653  1
  O  O409  1  0.62145501  0.50509964  0.00731369  1
  O  O410  1  0.61853019  0.50192181  0.50840729  1
  O  O411  1  0.36643790  0.37217582  0.11342751  1
  O  O412  1  0.36809328  0.36912917  0.61961043  1
  O  O413  1  0.37371948  0.86755066  0.11865690  1
  O  O414  1  0.38051850  0.86258479  0.62535060  1
  O  O415  1  0.86244108  0.37950518  0.11265270  1
  O  O416  1  0.87454626  0.36095565  0.61774586  1
  O  O417  1  0.86968867  0.86603742  0.11708415  1
  O  O418  1  0.86757898  0.87410371  0.61536674  1
  O  O419  1  0.13119629  0.13378939  0.37896979  1
  O  O420  1  0.11979514  0.13688913  0.87165000  1
  O  O421  1  0.13274720  0.62551407  0.38678937  1
  O  O422  1  0.12950786  0.64133892  0.87808171  1
  O  O423  1  0.63095382  0.13138162  0.38387566  1
  O  O424  1  0.62772467  0.13213725  0.88188703  1
  O  O425  1  0.63794967  0.62739036  0.37667842  1
  O  O426  1  0.63482040  0.63016995  0.88216637  1
