# generated using pymatgen
data_V85Zn86O256
_symmetry_space_group_name_H-M   'P 1'
_cell_length_a   16.95945125
_cell_length_b   16.97131675
_cell_length_c   16.96011233
_cell_angle_alpha   90.05772642
_cell_angle_beta   89.88012736
_cell_angle_gamma   89.95528694
_symmetry_Int_Tables_number   1
_chemical_formula_structural   V85Zn86O256
_chemical_formula_sum   'V85 Zn86 O256'
_cell_volume   4881.51642968
_cell_formula_units_Z   1
loop_
 _symmetry_equiv_pos_site_id
 _symmetry_equiv_pos_as_xyz
  1  'x, y, z'
loop_
 _atom_site_type_symbol
 _atom_site_label
 _atom_site_symmetry_multiplicity
 _atom_site_fract_x
 _atom_site_fract_y
 _atom_site_fract_z
 _atom_site_occupancy
  V  V0  1  0.50275305  0.87474877  0.36924175  1
  V  V1  1  0.37207440  0.12067803  0.25160090  1
  V  V2  1  0.13737521  0.75150365  0.35902614  1
  V  V3  1  0.12774751  0.63851066  0.50023107  1
  V  V4  1  0.37406777  0.86790505  0.00258118  1
  V  V5  1  0.36702809  -0.00202783  0.37265720  1
  V  V6  1  0.87574772  0.88053228  0.49565949  1
  V  V7  1  0.24467164  0.24671908  0.00063291  1
  V  V8  1  0.87132886  0.12413436  0.75389811  1
  V  V9  1  0.75158563  0.63265694  0.87526540  1
  V  V10  1  0.86932837  0.00797693  0.88147441  1
  V  V11  1  0.86893548  0.24435382  0.13458483  1
  V  V12  1  0.50338861  -0.00689489  -0.00050044  1
  V  V13  1  0.74434673  0.50112941  0.74818852  1
  V  V14  1  0.62593436  0.37574637  0.76164860  1
  V  V15  1  0.74860063  0.87478745  0.12704358  1
  V  V16  1  0.25029614  0.00020109  0.74811997  1
  V  V17  1  0.37733488  0.75478794  0.63498161  1
  V  V18  1  0.45395649  0.29959931  0.80492521  1
  V  V19  1  -0.00218956  0.24879105  0.75185520  1
  V  V20  1  0.87780690  0.87713815  0.00156039  1
  V  V21  1  0.12752999  0.38066697  0.74542116  1
  V  V22  1  -0.00282409  0.37420989  0.87456478  1
  V  V23  1  0.62689749  0.63791655  0.48299988  1
  V  V24  1  0.76395704  0.12578741  0.38067055  1
  V  V25  1  0.74891052  0.87876820  0.62410014  1
  V  V26  1  0.50063601  0.25724515  0.25096804  1
  V  V27  1  -0.00134565  0.75186550  0.74917074  1
  V  V28  1  0.00818829  0.87648003  0.36848886  1
  V  V29  1  0.86984593  0.75023140  0.62132440  1
  V  V30  1  0.62356361  -0.00473596  0.13791673  1
  V  V31  1  0.74867366  0.24840201  0.00233911  1
  V  V32  1  0.75202447  0.37414884  0.62476259  1
  V  V33  1  0.23795345  0.36814203  0.12995160  1
  V  V34  1  0.37633011  0.86333081  0.49610414  1
  V  V35  1  0.67193891  0.81947288  0.30719053  1
  V  V36  1  0.36697580  0.25053370  0.62100737  1
  V  V37  1  0.63174566  0.11864051  -0.00070654  1
  V  V38  1  0.50387316  0.00369944  0.49690299  1
  V  V39  1  0.62435963  0.00313355  0.62491586  1
  V  V40  1  0.12555412  0.25891276  0.37258790  1
  V  V41  1  -0.00115480  0.87970566  0.87156046  1
  V  V42  1  0.12411387  0.50475805  0.62853507  1
  V  V43  1  0.74794933  0.00249982  0.75659549  1
  V  V44  1  0.74850430  0.49695873  0.26224777  1
  V  V45  1  0.87751297  0.74959586  0.12160441  1
  V  V46  1  0.01941679  0.00350030  -0.00144537  1
  V  V47  1  0.24908091  0.87365197  0.61041346  1
  V  V48  1  0.12135424  0.24614092  0.87934867  1
  V  V49  1  0.38248717  0.12134293  0.75234292  1
  V  V50  1  0.12736052  0.87371915  0.74839387  1
  V  V51  1  0.86643453  0.37371282  0.00651630  1
  V  V52  1  0.26380930  0.49461051  0.25245260  1
  V  V53  1  0.87655047  0.37563062  0.49973957  1
  V  V54  1  0.61952978  0.24290620  0.38334738  1
  V  V55  1  0.12614605  0.00368782  0.62052980  1
  V  V56  1  0.24603705  0.12661444  0.37820239  1
  V  V57  1  0.87247033  0.50154764  0.87509845  1
  V  V58  1  -0.00029688  0.12758702  0.62508826  1
  V  V59  1  -0.00065398  0.25258948  0.24960890  1
  V  V60  1  0.50253985  0.12687065  0.62394035  1
  V  V61  1  0.24823711  0.88198939  0.13686724  1
  V  V62  1  0.76277912  0.00961784  0.25276723  1
  V  V63  1  0.38028555  -0.00791429  0.87763121  1
  V  V64  1  0.61193145  0.87443171  0.75438046  1
  V  V65  1  0.63159458  0.24156899  0.87189871  1
  V  V66  1  0.24662920  0.12007069  0.87976802  1
  V  V67  1  0.87416821  0.62535161  0.74984046  1
  V  V68  1  0.50262879  0.74754333  0.25447814  1
  V  V69  1  0.87561348  0.25013611  0.62657896  1
  V  V70  1  0.51589642  0.64256200  0.63317363  1
  V  V71  1  0.37155882  0.74319002  0.12514270  1
  V  V72  1  0.37384988  0.24576577  0.12371210  1
  V  V73  1  0.60545112  0.47166853  0.58998998  1
  V  V74  1  0.36629705  0.61700179  0.74860495  1
  V  V75  1  0.63466457  0.49101794  0.12022072  1
  V  V76  1  0.00530787  0.12553715  0.12438970  1
  V  V77  1  0.11849578  0.49194016  0.13986458  1
  V  V78  1  -0.00158569  0.00389688  0.49199114  1
  V  V79  1  0.00054689  0.49779133  0.00150371  1
  V  V80  1  0.60637491  0.75278974  0.87463568  1
  V  V81  1  0.50436733  0.62249946  0.12161278  1
  V  V82  1  -0.00226847  0.50420061  0.49857443  1
  V  V83  1  0.87010313  0.62658962  0.25951289  1
  V  V84  1  -0.00144474  0.62171892  0.12831366  1
  Zn  Zn85  1  0.74603526  0.24424266  0.50394574  1
  Zn  Zn86  1  0.50059756  0.12140708  0.12825797  1
  Zn  Zn87  1  0.15461408  0.72738767  0.87469863  1
  Zn  Zn88  1  0.63295450  0.36843380  0.24830889  1
  Zn  Zn89  1  -0.00202241  0.38104863  0.36694341  1
  Zn  Zn90  1  0.00783535  0.75195116  0.24575078  1
  Zn  Zn91  1  0.75046860  0.75182100  0.47944055  1
  Zn  Zn92  1  0.12888693  0.00087960  0.13639040  1
  Zn  Zn93  1  0.74791195  0.75093846  -0.00143827  1
  Zn  Zn94  1  0.39733113  0.47969785  0.42284000  1
  Zn  Zn95  1  0.29488399  0.30853343  0.46079512  1
  Zn  Zn96  1  0.86814746  0.50850865  0.38262573  1
  Zn  Zn97  1  0.27797242  0.40868671  0.60085662  1
  Zn  Zn98  1  0.37054181  0.50788005  0.87817215  1
  Zn  Zn99  1  0.62418978  0.62333402  -0.00385667  1
  Zn  Zn100  1  0.38494209  0.61276660  0.26298775  1
  Zn  Zn101  1  0.13171946  0.12937131  0.50160415  1
  Zn  Zn102  1  0.50138818  0.48915051  -0.01208490  1
  Zn  Zn103  1  0.14416196  0.62252869  -0.00597594  1
  Zn  Zn104  1  -0.00475144  0.62923582  0.62234146  1
  Zn  Zn105  1  0.25973297  0.62224605  0.37821206  1
  Zn  Zn106  1  0.37528872  0.37366971  -0.00575917  1
  Zn  Zn107  1  0.18435705  0.18092181  0.19421755  1
  Zn  Zn108  1  0.18769185  0.18779255  0.69599497  1
  Zn  Zn109  1  0.20820768  0.66473660  0.15809703  1
  Zn  Zn110  1  0.18835843  0.69268507  0.68120217  1
  Zn  Zn111  1  0.68626738  0.18221246  0.18821905  1
  Zn  Zn112  1  0.68768230  0.18550227  0.68953299  1
  Zn  Zn113  1  0.69241666  0.67937621  0.18106594  1
  Zn  Zn114  1  0.69072403  0.69605171  0.69377677  1
  Zn  Zn115  1  0.31992605  0.32195837  0.30262246  1
  Zn  Zn116  1  0.28093094  0.35198469  0.82928144  1
  Zn  Zn117  1  0.31801976  0.80605886  0.30863395  1
  Zn  Zn118  1  0.31469869  0.81528094  0.80940704  1
  Zn  Zn119  1  0.80672410  0.31557866  0.31676916  1
  Zn  Zn120  1  0.80978273  0.31125072  0.81772593  1
  Zn  Zn121  1  0.83627804  0.82354224  0.30459087  1
  Zn  Zn122  1  0.81236026  0.81741950  0.81063477  1
  Zn  Zn123  1  0.18372154  0.44372175  0.43549366  1
  Zn  Zn124  1  0.18682344  0.44416126  0.94106992  1
  Zn  Zn125  1  0.18535436  0.94038293  0.31184338  1
  Zn  Zn126  1  0.19876636  0.90932885  0.92954994  1
  Zn  Zn127  1  0.57617624  0.42816851  0.42672711  1
  Zn  Zn128  1  0.68797432  0.43702996  0.93691226  1
  Zn  Zn129  1  0.69196344  0.94893995  0.44100853  1
  Zn  Zn130  1  0.68781601  0.93151343  0.93925400  1
  Zn  Zn131  1  0.30978656  0.05906466  0.06185912  1
  Zn  Zn132  1  0.31599293  0.06116586  0.55794995  1
  Zn  Zn133  1  0.31497487  0.55805983  0.06067675  1
  Zn  Zn134  1  0.30988768  0.57863389  0.56604318  1
  Zn  Zn135  1  0.81340573  0.06395932  0.06592871  1
  Zn  Zn136  1  0.81335565  0.06313358  0.56293577  1
  Zn  Zn137  1  0.81157335  0.56505427  0.06130217  1
  Zn  Zn138  1  0.79879972  0.56294566  0.55981802  1
  Zn  Zn139  1  0.44796244  0.42338005  0.15401908  1
  Zn  Zn140  1  0.42711727  0.46000614  0.63360369  1
  Zn  Zn141  1  0.43819384  0.93522220  0.18890874  1
  Zn  Zn142  1  0.43685687  0.93905376  0.68453640  1
  Zn  Zn143  1  0.92737438  0.43388580  0.18929737  1
  Zn  Zn144  1  0.94201380  0.44005763  0.68561499  1
  Zn  Zn145  1  0.94362062  0.94045414  0.18560326  1
  Zn  Zn146  1  0.93508699  0.94036409  0.68480331  1
  Zn  Zn147  1  0.05608362  0.07214956  0.30794491  1
  Zn  Zn148  1  0.06241577  0.06121543  0.81173390  1
  Zn  Zn149  1  0.06023180  0.56708866  0.31604431  1
  Zn  Zn150  1  0.06364940  0.56693763  0.81575691  1
  Zn  Zn151  1  0.56191076  0.06822853  0.31367734  1
  Zn  Zn152  1  0.56286375  0.06134040  0.81559974  1
  Zn  Zn153  1  0.55977704  0.55815586  0.31003286  1
  Zn  Zn154  1  0.55269548  0.56277310  0.81075922  1
  Zn  Zn155  1  0.43933427  0.18576085  0.43789683  1
  Zn  Zn156  1  0.43687034  0.17677604  0.94558573  1
  Zn  Zn157  1  0.44361500  0.67760338  0.43855262  1
  Zn  Zn158  1  0.43243805  0.67953902  0.93760293  1
  Zn  Zn159  1  0.94064834  0.19247568  0.43907745  1
  Zn  Zn160  1  0.93651616  0.18378455  0.94392008  1
  Zn  Zn161  1  0.94255025  0.69420303  0.43568967  1
  Zn  Zn162  1  0.97422562  0.70150111  0.95139270  1
  Zn  Zn163  1  0.05793121  0.31000995  0.06116887  1
  Zn  Zn164  1  0.09475499  0.33002568  0.54380961  1
  Zn  Zn165  1  0.07186540  0.80812289  0.05769136  1
  Zn  Zn166  1  0.06047946  0.81580395  0.56066365  1
  Zn  Zn167  1  0.56275973  0.30921433  0.06274499  1
  Zn  Zn168  1  0.56476797  0.29916600  0.57175032  1
  Zn  Zn169  1  0.56213639  0.81141688  0.06339001  1
  Zn  Zn170  1  0.56582535  0.81408072  0.55786506  1
  O  O171  1  0.11118094  0.12340650  0.12687408  1
  O  O172  1  0.11820550  0.12135647  0.62680982  1
  O  O173  1  0.10535658  0.61175368  0.12784247  1
  O  O174  1  0.11787657  0.62723033  0.61430323  1
  O  O175  1  0.62413208  0.11234310  0.11753109  1
  O  O176  1  0.61432722  0.11748575  0.63292010  1
  O  O177  1  0.62084719  0.61708535  0.11813454  1
  O  O178  1  0.61866875  0.63920575  0.62648204  1
  O  O179  1  0.35595309  0.37498859  0.39246032  1
  O  O180  1  0.39123437  0.34881306  0.86873998  1
  O  O181  1  0.38169773  0.87975954  0.37928195  1
  O  O182  1  0.37568248  0.88641457  0.88507395  1
  O  O183  1  0.87318502  0.37640627  0.39140274  1
  O  O184  1  0.87825837  0.37999053  0.88441232  1
  O  O185  1  0.88974423  0.87541556  0.38908964  1
  O  O186  1  0.88261995  0.88782425  0.87708173  1
  O  O187  1  0.26240756  0.00488371  0.37271452  1
  O  O188  1  0.25670317  0.00480778  0.87136141  1
  O  O189  1  0.24101837  0.50133100  0.35622503  1
  O  O190  1  0.26716117  0.45844160  0.86778335  1
  O  O191  1  0.74627003  0.01393537  0.36358758  1
  O  O192  1  0.75775814  -0.00601480  0.86863389  1
  O  O193  1  0.74972112  0.50270077  0.36065742  1
  O  O194  1  0.75364056  0.51072290  0.87002323  1
  O  O195  1  0.23781837  0.48565217  0.13466033  1
  O  O196  1  0.22684299  0.50994979  0.62729609  1
  O  O197  1  0.24877516  0.98736557  0.12728015  1
  O  O198  1  0.24247956  0.99943531  0.62673562  1
  O  O199  1  0.73745913  0.50531744  0.12763770  1
  O  O200  1  0.73354494  0.48928837  0.62909336  1
  O  O201  1  0.74616065  0.99681484  0.13786756  1
  O  O202  1  0.74408357  0.99684719  0.63169024  1
  O  O203  1  -0.00985736  0.35987871  0.24985447  1
  O  O204  1  -0.00181359  0.36588157  0.75777145  1
  O  O205  1  -0.00809528  0.87333040  0.26501263  1
  O  O206  1  0.00214577  0.87224417  0.75192548  1
  O  O207  1  0.50046385  0.35890048  0.24026455  1
  O  O208  1  0.51057355  0.36358019  0.75002599  1
  O  O209  1  0.50099197  0.86849108  0.26166864  1
  O  O210  1  0.51305299  0.88451131  0.74901010  1
  O  O211  1  0.48758763  0.13249664  0.24927680  1
  O  O212  1  0.48833465  0.11243609  0.74260583  1
  O  O213  1  0.50377689  0.63303077  0.24149841  1
  O  O214  1  0.49358143  0.63334957  0.73595364  1
  O  O215  1  0.99198042  0.13956851  0.23912064  1
  O  O216  1  0.99251363  0.12826966  0.74470161  1
  O  O217  1  0.98856301  0.62439025  0.24320416  1
  O  O218  1  0.99208905  0.63642732  0.74844970  1
  O  O219  1  0.36533563  0.24549307  0.00811792  1
  O  O220  1  0.37502661  0.24427996  0.51597557  1
  O  O221  1  0.38545121  0.75791624  0.01073026  1
  O  O222  1  0.38387337  0.76103711  0.50541493  1
  O  O223  1  0.86566052  0.25473977  0.00425985  1
  O  O224  1  0.87501042  0.25899895  0.50972869  1
  O  O225  1  0.88289430  0.75625376  0.01059510  1
  O  O226  1  0.87212632  0.75877074  0.50545414  1
  O  O227  1  0.11013834  0.24088089  0.47830765  1
  O  O228  1  0.12823011  0.25154424  0.98720583  1
  O  O229  1  0.11927471  0.74090217  0.49466998  1
  O  O230  1  0.08795146  0.73067008  0.97865452  1
  O  O231  1  0.62553846  0.24660384  0.48783825  1
  O  O232  1  0.62956976  0.24130047  0.99591446  1
  O  O233  1  0.63105505  0.74458774  0.49471321  1
  O  O234  1  0.62660615  0.75110667  0.98545174  1
  O  O235  1  0.48904336  0.24124924  0.13116559  1
  O  O236  1  0.49019348  0.23288661  0.62490163  1
  O  O237  1  0.49653163  0.74535543  0.13513335  1
  O  O238  1  0.49548140  0.74873783  0.62397986  1
  O  O239  1  0.99212264  0.24344901  0.12796009  1
  O  O240  1  0.99566191  0.23691718  0.63073232  1
  O  O241  1  0.99649570  0.74003243  0.12660082  1
  O  O242  1  0.98774622  0.75430607  0.63290679  1
  O  O243  1  0.00514936  0.25154009  0.36476928  1
  O  O244  1  0.00409891  0.25150220  0.87404657  1
  O  O245  1  0.01308568  0.76016125  0.37098689  1
  O  O246  1  -0.01417413  0.76574481  0.85635388  1
  O  O247  1  0.51125754  0.24249866  0.36838514  1
  O  O248  1  0.50740078  0.24053343  0.87149020  1
  O  O249  1  0.49813752  0.75723878  0.36287962  1
  O  O250  1  0.50878175  0.74756944  0.87700628  1
  O  O251  1  0.25101519  0.12038922  0.48418148  1
  O  O252  1  0.25312912  0.13172116  0.98812968  1
  O  O253  1  0.23139701  0.62429376  0.49648350  1
  O  O254  1  0.24112847  0.63812832  1.04921127  1
  O  O255  1  0.75254495  0.12320994  0.48623040  1
  O  O256  1  0.73799321  0.12739511  1.00278793  1
  O  O257  1  0.73426224  0.63649460  0.50209563  1
  O  O258  1  0.74827903  0.62927440  0.98855985  1
  O  O259  1  0.25040396  0.35815537  0.00951096  1
  O  O260  1  0.21345247  0.36703143  0.51627248  1
  O  O261  1  0.26977058  0.88124047  0.01796695  1
  O  O262  1  0.26357068  0.88400036  0.50950251  1
  O  O263  1  0.75671214  0.36363825  -0.00366851  1
  O  O264  1  0.75899562  0.36958263  0.51886184  1
  O  O265  1  0.76096086  0.87222093  0.00748867  1
  O  O266  1  0.75962622  0.87724250  0.50356691  1
  O  O267  1  0.12194143  0.50038907  0.24134053  1
  O  O268  1  0.10815871  0.49146865  0.74096083  1
  O  O269  1  0.11449600  0.99747086  0.24921750  1
  O  O270  1  0.12891316  0.99630441  0.73818805  1
  O  O271  1  0.63807498  0.49934442  0.24124138  1
  O  O272  1  0.63211897  0.48812229  0.75960077  1
  O  O273  1  0.63191127  1.00520489  0.24099554  1
  O  O274  1  0.63236867  0.99461146  0.74896991  1
  O  O275  1  0.38428029  0.00845775  0.26097731  1
  O  O276  1  0.37026586  0.00320476  0.75765073  1
  O  O277  1  0.36418115  0.49044306  0.23962491  1
  O  O278  1  0.37751957  0.51767766  0.73285477  1
  O  O279  1  0.86051888  -0.00565592  0.24810336  1
  O  O280  1  0.86772496  0.00354112  0.75859703  1
  O  O281  1  0.86487361  0.50828371  0.25220000  1
  O  O282  1  0.86700467  0.50483328  0.75290662  1
  O  O283  1  0.11917253  0.36189033  0.37526654  1
  O  O284  1  0.11495258  0.36729925  0.86675249  1
  O  O285  1  0.12402865  0.85965517  0.37419176  1
  O  O286  1  0.10371545  0.89354769  0.86179048  1
  O  O287  1  0.63352812  0.34923680  0.36704620  1
  O  O288  1  0.62940127  0.36273323  0.86826022  1
  O  O289  1  0.61921786  0.88176744  0.37533212  1
  O  O290  1  0.62795282  0.86197423  0.86911266  1
  O  O291  1  0.37060695  0.13083026  0.13284259  1
  O  O292  1  0.38043845  0.12725559  0.63444411  1
  O  O293  1  0.38859125  0.63076662  0.13119482  1
  O  O294  1  0.38812124  0.63996415  0.62754697  1
  O  O295  1  0.88684647  0.13589256  0.11640481  1
  O  O296  1  0.88130136  0.12859667  0.63289232  1
  O  O297  1  0.88156938  0.63123030  0.13020657  1
  O  O298  1  0.87052689  0.63523818  0.62925706  1
  O  O299  1  0.24794327  0.24811455  0.11946451  1
  O  O300  1  0.26820731  0.23648264  0.63040876  1
  O  O301  1  0.26957576  0.76433283  0.14042830  1
  O  O302  1  0.26130626  0.76300000  0.62267515  1
  O  O303  1  0.75541402  0.24095398  0.11358806  1
  O  O304  1  0.75733716  0.25457499  0.62670714  1
  O  O305  1  0.76051421  0.75503048  0.12167815  1
  O  O306  1  0.76114905  0.76166875  0.62765769  1
  O  O307  1  0.23753060  0.24521284  0.37319208  1
  O  O308  1  0.24067152  0.24683194  0.88185804  1
  O  O309  1  0.24120377  0.74448679  0.36985858  1
  O  O310  1  0.23011792  0.80599929  0.87936105  1
  O  O311  1  0.74421371  0.23708828  0.37636334  1
  O  O312  1  0.74333163  0.24643559  0.88944107  1
  O  O313  1  0.74672093  0.76986998  0.36123776  1
  O  O314  1  0.75400436  0.74031763  0.87404033  1
  O  O315  1  0.00136617  0.11333886  0.00646161  1
  O  O316  1  -0.00238115  0.11827553  0.50920294  1
  O  O317  1  -0.01395917  0.60397083  0.01131011  1
  O  O318  1  0.00724692  0.62230965  0.49961602  1
  O  O319  1  0.51065105  0.11135765  0.00585707  1
  O  O320  1  0.49451326  0.11368798  0.50909967  1
  O  O321  1  0.50225496  0.62291048  0.01249998  1
  O  O322  1  0.51823038  0.63269662  0.51561518  1
  O  O323  1  0.53803678  0.40193137  0.53376546  1
  O  O324  1  0.48390279  0.38312421  1.03675068  1
  O  O325  1  0.49532599  0.88037808  0.48777338  1
  O  O326  1  0.49129356  0.88663979  1.00781515  1
  O  O327  1  0.99253534  0.38705329  0.49908062  1
  O  O328  1  0.99113128  0.38245744  0.99524170  1
  O  O329  1  0.99640840  0.88392711  0.49251649  1
  O  O330  1  0.99647637  0.88329922  0.99035073  1
  O  O331  1  0.50138972  0.49207912  0.37696258  1
  O  O332  1  0.48731078  0.50236348  0.87616103  1
  O  O333  1  0.49531672  0.99479945  0.37989960  1
  O  O334  1  0.49190717  1.00374366  0.88644973  1
  O  O335  1  0.99399751  0.50055801  0.38575538  1
  O  O336  1  0.99173166  0.49546058  0.88392168  1
  O  O337  1  1.00823958  0.99616205  0.38799261  1
  O  O338  1  0.99071876  0.99930938  0.88176341  1
  O  O339  1  0.00246892  0.00612523  0.11404260  1
  O  O340  1  0.00521623  0.01104325  0.62241670  1
  O  O341  1  0.00078609  0.49908693  0.12149356  1
  O  O342  1  0.00059709  0.50967459  0.61312768  1
  O  O343  1  0.50911236  -0.00066070  0.12119967  1
  O  O344  1  0.50254520  0.00708185  0.61609177  1
  O  O345  1  0.51886328  0.51152130  0.13279893  1
  O  O346  1  0.52265614  0.52193775  0.63468181  1
  O  O347  1  0.24321191  0.38257779  0.24134070  1
  O  O348  1  0.22640278  0.36398166  0.72860698  1
  O  O349  1  0.25892561  0.88003125  0.24178075  1
  O  O350  1  0.24787831  0.88594565  0.73259797  1
  O  O351  1  0.75398016  0.39175479  0.24822411  1
  O  O352  1  0.74600352  0.37957253  0.74576545  1
  O  O353  1  0.74491657  0.88333219  0.24959898  1
  O  O354  1  0.74527181  0.88703085  0.74410389  1
  O  O355  1  0.26338428  0.12846315  0.26184652  1
  O  O356  1  0.26160766  0.11991069  0.76097689  1
  O  O357  1  0.25664711  0.60511080  0.24675875  1
  O  O358  1  0.26778012  0.63344894  0.73754259  1
  O  O359  1  0.75395698  0.11482928  0.25654943  1
  O  O360  1  0.75549875  0.11047822  0.74756190  1
  O  O361  1  0.76086796  0.61318173  0.24354481  1
  O  O362  1  0.75423191  0.62038100  0.75545212  1
  O  O363  1  0.37007915  0.11797284  0.37039582  1
  O  O364  1  0.36972743  0.11463787  0.87021964  1
  O  O365  1  0.37570986  0.60657394  0.38203070  1
  O  O366  1  0.37264226  0.62807689  0.85500782  1
  O  O367  1  0.86298077  0.13060601  0.37645004  1
  O  O368  1  0.87625617  0.11407148  0.87220470  1
  O  O369  1  0.87745676  0.63060812  0.36321328  1
  O  O370  1  0.86771120  0.61866394  0.86721213  1
  O  O371  1  0.13004862  0.37672890  0.12152244  1
  O  O372  1  0.10180486  0.39214420  0.63592162  1
  O  O373  1  0.14610996  0.86888917  0.12030727  1
  O  O374  1  0.13147107  0.88248811  0.62664223  1
  O  O375  1  0.62680435  0.38789581  0.12794409  1
  O  O376  1  0.63588132  0.36984576  0.64233854  1
  O  O377  1  0.63532786  0.88446817  0.11870538  1
  O  O378  1  0.62986844  0.88174919  0.63274105  1
  O  O379  1  0.11404306  0.24506793  0.26220507  1
  O  O380  1  0.11568773  0.25468664  0.75959001  1
  O  O381  1  0.12755801  0.74014601  0.25964223  1
  O  O382  1  0.11498545  0.75675774  0.74906094  1
  O  O383  1  0.61611680  0.24681292  0.25275791  1
  O  O384  1  0.63345957  0.25370417  0.76527697  1
  O  O385  1  0.62227893  0.75165284  0.24366786  1
  O  O386  1  0.62856662  0.76164127  0.76504320  1
  O  O387  1  0.38073185  0.24186497  0.24423514  1
  O  O388  1  0.38800309  0.23938348  0.74787603  1
  O  O389  1  0.38824448  0.74173077  0.24461596  1
  O  O390  1  0.37740823  0.75320758  0.73847971  1
  O  O391  1  0.87315234  0.25493599  0.23767365  1
  O  O392  1  0.87788778  0.24405507  0.74808562  1
  O  O393  1  0.88014852  0.74289632  0.23650138  1
  O  O394  1  0.87856472  0.74833784  0.74015422  1
  O  O395  1  0.36312274  0.48280691  0.53810998  1
  O  O396  1  0.37649936  0.49188232  0.99868469  1
  O  O397  1  0.38611978  0.99023468  0.49185697  1
  O  O398  1  0.38416717  0.99590603  0.99525856  1
  O  O399  1  0.87708032  0.49575633  0.50240149  1
  O  O400  1  0.87615256  0.48945934  0.99727864  1
  O  O401  1  0.88693675  0.99192736  0.50874583  1
  O  O402  1  0.87818966  0.99546771  0.99431622  1
  O  O403  1  0.11884988  -0.01041771  -0.00073481  1
  O  O404  1  0.11403716  0.00673867  0.51547282  1
  O  O405  1  0.11442268  0.49805779  0.01176785  1
  O  O406  1  0.11340875  0.51316535  0.50471891  1
  O  O407  1  0.62130710  0.00243209  0.00510788  1
  O  O408  1  0.61184810  -0.00404664  0.50793624  1
  O  O409  1  0.62396158  0.49974134  0.00918891  1
  O  O410  1  0.63605075  0.51768052  0.50272210  1
  O  O411  1  0.35512246  0.35430879  0.13030469  1
  O  O412  1  0.37496096  0.35378034  0.63863062  1
  O  O413  1  0.37132012  0.86884662  0.12200112  1
  O  O414  1  0.37165875  0.87234589  0.61626169  1
  O  O415  1  0.87709622  0.36294921  0.11149660  1
  O  O416  1  0.87094430  0.37180761  0.62075405  1
  O  O417  1  0.87202344  0.86756358  0.12323742  1
  O  O418  1  0.87112591  0.87079982  0.61523733  1
  O  O419  1  0.13294438  0.13259776  0.37411397  1
  O  O420  1  0.13529754  0.13283069  0.86634185  1
  O  O421  1  0.12440478  0.63825108  0.38409392  1
  O  O422  1  0.13764556  0.61735665  0.87921037  1
  O  O423  1  0.63664312  0.13745056  0.36867331  1
  O  O424  1  0.62336200  0.13092815  0.88448359  1
  O  O425  1  0.61856890  0.62890321  0.38518965  1
  O  O426  1  0.63150623  0.63940116  0.87210314  1
