# generated using pymatgen
data_V85Zn86O256
_symmetry_space_group_name_H-M   'P 1'
_cell_length_a   16.93707924
_cell_length_b   16.93380810
_cell_length_c   16.92930106
_cell_angle_alpha   89.98273284
_cell_angle_beta   89.93114781
_cell_angle_gamma   90.06833911
_symmetry_Int_Tables_number   1
_chemical_formula_structural   V85Zn86O256
_chemical_formula_sum   'V85 Zn86 O256'
_cell_volume   4855.47295349
_cell_formula_units_Z   1
loop_
 _symmetry_equiv_pos_site_id
 _symmetry_equiv_pos_as_xyz
  1  'x, y, z'
loop_
 _atom_site_type_symbol
 _atom_site_label
 _atom_site_symmetry_multiplicity
 _atom_site_fract_x
 _atom_site_fract_y
 _atom_site_fract_z
 _atom_site_occupancy
  V  V0  1  0.49929192  0.25144939  0.74819236  1
  V  V1  1  0.51272687  0.25266177  0.25249211  1
  V  V2  1  0.12743418  0.25151010  0.37843066  1
  V  V3  1  0.24715154  0.37559156  0.61768624  1
  V  V4  1  0.87407286  0.00221218  0.87671880  1
  V  V5  1  -0.00116692  0.37739967  0.37382968  1
  V  V6  1  0.25556753  0.87759731  0.62974195  1
  V  V7  1  0.37298748  0.87125151  0.00743442  1
  V  V8  1  0.37537355  0.37495838  0.49578387  1
  V  V9  1  0.37157379  0.25271798  0.12809475  1
  V  V10  1  0.50452655  0.12688341  0.61513019  1
  V  V11  1  0.87479800  0.74937386  0.12725750  1
  V  V12  1  0.12643942  0.37740627  0.74868366  1
  V  V13  1  0.49731542  0.87134291  0.87475392  1
  V  V14  1  0.37062458  -0.00211109  0.87180380  1
  V  V15  1  0.37045436  0.49744287  0.87177814  1
  V  V16  1  -0.01404309  0.87599998  0.37726966  1
  V  V17  1  0.24704872  0.74912004  0.00095081  1
  V  V18  1  0.51262102  0.37326723  0.37085281  1
  V  V19  1  0.37129546  0.12095367  0.74660923  1
  V  V20  1  0.49837568  0.37569346  0.87506390  1
  V  V21  1  0.87280208  0.12993284  0.75070331  1
  V  V22  1  -0.05733895  0.44350995  0.55043320  1
  V  V23  1  0.74563764  0.00156643  0.74993352  1
  V  V24  1  0.37519372  0.12188965  0.24871422  1
  V  V25  1  0.11959675  0.86678624  0.74894086  1
  V  V26  1  0.25025860  0.12171111  0.87245604  1
  V  V27  1  0.12672838  0.75966749  0.37488659  1
  V  V28  1  0.50208586  0.50921460  0.49660922  1
  V  V29  1  0.62482948  0.76252769  0.36629548  1
  V  V30  1  0.12493012  0.61140320  0.49872029  1
  V  V31  1  0.48917224  0.51046629  0.00633419  1
  V  V32  1  0.73290288  0.13230601  0.38643710  1
  V  V33  1  0.37118644  0.25144738  0.62012951  1
  V  V34  1  0.50931739  0.12653493  0.12200566  1
  V  V35  1  0.75402660  0.62728511  0.87140911  1
  V  V36  1  0.14481071  0.49508253  0.12665927  1
  V  V37  1  0.74433112  0.12592700  0.88655370  1
  V  V38  1  0.37829021  0.62748438  0.74728656  1
  V  V39  1  0.62791172  0.62049667  0.00064101  1
  V  V40  1  0.24646284  0.25161910  0.00588780  1
  V  V41  1  0.00644728  0.63666933  0.62017478  1
  V  V42  1  0.62595639  0.50628884  0.62093992  1
  V  V43  1  -0.00184674  0.12497317  0.12797697  1
  V  V44  1  0.62466367  0.75082882  0.87499105  1
  V  V45  1  0.25169318  0.12724373  0.37620355  1
  V  V46  1  0.74644134  0.26799893  0.50780295  1
  V  V47  1  0.75441637  0.87697685  0.61957612  1
  V  V48  1  0.12584051  0.12262655  0.00182731  1
  V  V49  1  0.74973244  0.75027185  0.49942101  1
  V  V50  1  0.12459845  -0.00570204  0.13349426  1
  V  V51  1  0.62538976  0.00369473  0.61561642  1
  V  V52  1  -0.00206285  0.61051775  0.12470952  1
  V  V53  1  0.62866961  0.48169092  0.12645316  1
  V  V54  1  0.87276547  0.62388786  0.25280486  1
  V  V55  1  0.24840114  0.50089994  0.74138174  1
  V  V56  1  0.88259604  0.63773875  0.74628603  1
  V  V57  1  0.48267091  0.75043196  0.24294929  1
  V  V58  1  0.12261334  0.24944768  0.87526767  1
  V  V59  1  0.73872954  0.62231716  0.37856118  1
  V  V60  1  0.37020226  0.37020551  -0.00017708  1
  V  V61  1  0.62844935  0.37590782  0.74514396  1
  V  V62  1  -0.00765738  -0.00475600  0.49771629  1
  V  V63  1  0.13076312  0.12504316  0.50055538  1
  V  V64  1  0.25123334  0.62331116  0.36063727  1
  V  V65  1  -0.00036015  -0.00184548  0.00045715  1
  V  V66  1  0.62348899  0.24725326  0.88046189  1
  V  V67  1  0.11905393  0.62038224  -0.00088118  1
  V  V68  1  0.74438917  -0.00366236  0.26115399  1
  V  V69  1  -0.00157734  0.12685552  0.62585228  1
  V  V70  1  0.13117233  0.00173487  0.63213457  1
  V  V71  1  0.37178812  0.50301416  0.35870566  1
  V  V72  1  0.13775870  0.37778421  0.24797092  1
  V  V73  1  0.86593620  0.25056427  0.12728189  1
  V  V74  1  0.24663255  0.87179089  0.13157995  1
  V  V75  1  0.87615421  0.11881745  0.26473634  1
  V  V76  1  0.74323038  0.87657600  0.12981909  1
  V  V77  1  0.88109586  0.49971528  0.88125419  1
  V  V78  1  0.74725407  0.48290431  0.24810794  1
  V  V79  1  0.87462881  0.87475034  0.00204415  1
  V  V80  1  0.25364638  0.74854335  0.50097579  1
  V  V81  1  0.50502369  0.00305903  0.00017325  1
  V  V82  1  0.75063832  0.49974615  0.74539973  1
  V  V83  1  0.00435398  0.75489122  0.25032316  1
  V  V84  1  0.87940498  0.49933570  0.37593333  1
  Zn  Zn85  1  0.37684685  -0.00044827  0.37796203  1
  Zn  Zn86  1  0.11751832  0.74465828  0.87192080  1
  Zn  Zn87  1  0.50355908  0.63183273  0.61727769  1
  Zn  Zn88  1  0.24744872  -0.00508388  0.25436930  1
  Zn  Zn89  1  0.88102599  0.76003965  0.61836342  1
  Zn  Zn90  1  0.49933741  0.75026249  0.74750196  1
  Zn  Zn91  1  0.49824479  0.88027010  0.36994163  1
  Zn  Zn92  1  0.38212559  0.75142706  0.62264340  1
  Zn  Zn93  1  0.62269332  0.87553553  0.74809704  1
  Zn  Zn94  1  0.87390120  0.37997869  0.00997196  1
  Zn  Zn95  1  -0.00242447  0.25249294  0.75094818  1
  Zn  Zn96  1  -0.00668285  0.86854064  0.86500393  1
  Zn  Zn97  1  0.38137604  0.87787081  0.49802134  1
  Zn  Zn98  1  0.49850579  0.62277853  0.13710603  1
  Zn  Zn99  1  0.24738081  0.62700393  0.87339242  1
  Zn  Zn100  1  0.50215147  -0.00075328  0.49262060  1
  Zn  Zn101  1  -0.00004691  0.24984662  0.25262424  1
  Zn  Zn102  1  0.87249360  0.26274614  0.62203854  1
  Zn  Zn103  1  0.62597858  0.00000192  0.12409536  1
  Zn  Zn104  1  0.74014705  0.25831428  0.00940814  1
  Zn  Zn105  1  0.00506662  0.38124220  0.88422169  1
  Zn  Zn106  1  0.74966826  0.75058646  0.00351422  1
  Zn  Zn107  1  0.18620843  0.18728756  0.19123010  1
  Zn  Zn108  1  0.19020250  0.19028893  0.68734706  1
  Zn  Zn109  1  0.18426081  0.68893072  0.18409196  1
  Zn  Zn110  1  0.18936645  0.68663447  0.68235491  1
  Zn  Zn111  1  0.68876537  0.18262961  0.19482154  1
  Zn  Zn112  1  0.68881307  0.19103804  0.68372738  1
  Zn  Zn113  1  0.68662205  0.68191525  0.18773815  1
  Zn  Zn114  1  0.68670793  0.68962891  0.68783439  1
  Zn  Zn115  1  0.31592869  0.30890124  0.31449553  1
  Zn  Zn116  1  0.30911947  0.30947864  0.80993231  1
  Zn  Zn117  1  0.31372757  0.81302363  0.31393352  1
  Zn  Zn118  1  0.30685816  0.81119989  0.81285495  1
  Zn  Zn119  1  0.81551750  0.30603311  0.31967959  1
  Zn  Zn120  1  0.80876657  0.31411961  0.81499074  1
  Zn  Zn121  1  0.81178332  0.81115446  0.31378869  1
  Zn  Zn122  1  0.81093154  0.81540474  0.81199579  1
  Zn  Zn123  1  0.19211506  0.43681634  0.43291074  1
  Zn  Zn124  1  0.18742221  0.43788413  0.93877627  1
  Zn  Zn125  1  0.18936294  0.93897483  0.44241700  1
  Zn  Zn126  1  0.18671626  0.93619885  0.93754939  1
  Zn  Zn127  1  0.68946467  0.43933382  0.43879865  1
  Zn  Zn128  1  0.69114795  0.43510113  0.93940933  1
  Zn  Zn129  1  0.68998836  0.93709465  0.43864613  1
  Zn  Zn130  1  0.68714434  0.93642898  0.93925422  1
  Zn  Zn131  1  0.31449105  0.06069066  0.06305456  1
  Zn  Zn132  1  0.31349491  0.06070581  0.56020239  1
  Zn  Zn133  1  0.31353537  0.56566113  0.06008599  1
  Zn  Zn134  1  0.31499188  0.56363378  0.55861509  1
  Zn  Zn135  1  0.81180584  0.06345249  0.06770165  1
  Zn  Zn136  1  0.81337985  0.06701156  0.56200001  1
  Zn  Zn137  1  0.80841663  0.56046831  0.06459636  1
  Zn  Zn138  1  0.80817660  0.57268142  0.56598611  1
  Zn  Zn139  1  0.43908361  0.43329927  0.18575211  1
  Zn  Zn140  1  0.44006519  0.43967345  0.68394283  1
  Zn  Zn141  1  0.43928745  0.93510782  0.19006008  1
  Zn  Zn142  1  0.43895348  0.93868210  0.68566316  1
  Zn  Zn143  1  0.93908877  0.43287013  0.19463949  1
  Zn  Zn144  1  0.94405337  0.44681164  0.71140463  1
  Zn  Zn145  1  0.93371164  0.93766097  0.19165371  1
  Zn  Zn146  1  0.93724633  0.94281786  0.68519946  1
  Zn  Zn147  1  0.06235590  0.06010268  0.31553683  1
  Zn  Zn148  1  0.06088844  0.05888732  0.81200579  1
  Zn  Zn149  1  0.06536209  0.56352380  0.31094907  1
  Zn  Zn150  1  0.06363023  0.56565195  0.80754870  1
  Zn  Zn151  1  0.56314584  0.06362855  0.31074626  1
  Zn  Zn152  1  0.55934031  0.06366988  0.80844010  1
  Zn  Zn153  1  0.56153616  0.56185172  0.30711745  1
  Zn  Zn154  1  0.56110617  0.56266191  0.81662543  1
  Zn  Zn155  1  0.43865425  0.19022730  0.43561249  1
  Zn  Zn156  1  0.43760070  0.18532863  0.93709617  1
  Zn  Zn157  1  0.43755217  0.68975780  0.42892019  1
  Zn  Zn158  1  0.43142595  0.68011265  0.94998918  1
  Zn  Zn159  1  0.93698824  0.19302129  0.44435507  1
  Zn  Zn160  1  0.93733373  0.18967645  0.94153473  1
  Zn  Zn161  1  0.93676148  0.68749337  0.44053796  1
  Zn  Zn162  1  0.94069538  0.69062032  0.93842269  1
  Zn  Zn163  1  0.05531757  0.31739182  0.06347440  1
  Zn  Zn164  1  0.06856719  0.30657254  0.56419464  1
  Zn  Zn165  1  0.06066008  0.80908849  0.06205552  1
  Zn  Zn166  1  0.06902231  0.81314479  0.55898419  1
  Zn  Zn167  1  0.55590423  0.31437955  0.06051408  1
  Zn  Zn168  1  0.56554880  0.31585154  0.55893441  1
  Zn  Zn169  1  0.56100568  0.80897253  0.06363333  1
  Zn  Zn170  1  0.56650300  0.81264775  0.55682016  1
  O  O171  1  0.11710935  0.11888660  0.12138254  1
  O  O172  1  0.12174184  0.12177025  0.62043251  1
  O  O173  1  0.11789489  0.61191271  0.12196693  1
  O  O174  1  0.11810018  0.62668551  0.61407737  1
  O  O175  1  0.61257878  0.12556151  0.12559058  1
  O  O176  1  0.61428974  0.11799456  0.63503950  1
  O  O177  1  0.62294910  0.61941161  0.11157375  1
  O  O178  1  0.62139068  0.61081143  0.63354776  1
  O  O179  1  0.37737625  0.38507506  0.38001917  1
  O  O180  1  0.37835854  0.37668410  0.87632284  1
  O  O181  1  0.37459958  0.88061096  0.37779811  1
  O  O182  1  0.37833849  0.88106355  0.88037496  1
  O  O183  1  0.89033554  0.38054712  0.37265989  1
  O  O184  1  0.87674761  0.39459140  0.86371489  1
  O  O185  1  0.88647213  0.87188331  0.37706167  1
  O  O186  1  0.87248225  0.88319071  0.88422370  1
  O  O187  1  0.24677837  0.01345468  0.37315901  1
  O  O188  1  0.26331632  0.00480480  0.88136216  1
  O  O189  1  0.26386278  0.50642502  0.37440440  1
  O  O190  1  0.25776541  0.49562914  0.86138671  1
  O  O191  1  0.74676969  0.00968125  0.36672775  1
  O  O192  1  0.75188850  0.00701871  0.86932910  1
  O  O193  1  0.75961991  0.50585634  0.37068436  1
  O  O194  1  0.75617439  0.51016256  0.86464825  1
  O  O195  1  0.24342828  0.50371632  0.12790575  1
  O  O196  1  0.25662452  0.49167661  0.63437692  1
  O  O197  1  0.24043654  0.99225100  0.12377810  1
  O  O198  1  0.24193618  0.99183334  0.62126848  1
  O  O199  1  0.74243661  0.50067318  0.13577821  1
  O  O200  1  0.74388089  0.50577036  0.63712027  1
  O  O201  1  0.74828698  0.99458276  0.13575407  1
  O  O202  1  0.74494564  0.99880013  0.63141360  1
  O  O203  1  0.01228441  0.37155729  0.26043175  1
  O  O204  1  0.01260578  0.37152216  0.75947376  1
  O  O205  1  -0.00491203  0.86567439  0.25915090  1
  O  O206  1  0.01513914  0.88132162  0.74538571  1
  O  O207  1  0.49461153  0.36719714  0.26294044  1
  O  O208  1  0.50443207  0.37102993  0.75571245  1
  O  O209  1  0.49793989  0.85823062  0.25061344  1
  O  O210  1  0.50018405  0.87555655  0.76471503  1
  O  O211  1  0.49295693  0.13285419  0.24220464  1
  O  O212  1  0.48803639  0.13252707  0.74252440  1
  O  O213  1  0.50289355  0.64164320  0.25099613  1
  O  O214  1  0.48658603  0.62385963  0.75313883  1
  O  O215  1  0.99045520  0.12208909  0.24688680  1
  O  O216  1  0.99213532  0.12542503  0.74289074  1
  O  O217  1  0.98965745  0.63033581  0.24585895  1
  O  O218  1  0.99426539  0.61971525  0.73457797  1
  O  O219  1  0.36742117  0.25133615  0.00606425  1
  O  O220  1  0.37981792  0.26507357  0.50558083  1
  O  O221  1  0.36346577  0.76165789  -0.00556081  1
  O  O222  1  0.36298736  0.74851216  0.49768049  1
  O  O223  1  0.87253163  0.24112305  0.02081975  1
  O  O224  1  0.85815174  0.24149429  0.50747582  1
  O  O225  1  0.87226998  0.75809558  0.00854366  1
  O  O226  1  0.85813886  0.74618659  0.50021803  1
  O  O227  1  0.12319639  0.24120215  0.48757923  1
  O  O228  1  0.12986703  0.24355140  0.99666300  1
  O  O229  1  0.13644174  0.74262707  0.49181161  1
  O  O230  1  0.12921552  0.73863409  1.00108658  1
  O  O231  1  0.64409382  0.25396297  0.50609024  1
  O  O232  1  0.62097139  0.25480986  0.98488568  1
  O  O233  1  0.63723930  0.75076594  0.48198157  1
  O  O234  1  0.62783826  0.74230914  0.99024958  1
  O  O235  1  0.49228846  0.24411733  0.12947817  1
  O  O236  1  0.49155628  0.24744407  0.62812068  1
  O  O237  1  0.50174031  0.74620048  0.13794377  1
  O  O238  1  0.50199033  0.74827762  0.62865018  1
  O  O239  1  0.99587806  0.23532148  0.13005922  1
  O  O240  1  0.99821219  0.23730956  0.62620773  1
  O  O241  1  0.99527648  0.74151289  0.13457599  1
  O  O242  1  0.99906417  0.74208745  0.61821207  1
  O  O243  1  0.00713966  0.25932194  0.37667862  1
  O  O244  1  0.01407331  0.24452172  0.87404586  1
  O  O245  1  0.00585222  0.75699366  0.37129165  1
  O  O246  1  0.00515864  0.75705590  0.87785661  1
  O  O247  1  0.49625142  0.26449932  0.36797571  1
  O  O248  1  0.50466145  0.25343423  0.86887048  1
  O  O249  1  0.51283001  0.75061591  0.36537319  1
  O  O250  1  0.50589755  0.75744899  0.87710345  1
  O  O251  1  0.23775815  0.12317244  0.49483493  1
  O  O252  1  0.24653507  0.13255890  0.99444250  1
  O  O253  1  0.24423771  0.63062394  0.49270980  1
  O  O254  1  0.23880681  0.63290365  1.00089252  1
  O  O255  1  0.74786762  0.12048047  0.48691111  1
  O  O256  1  0.75052243  0.12604427  0.98880010  1
  O  O257  1  0.75017749  0.63227797  0.48904398  1
  O  O258  1  0.74317737  0.62570693  0.99075096  1
  O  O259  1  0.25235072  0.35800875  -0.00488326  1
  O  O260  1  0.25757351  0.38047926  0.51035029  1
  O  O261  1  0.25453313  0.86918488  0.00610669  1
  O  O262  1  0.24806813  0.86597676  0.51222251  1
  O  O263  1  0.76218656  0.36897009  -0.00726556  1
  O  O264  1  0.75571103  0.36714957  0.49578751  1
  O  O265  1  0.76065758  0.87675957  0.00873865  1
  O  O266  1  0.74903186  0.86825283  0.50864115  1
  O  O267  1  0.12325612  0.49359542  0.23619969  1
  O  O268  1  0.13448419  0.48743268  0.75398463  1
  O  O269  1  0.12613851  1.00382842  0.23714015  1
  O  O270  1  0.12348918  0.99582489  0.73683791  1
  O  O271  1  0.63555295  0.50337438  0.23947794  1
  O  O272  1  0.63149392  0.49515990  0.74814112  1
  O  O273  1  0.64177510  1.00645721  0.24487348  1
  O  O274  1  0.63296859  0.99965580  0.74421516  1
  O  O275  1  0.37177125  0.01370754  0.24733712  1
  O  O276  1  0.37981563  0.00944344  0.75862794  1
  O  O277  1  0.37802768  0.49819419  0.26009504  1
  O  O278  1  0.36890429  0.50390643  0.75391429  1
  O  O279  1  0.86363385  0.01293177  0.24746335  1
  O  O280  1  0.86791329  0.01124878  0.75597643  1
  O  O281  1  0.86931719  0.50526818  0.25733086  1
  O  O282  1  0.86634192  0.51545862  0.75783302  1
  O  O283  1  0.11940695  0.37010961  0.37162746  1
  O  O284  1  0.12723382  0.36593143  0.86918523  1
  O  O285  1  0.12151722  0.86241255  0.38043755  1
  O  O286  1  0.12656928  0.88127326  0.85583516  1
  O  O287  1  0.61053132  0.38279465  0.37430342  1
  O  O288  1  0.61730739  0.37128555  0.86508510  1
  O  O289  1  0.62933310  0.86438473  0.36982226  1
  O  O290  1  0.61648919  0.86696592  0.87718783  1
  O  O291  1  0.38112416  0.13358065  0.13049646  1
  O  O292  1  0.37832689  0.13354335  0.62959351  1
  O  O293  1  0.41800419  0.60578371  0.05636047  1
  O  O294  1  0.37906575  0.62624616  0.63335846  1
  O  O295  1  0.88162324  0.12899965  0.13690280  1
  O  O296  1  0.88365942  0.12314045  0.63551676  1
  O  O297  1  0.87985246  0.62782023  0.13167300  1
  O  O298  1  0.88432109  0.63075568  0.63145614  1
  O  O299  1  0.25758113  0.24188186  0.11702342  1
  O  O300  1  0.26342725  0.25927547  0.62737857  1
  O  O301  1  0.24256984  0.75801573  0.11284903  1
  O  O302  1  0.25351978  0.75656217  0.61600424  1
  O  O303  1  0.76193389  0.23942872  0.12681807  1
  O  O304  1  0.75481182  0.25324486  0.61568978  1
  O  O305  1  0.75693221  0.75676481  0.12755140  1
  O  O306  1  0.74633882  0.75957127  0.61689586  1
  O  O307  1  0.24288983  0.23743401  0.37345480  1
  O  O308  1  0.23997269  0.24242209  0.88102645  1
  O  O309  1  0.24320192  0.74346523  0.37934340  1
  O  O310  1  0.24011279  0.75008834  0.88725932  1
  O  O311  1  0.75352211  0.23803167  0.38778032  1
  O  O312  1  0.74021173  0.24125693  0.87397744  1
  O  O313  1  0.74327089  0.74256823  0.37708069  1
  O  O314  1  0.74390641  0.74487663  0.87792643  1
  O  O315  1  0.00428839  0.11806226  0.00966577  1
  O  O316  1  0.01081461  0.11756185  0.50524065  1
  O  O317  1  0.01046511  0.62710846  0.01104494  1
  O  O318  1  0.01179480  0.62731682  0.50540161  1
  O  O319  1  0.49133417  0.11512573  0.00959322  1
  O  O320  1  0.49766721  0.12816834  0.51249975  1
  O  O321  1  0.52804015  0.61593098  -0.03565408  1
  O  O322  1  0.49623216  0.61245788  0.49487059  1
  O  O323  1  0.49459862  0.38186835  0.48771924  1
  O  O324  1  0.48896501  0.38544304  0.99395666  1
  O  O325  1  0.50084654  0.87808326  0.49231901  1
  O  O326  1  0.49126141  0.87822716  0.99296974  1
  O  O327  1  1.00704613  0.38146768  0.49632253  1
  O  O328  1  0.98643455  0.36949693  0.99466474  1
  O  O329  1  1.00503005  0.88791959  0.49635247  1
  O  O330  1  0.98649091  0.88072555  1.00538716  1
  O  O331  1  0.49145770  0.49234714  0.37631811  1
  O  O332  1  0.48474743  0.49415008  0.87886486  1
  O  O333  1  0.49799000  1.00011556  0.37325006  1
  O  O334  1  0.49085147  0.99504484  0.88077583  1
  O  O335  1  0.98855697  0.49574584  0.37080089  1
  O  O336  1  0.98438863  0.50472847  0.86919663  1
  O  O337  1  1.00759017  0.99106968  0.38892633  1
  O  O338  1  0.99194845  0.99547767  0.88225869  1
  O  O339  1  0.00415880  0.00748591  0.12309821  1
  O  O340  1  0.00744463  0.01023414  0.61719510  1
  O  O341  1  -0.00109100  0.50921051  0.13055306  1
  O  O342  1  -0.00754458  0.50505899  0.61468196  1
  O  O343  1  0.50074469  0.00723835  0.11856511  1
  O  O344  1  0.50959433  0.01038748  0.62688740  1
  O  O345  1  0.51149248  0.49879165  0.12387052  1
  O  O346  1  0.50675337  0.50237532  0.61305815  1
  O  O347  1  0.23701836  0.36915961  0.25671858  1
  O  O348  1  0.24671298  0.38026124  0.73936545  1
  O  O349  1  0.25186008  0.87416098  0.23544343  1
  O  O350  1  0.24023965  0.87239768  0.73694678  1
  O  O351  1  0.75587629  0.38446894  0.26020262  1
  O  O352  1  0.74035273  0.38642756  0.75407759  1
  O  O353  1  0.75874624  0.88989263  0.24630994  1
  O  O354  1  0.74798678  0.88965727  0.74720796  1
  O  O355  1  0.25785357  0.12357881  0.25744265  1
  O  O356  1  0.26335565  0.13040043  0.75492238  1
  O  O357  1  0.24485917  0.63037144  0.26129924  1
  O  O358  1  0.25692705  0.61632206  0.74895294  1
  O  O359  1  0.75855051  0.11887569  0.26401329  1
  O  O360  1  0.75607686  0.11776715  0.75563757  1
  O  O361  1  0.76178105  0.61935960  0.25695018  1
  O  O362  1  0.75819010  0.62200743  0.75513911  1
  O  O363  1  0.36739209  0.12784354  0.36699442  1
  O  O364  1  0.37169574  0.11812459  0.86676547  1
  O  O365  1  0.36735190  0.61040638  0.37716673  1
  O  O366  1  0.36777147  0.61320860  0.86950976  1
  O  O367  1  0.87667949  0.12720797  0.36564566  1
  O  O368  1  0.86726249  0.12295109  0.86969946  1
  O  O369  1  0.87081502  0.61768111  0.36883741  1
  O  O370  1  0.86935174  0.62107367  0.87033848  1
  O  O371  1  0.12306548  0.38767756  0.13112186  1
  O  O372  1  0.13611886  0.36779342  0.63374445  1
  O  O373  1  0.13210803  0.88378360  0.11759807  1
  O  O374  1  0.13054204  0.88222271  0.63286007  1
  O  O375  1  0.62509209  0.38210002  0.12053507  1
  O  O376  1  0.61637348  0.38715655  0.63935754  1
  O  O377  1  0.64025680  0.87479523  0.11821995  1
  O  O378  1  0.63617923  0.88517687  0.62898001  1
  O  O379  1  0.12189777  0.25443456  0.26165488  1
  O  O380  1  0.12703101  0.25894850  0.75849161  1
  O  O381  1  0.11129289  0.74351253  0.25823993  1
  O  O382  1  0.12851221  0.76364167  0.74801324  1
  O  O383  1  0.61202233  0.24940103  0.24580314  1
  O  O384  1  0.62025673  0.25891883  0.75597054  1
  O  O385  1  0.62949667  0.74614612  0.26436265  1
  O  O386  1  0.62331721  0.75282196  0.76365780  1
  O  O387  1  0.38066076  0.24145063  0.24308926  1
  O  O388  1  0.38017382  0.24515846  0.74139056  1
  O  O389  1  0.38354347  0.74567899  0.24969720  1
  O  O390  1  0.37463706  0.73980793  0.75115403  1
  O  O391  1  0.87655641  0.23603425  0.24437995  1
  O  O392  1  0.87483312  0.24154135  0.74754982  1
  O  O393  1  0.88247090  0.74134669  0.24805580  1
  O  O394  1  0.87031548  0.74036792  0.74750087  1
  O  O395  1  0.38367061  0.48998479  0.49449918  1
  O  O396  1  0.36419744  0.48378393  0.98657992  1
  O  O397  1  0.38125943  0.99905937  0.49780937  1
  O  O398  1  0.38313816  0.99196778  0.99250958  1
  O  O399  1  0.87425042  0.50048777  0.49571723  1
  O  O400  1  0.87002213  0.50486150  0.98389589  1
  O  O401  1  0.89410605  1.00544556  0.50536182  1
  O  O402  1  0.87827960  0.99490136  0.99760614  1
  O  O403  1  0.11937300  0.00501060  0.00763905  1
  O  O404  1  0.11873596  0.00710125  0.51121643  1
  O  O405  1  0.13125786  0.50525104  0.01479205  1
  O  O406  1  0.13022024  0.51208195  0.49347349  1
  O  O407  1  0.60906724  -0.00425106  0.00013880  1
  O  O408  1  0.62576765  0.00056604  0.51267298  1
  O  O409  1  0.62017436  0.50403865  0.00712037  1
  O  O410  1  0.61708756  0.49456815  0.50964690  1
  O  O411  1  0.37781148  0.36015071  0.11919512  1
  O  O412  1  0.37101251  0.37001658  0.61713299  1
  O  O413  1  0.36515757  0.88295920  0.11284253  1
  O  O414  1  0.36788962  0.87271173  0.62422462  1
  O  O415  1  0.88140708  0.35323464  0.13383311  1
  O  O416  1  0.89451777  0.38449608  0.61920188  1
  O  O417  1  0.86618460  0.87122106  0.12068556  1
  O  O418  1  0.86033820  0.87649693  0.63289122  1
  O  O419  1  0.12915223  0.13151644  0.38116701  1
  O  O420  1  0.13052101  0.12769370  0.87952951  1
  O  O421  1  0.13098161  0.63187875  0.38044619  1
  O  O422  1  0.12773399  0.62079489  0.88472994  1
  O  O423  1  0.63505961  0.13100877  0.37294524  1
  O  O424  1  0.63162577  0.13524474  0.86662294  1
  O  O425  1  0.63703067  0.62586571  0.37086487  1
  O  O426  1  0.64179230  0.63044520  0.87228521  1
