# generated using pymatgen
data_V85Zn86O256
_symmetry_space_group_name_H-M   'P 1'
_cell_length_a   16.94811504
_cell_length_b   16.96294020
_cell_length_c   16.95420081
_cell_angle_alpha   90.04767536
_cell_angle_beta   89.98345600
_cell_angle_gamma   90.04274589
_symmetry_Int_Tables_number   1
_chemical_formula_structural   V85Zn86O256
_chemical_formula_sum   'V85 Zn86 O256'
_cell_volume   4874.15760212
_cell_formula_units_Z   1
loop_
 _symmetry_equiv_pos_site_id
 _symmetry_equiv_pos_as_xyz
  1  'x, y, z'
loop_
 _atom_site_type_symbol
 _atom_site_label
 _atom_site_symmetry_multiplicity
 _atom_site_fract_x
 _atom_site_fract_y
 _atom_site_fract_z
 _atom_site_occupancy
  V  V0  1  0.37362687  0.00040837  0.87749732  1
  V  V1  1  -0.00074557  0.75464513  0.74764366  1
  V  V2  1  0.48797093  0.12649840  0.12586666  1
  V  V3  1  0.37427806  0.86566393  0.48711009  1
  V  V4  1  0.37521815  0.12579388  0.75628209  1
  V  V5  1  0.24534864  0.00966713  0.24861465  1
  V  V6  1  -0.00677901  0.74242073  0.23737424  1
  V  V7  1  0.37555455  0.61955980  0.75674039  1
  V  V8  1  0.75016439  -0.00073323  0.24528391  1
  V  V9  1  0.24636114  0.37065950  0.62610134  1
  V  V10  1  0.37613213  0.75036562  0.12836140  1
  V  V11  1  0.34699163  0.21933194  0.59641708  1
  V  V12  1  0.50227540  0.49900713  0.50029880  1
  V  V13  1  0.88754580  0.37384850  0.50209240  1
  V  V14  1  0.62578912  -0.00382030  0.62692533  1
  V  V15  1  0.50342055  0.12124656  0.62402733  1
  V  V16  1  0.24908178  0.62307871  0.87741674  1
  V  V17  1  0.25025126  0.63200079  0.37769366  1
  V  V18  1  -0.02489263  0.52189828  0.04056743  1
  V  V19  1  0.62267434  0.50047181  0.12594063  1
  V  V20  1  0.87356674  0.62824327  0.74702776  1
  V  V21  1  0.05068920  0.19455121  0.18903269  1
  V  V22  1  0.37472449  0.27250911  0.11650022  1
  V  V23  1  0.00126296  0.87161539  0.37430952  1
  V  V24  1  0.74985021  0.63190271  0.87836278  1
  V  V25  1  0.24633159  0.75110013  0.00069438  1
  V  V26  1  0.12191892  0.49661496  0.62356641  1
  V  V27  1  0.49158328  0.24620765  0.25710734  1
  V  V28  1  0.87572706  0.86447020  0.00638703  1
  V  V29  1  0.12544071  0.87429675  0.24228409  1
  V  V30  1  0.12061134  0.62696127  0.01746167  1
  V  V31  1  0.25405484  0.86612327  0.62236841  1
  V  V32  1  0.50095097  0.24797711  0.74662733  1
  V  V33  1  0.13104477  0.63119267  0.50219318  1
  V  V34  1  0.50022961  0.87561298  0.87903737  1
  V  V35  1  0.37187188  0.37762837  0.50558462  1
  V  V36  1  0.12956591  0.47727823  0.13209611  1
  V  V37  1  0.24462573  0.12815256  0.88446042  1
  V  V38  1  0.12205407  0.74872674  0.87508514  1
  V  V39  1  0.50028892  -0.00695056  0.49168212  1
  V  V40  1  0.75408963  0.37571305  0.62151311  1
  V  V41  1  0.11814661  0.25201785  0.86818047  1
  V  V42  1  0.37953817  0.62760902  0.25119413  1
  V  V43  1  0.87863708  0.87921538  0.49736020  1
  V  V44  1  0.62320420  0.63697829  0.00301701  1
  V  V45  1  0.49791930  0.75071510  0.75207736  1
  V  V46  1  0.13462890  0.23767078  0.39276325  1
  V  V47  1  0.62476602  0.37457602  0.74939559  1
  V  V48  1  0.37384088  0.50040981  0.37624063  1
  V  V49  1  0.88877206  0.50156459  0.37812987  1
  V  V50  1  0.12958421  0.00463832  0.59834881  1
  V  V51  1  -0.00022589  0.62294451  0.61695534  1
  V  V52  1  0.87530348  0.13104472  0.24439086  1
  V  V53  1  0.24350732  -0.00091452  0.75156295  1
  V  V54  1  0.49931814  0.49594439  -0.00595015  1
  V  V55  1  0.75099675  0.12426484  0.87668945  1
  V  V56  1  0.62467133  0.00116059  0.12422520  1
  V  V57  1  0.24775457  0.49518230  0.74982299  1
  V  V58  1  0.62913999  0.13156625  0.00398675  1
  V  V59  1  0.74655031  0.37088847  0.11564652  1
  V  V60  1  0.75097428  0.25038855  0.49615302  1
  V  V61  1  0.75164734  0.49800692  0.25266859  1
  V  V62  1  0.75716395  0.62492392  0.37179124  1
  V  V63  1  0.62425232  0.49996156  0.62495888  1
  V  V64  1  0.87733504  0.50327980  0.87190129  1
  V  V65  1  0.32688554  0.44094879  0.93085810  1
  V  V66  1  0.87069655  0.00212250  0.87665157  1
  V  V67  1  0.49890169  0.62533082  0.62804249  1
  V  V68  1  0.37227332  0.87515832  0.00026949  1
  V  V69  1  0.63182784  0.87741181  0.75253178  1
  V  V70  1  0.00480951  0.00890416  0.01442314  1
  V  V71  1  -0.00298964  0.37658495  0.86176671  1
  V  V72  1  0.75283252  0.86049973  0.12204421  1
  V  V73  1  0.01276768  0.37046318  0.36741542  1
  V  V74  1  0.62838636  0.25496180  0.88185176  1
  V  V75  1  0.88082954  0.00209148  0.36932811  1
  V  V76  1  0.24961340  0.48803899  0.25077519  1
  V  V77  1  0.00127888  0.88151639  0.87324394  1
  V  V78  1  0.61600657  0.75340624  0.36814125  1
  V  V79  1  0.62634858  0.75201503  0.88042111  1
  V  V80  1  0.37607816  0.00937711  0.36416896  1
  V  V81  1  0.62715264  0.62648912  0.49980413  1
  V  V82  1  0.87576356  0.75329252  0.62231031  1
  V  V83  1  0.87003898  0.24980081  0.12244747  1
  V  V84  1  0.75036479  0.75233940  0.49666365  1
  Zn  Zn85  1  0.75229192  0.87760576  0.62693404  1
  Zn  Zn86  1  0.88614053  0.61657871  0.21892089  1
  Zn  Zn87  1  0.74932465  0.12683459  0.37331575  1
  Zn  Zn88  1  -0.04522525  0.23590417  0.72770688  1
  Zn  Zn89  1  0.49865897  0.00370313  0.00004331  1
  Zn  Zn90  1  0.49476707  0.37600304  0.87422715  1
  Zn  Zn91  1  0.62434212  0.24796686  0.37452952  1
  Zn  Zn92  1  0.49913072  0.62367940  0.12936316  1
  Zn  Zn93  1  0.12475110  0.74918999  0.37519313  1
  Zn  Zn94  1  0.37308927  0.74778844  0.62189434  1
  Zn  Zn95  1  0.79853775  0.04944013  0.71032809  1
  Zn  Zn96  1  0.62266162  0.37226481  0.25332283  1
  Zn  Zn97  1  -0.00027294  0.12508202  0.61876272  1
  Zn  Zn98  1  0.87450575  0.37120579  -0.00191599  1
  Zn  Zn99  1  0.62729410  0.12347096  0.49881270  1
  Zn  Zn100  1  0.24600348  0.26985943  0.00414751  1
  Zn  Zn101  1  0.61438998  0.87769137  0.25943949  1
  Zn  Zn102  1  0.12196605  0.87743329  0.74236736  1
  Zn  Zn103  1  0.24490895  0.88052329  0.12391368  1
  Zn  Zn104  1  0.74722736  0.50411849  0.74885932  1
  Zn  Zn105  1  0.11998259  0.13367452  0.01145490  1
  Zn  Zn106  1  0.50101315  0.37415333  0.37617003  1
  Zn  Zn107  1  0.21369459  0.20484311  0.20487441  1
  Zn  Zn108  1  0.16494331  0.17909230  0.69522625  1
  Zn  Zn109  1  0.19169819  0.69000063  0.19375213  1
  Zn  Zn110  1  0.18670043  0.68664914  0.69067218  1
  Zn  Zn111  1  0.68493697  0.18890676  0.19106020  1
  Zn  Zn112  1  0.73733565  0.21267491  0.71093513  1
  Zn  Zn113  1  0.69028569  0.68272769  0.19001107  1
  Zn  Zn114  1  0.68733933  0.69225457  0.68814703  1
  Zn  Zn115  1  0.31804488  0.31073202  0.31672066  1
  Zn  Zn116  1  0.30158614  0.30206359  0.80370630  1
  Zn  Zn117  1  0.31026673  0.81281417  0.30940200  1
  Zn  Zn118  1  0.31107876  0.81047688  0.81200554  1
  Zn  Zn119  1  0.81561299  0.31508769  0.31292191  1
  Zn  Zn120  1  0.80923521  0.31760979  0.81851336  1
  Zn  Zn121  1  0.81384823  0.81001776  0.30547223  1
  Zn  Zn122  1  0.81481991  0.81508041  0.81640743  1
  Zn  Zn123  1  0.18760713  0.44173046  0.44258773  1
  Zn  Zn124  1  0.15906862  0.44478450  0.94079042  1
  Zn  Zn125  1  0.19589047  0.93014386  0.42800121  1
  Zn  Zn126  1  0.18253501  0.94147025  0.94023050  1
  Zn  Zn127  1  0.68743990  0.43382577  0.43415401  1
  Zn  Zn128  1  0.68625952  0.44434810  0.93711698  1
  Zn  Zn129  1  0.69078555  0.93797916  0.43534493  1
  Zn  Zn130  1  0.68856165  0.93865060  0.94554114  1
  Zn  Zn131  1  0.30804669  0.06196063  0.06554390  1
  Zn  Zn132  1  0.31482530  0.04967935  0.56087098  1
  Zn  Zn133  1  0.30603438  0.56410284  0.06925556  1
  Zn  Zn134  1  0.31150579  0.56322483  0.56575003  1
  Zn  Zn135  1  0.81513784  0.06287557  0.05989698  1
  Zn  Zn136  1  0.85410697  0.08560209  0.54001630  1
  Zn  Zn137  1  0.80277235  0.56301468  0.05850664  1
  Zn  Zn138  1  0.81427076  0.56017965  0.55826114  1
  Zn  Zn139  1  0.44027774  0.43890244  0.19242408  1
  Zn  Zn140  1  0.43418016  0.43547805  0.68899466  1
  Zn  Zn141  1  0.44003909  0.93426633  0.18879494  1
  Zn  Zn142  1  0.43720918  0.93631728  0.68772340  1
  Zn  Zn143  1  0.93282002  0.42888817  0.19401243  1
  Zn  Zn144  1  0.93678020  0.43967098  0.68717099  1
  Zn  Zn145  1  0.93868794  0.93515719  0.18850877  1
  Zn  Zn146  1  0.93708948  0.95489593  0.67860153  1
  Zn  Zn147  1  0.06741327  0.06115687  0.32088171  1
  Zn  Zn148  1  0.05638430  0.06834962  0.81176286  1
  Zn  Zn149  1  0.06547152  0.56162733  0.30953124  1
  Zn  Zn150  1  0.06286379  0.56547440  0.80765032  1
  Zn  Zn151  1  0.56259060  0.06638168  0.31323445  1
  Zn  Zn152  1  0.56589846  0.06286309  0.81544681  1
  Zn  Zn153  1  0.56374202  0.56500600  0.31492695  1
  Zn  Zn154  1  0.56205213  0.56080487  0.81648371  1
  Zn  Zn155  1  0.42156991  0.17895493  0.44383386  1
  Zn  Zn156  1  0.44046629  0.19303473  0.94065092  1
  Zn  Zn157  1  0.43842871  0.68527885  0.43764855  1
  Zn  Zn158  1  0.43724311  0.68570891  0.94091086  1
  Zn  Zn159  1  0.94790795  0.19345548  0.43805237  1
  Zn  Zn160  1  0.93553897  0.18783254  0.93826043  1
  Zn  Zn161  1  0.94076461  0.68947328  0.43498995  1
  Zn  Zn162  1  0.93890014  0.68867267  0.93741558  1
  Zn  Zn163  1  0.05481960  0.32218362  0.04754639  1
  Zn  Zn164  1  0.06498003  0.30497377  0.56496002  1
  Zn  Zn165  1  0.05861198  0.81582507  0.06271997  1
  Zn  Zn166  1  0.06462290  0.81613632  0.56022685  1
  Zn  Zn167  1  0.55868661  0.31482719  0.06487963  1
  Zn  Zn168  1  0.56287323  0.30754571  0.56337855  1
  Zn  Zn169  1  0.54897857  0.82588760  0.09031296  1
  Zn  Zn170  1  0.55998941  0.81259748  0.56159023  1
  O  O171  1  0.11932845  0.14610255  0.13137642  1
  O  O172  1  0.13955723  0.10699386  0.61318193  1
  O  O173  1  0.12785007  0.62614413  0.11824270  1
  O  O174  1  0.11917067  0.62162910  0.62092194  1
  O  O175  1  0.62102582  0.11826833  0.12012065  1
  O  O176  1  0.61030986  0.11341301  0.62181089  1
  O  O177  1  0.62332529  0.61885966  0.11935314  1
  O  O178  1  0.61993737  0.62091233  0.62012794  1
  O  O179  1  0.37903251  0.38310381  0.38698337  1
  O  O180  1  0.37371756  0.37318411  0.86871938  1
  O  O181  1  0.37548889  0.87300935  0.38474797  1
  O  O182  1  0.37695960  0.87747257  0.88489897  1
  O  O183  1  0.88582032  0.38140675  0.38316805  1
  O  O184  1  0.87807586  0.38596713  0.87804490  1
  O  O185  1  0.88240584  0.87802644  0.37480209  1
  O  O186  1  0.88444714  0.87708358  0.88863823  1
  O  O187  1  0.26676665  -0.00742727  0.36243009  1
  O  O188  1  0.25447441  0.00484949  0.86984812  1
  O  O189  1  0.25595276  0.50813718  0.37013850  1
  O  O190  1  0.25020620  0.50038128  0.87220300  1
  O  O191  1  0.75873946  -0.00302246  0.35935378  1
  O  O192  1  0.75807788  0.00986269  0.88752181  1
  O  O193  1  0.75575828  0.50462726  0.36709787  1
  O  O194  1  0.75646929  0.51377434  0.87203113  1
  O  O195  1  0.23631418  0.50126800  0.13431164  1
  O  O196  1  0.24423517  0.49369411  0.63355042  1
  O  O197  1  0.25595983  0.99679254  0.14319714  1
  O  O198  1  0.24611209  0.98967886  0.63153764  1
  O  O199  1  0.73803538  0.49529525  0.13101317  1
  O  O200  1  0.74156425  0.49294620  0.62286335  1
  O  O201  1  0.74626581  0.99916825  0.13312496  1
  O  O202  1  0.72994804  0.99588312  0.62722165  1
  O  O203  1  -0.00131508  0.37379248  0.26980302  1
  O  O204  1  -0.01638141  0.36415076  0.76078078  1
  O  O205  1  0.00411041  0.86538761  0.25489398  1
  O  O206  1  -0.00020279  0.87361030  0.75732683  1
  O  O207  1  0.49974368  0.36162303  0.25338877  1
  O  O208  1  0.50708664  0.36690882  0.74813028  1
  O  O209  1  0.52141503  0.86073817  0.20029802  1
  O  O210  1  0.50249702  0.86718270  0.75910517  1
  O  O211  1  0.50233592  0.13699134  0.23926071  1
  O  O212  1  0.49467072  0.12800634  0.74658777  1
  O  O213  1  0.48438092  0.62011808  0.25090791  1
  O  O214  1  0.49292614  0.62897288  0.74977776  1
  O  O215  1  0.99562600  0.12609227  0.24756196  1
  O  O216  1  1.02429430  0.14157516  0.73540453  1
  O  O217  1  0.99998029  0.63809748  0.25366713  1
  O  O218  1  0.99334126  0.63474171  0.73974262  1
  O  O219  1  0.37522791  0.25506323  0.01233595  1
  O  O220  1  0.39704192  0.27331365  0.50802149  1
  O  O221  1  0.36403831  0.75658724  0.00100015  1
  O  O222  1  0.38333748  0.76207400  0.50271709  1
  O  O223  1  0.88079056  0.25226905  0.01715208  1
  O  O224  1  0.86706808  0.26925892  0.49193666  1
  O  O225  1  0.88458783  0.76536885  0.00195355  1
  O  O226  1  0.86849382  0.75869516  0.50120473  1
  O  O227  1  0.13804681  0.25480983  0.49138528  1
  O  O228  1  0.12763455  0.25399494  0.98904983  1
  O  O229  1  0.12174487  0.73593526  0.49836073  1
  O  O230  1  0.12518898  0.74423923  0.99595222  1
  O  O231  1  0.63533186  0.24625295  0.49867309  1
  O  O232  1  0.61777059  0.24545591  0.99346925  1
  O  O233  1  0.63275044  0.74600570  0.49402598  1
  O  O234  1  0.61469808  0.74003304  0.99944916  1
  O  O235  1  0.49001249  0.24630210  0.13079655  1
  O  O236  1  0.49390927  0.23551217  0.62906156  1
  O  O237  1  0.47771623  0.73680750  0.10683172  1
  O  O238  1  0.49994568  0.74224594  0.63420214  1
  O  O239  1  0.99443241  0.25954769  0.12935138  1
  O  O240  1  0.99482778  0.24444737  0.62170727  1
  O  O241  1  1.00101106  0.75119771  0.13847204  1
  O  O242  1  0.99442056  0.74594913  0.62827182  1
  O  O243  1  0.01673549  0.26310598  0.38096168  1
  O  O244  1  0.00099860  0.26419479  0.88027054  1
  O  O245  1  0.00107423  0.75908706  0.36534382  1
  O  O246  1  0.00357617  0.75894421  0.86883985  1
  O  O247  1  0.48940455  0.24436865  0.36273761  1
  O  O248  1  0.51090176  0.25294117  0.86628342  1
  O  O249  1  0.51780303  0.74291575  0.37908311  1
  O  O250  1  0.50592521  0.75526848  0.87198281  1
  O  O251  1  0.31577728  0.15378182  0.51686511  1
  O  O252  1  0.24382652  0.12069409  0.99064578  1
  O  O253  1  0.24394705  0.62111603  0.49259246  1
  O  O254  1  0.23890212  0.62923781  0.99601676  1
  O  O255  1  0.75917490  0.14025041  0.50060729  1
  O  O256  1  0.73701504  0.12496984  0.99431810  1
  O  O257  1  0.74735972  0.63555063  0.49576771  1
  O  O258  1  0.73699664  0.62463639  0.99089549  1
  O  O259  1  0.25368368  0.38971445  -0.01530146  1
  O  O260  1  0.26176800  0.38272532  0.51100220  1
  O  O261  1  0.25346422  0.87059187  0.00049574  1
  O  O262  1  0.26676342  0.87509475  0.50549424  1
  O  O263  1  0.75177429  0.38398358  0.01226183  1
  O  O264  1  0.75684790  0.37092346  0.50447703  1
  O  O265  1  0.76814068  0.87744908  0.00523035  1
  O  O266  1  0.75512181  0.86295153  0.49979508  1
  O  O267  1  0.13382913  0.50000895  0.23949419  1
  O  O268  1  0.13626654  0.50742590  0.73740961  1
  O  O269  1  0.13842707  0.99205843  0.25912836  1
  O  O270  1  0.13903247  0.99771303  0.75538073  1
  O  O271  1  0.63205488  0.50198978  0.24316093  1
  O  O272  1  0.62365785  0.49029028  0.74534583  1
  O  O273  1  0.63198753  0.99816809  0.24169396  1
  O  O274  1  0.61192700  0.98607563  0.74242344  1
  O  O275  1  0.36940280  -0.01178264  0.25937908  1
  O  O276  1  0.36686989  0.00720410  0.75704282  1
  O  O277  1  0.36940145  0.50736334  0.25557207  1
  O  O278  1  0.36731958  0.51202063  0.74704634  1
  O  O279  1  0.86907071  0.00593658  0.25111329  1
  O  O280  1  0.86823819  -0.02152462  0.77550604  1
  O  O281  1  0.86925799  0.50066009  0.26110393  1
  O  O282  1  0.87032213  0.50954795  0.75650452  1
  O  O283  1  0.11453047  0.37862153  0.38176955  1
  O  O284  1  0.10346593  0.37387691  0.87413018  1
  O  O285  1  0.11667425  0.87143503  0.36657755  1
  O  O286  1  0.11155164  0.87115362  0.87623403  1
  O  O287  1  0.61806099  0.36916729  0.37247532  1
  O  O288  1  0.62644023  0.37113925  0.86759023  1
  O  O289  1  0.62906993  0.85889671  0.37442551  1
  O  O290  1  0.62165644  0.87183654  0.87275028  1
  O  O291  1  0.38678701  0.12800770  0.11812100  1
  O  O292  1  0.38518653  0.11681733  0.64098485  1
  O  O293  1  0.37164811  0.63051520  0.13572780  1
  O  O294  1  0.38085679  0.62730759  0.63461588  1
  O  O295  1  0.87033178  0.13269998  0.13486031  1
  O  O296  1  0.88802363  0.06057411  0.64534169  1
  O  O297  1  0.90253736  0.57870486  0.10822092  1
  O  O298  1  0.88170986  0.62991471  0.62570251  1
  O  O299  1  0.26948593  0.25400054  0.12080274  1
  O  O300  1  0.25410082  0.25555309  0.63611327  1
  O  O301  1  0.25749561  0.75146086  0.11657934  1
  O  O302  1  0.25254213  0.76219229  0.63267762  1
  O  O303  1  0.75473601  0.26090163  0.12975631  1
  O  O304  1  0.74561951  0.26879630  0.61241057  1
  O  O305  1  0.74472862  0.76136822  0.12716305  1
  O  O306  1  0.75717325  0.75232995  0.61528389  1
  O  O307  1  0.23049741  0.25335303  0.35881154  1
  O  O308  1  0.24444080  0.24225190  0.88358595  1
  O  O309  1  0.24725634  0.73570412  0.37090864  1
  O  O310  1  0.24056999  0.74530598  0.88083877  1
  O  O311  1  0.74923416  0.25193979  0.38347167  1
  O  O312  1  0.73508373  0.24370780  0.87839782  1
  O  O313  1  0.74892659  0.74324810  0.38082207  1
  O  O314  1  0.74425435  0.73981905  0.87290671  1
  O  O315  1  -0.00066641  0.11261102  -0.00016540  1
  O  O316  1  -0.03828421  0.11298373  0.50946659  1
  O  O317  1  0.00831180  0.61419734  -0.00831912  1
  O  O318  1  0.00527090  0.62796506  0.51244592  1
  O  O319  1  0.51026914  0.12656397  0.00876799  1
  O  O320  1  0.49600920  0.10952273  0.50818821  1
  O  O321  1  0.50674109  0.61307049  -0.00017164  1
  O  O322  1  0.50438623  0.61532709  0.50677079  1
  O  O323  1  0.49828664  0.38998608  0.50609220  1
  O  O324  1  0.50375388  0.39090115  0.99788745  1
  O  O325  1  0.48799526  0.88475863  0.50462428  1
  O  O326  1  0.48904748  0.87766863  0.99643824  1
  O  O327  1  0.98960719  0.37568000  0.49476478  1
  O  O328  1  0.99027530  0.40194466  0.99342510  1
  O  O329  1  0.99074618  0.86923025  0.48765245  1
  O  O330  1  0.99309341  0.88510752  0.99502600  1
  O  O331  1  0.49370798  0.50184495  0.38560736  1
  O  O332  1  0.49894124  0.49541399  0.88450605  1
  O  O333  1  0.49046401  0.99821737  0.37845487  1
  O  O334  1  0.49155836  0.99377341  0.87754628  1
  O  O335  1  0.99349635  0.49299067  0.37307154  1
  O  O336  1  0.99009477  0.49133565  0.86055462  1
  O  O337  1  0.98746686  0.98794878  0.36417802  1
  O  O338  1  0.99370693  0.99559558  0.88080289  1
  O  O339  1  -0.00344952  -0.00106221  0.11279156  1
  O  O340  1  0.03169453  -0.00721708  0.62359866  1
  O  O341  1  0.01615627  0.48640246  0.13623233  1
  O  O342  1  0.00949881  0.51049864  0.63340888  1
  O  O343  1  0.50840892  0.01123833  0.12354574  1
  O  O344  1  0.50452863  0.00177832  0.61737646  1
  O  O345  1  0.51054873  0.50203189  0.12108187  1
  O  O346  1  0.50485358  0.50590182  0.62074030  1
  O  O347  1  0.25914169  0.38939400  0.25474323  1
  O  O348  1  0.25504121  0.38824345  0.74290084  1
  O  O349  1  0.23934439  0.87908367  0.24840272  1
  O  O350  1  0.25169555  0.88334658  0.74262717  1
  O  O351  1  0.74935707  0.38738511  0.24287284  1
  O  O352  1  0.74195925  0.38168376  0.74019286  1
  O  O353  1  0.74713572  0.88144680  0.23840495  1
  O  O354  1  0.73556263  0.86815716  0.75022423  1
  O  O355  1  0.24979944  0.10837295  0.25168112  1
  O  O356  1  0.25546180  0.11779920  0.76245592  1
  O  O357  1  0.25910538  0.61729823  0.25914692  1
  O  O358  1  0.25598390  0.61563783  0.75587451  1
  O  O359  1  0.75760363  0.11716886  0.25006449  1
  O  O360  1  0.72907695  0.11453859  0.77049213  1
  O  O361  1  0.76219630  0.61251987  0.24874855  1
  O  O362  1  0.75563598  0.62639764  0.75639823  1
  O  O363  1  0.37728549  0.10773520  0.36559557  1
  O  O364  1  0.36895964  0.12237575  0.87361762  1
  O  O365  1  0.36871375  0.62066387  0.37177765  1
  O  O366  1  0.36434561  0.62991389  0.86747577  1
  O  O367  1  0.87424665  0.11698286  0.36014021  1
  O  O368  1  0.86277085  0.11693390  0.88219783  1
  O  O369  1  0.87154241  0.61396989  0.38193811  1
  O  O370  1  0.86901585  0.62267672  0.86983839  1
  O  O371  1  0.13178551  0.38013482  0.11955771  1
  O  O372  1  0.13716923  0.38277598  0.61896840  1
  O  O373  1  0.12404071  0.87390406  0.13752086  1
  O  O374  1  0.13888198  0.88210589  0.62139353  1
  O  O375  1  0.62997822  0.38325609  0.12860448  1
  O  O376  1  0.62996920  0.38060995  0.63104983  1
  O  O377  1  0.64268930  0.89485422  0.10346298  1
  O  O378  1  0.62294840  0.87823853  0.63514361  1
  O  O379  1  0.11361764  0.24577458  0.24978602  1
  O  O380  1  0.13977495  0.25989857  0.76949792  1
  O  O381  1  0.11640595  0.75657325  0.25294313  1
  O  O382  1  0.11813460  0.75430126  0.75666655  1
  O  O383  1  0.60791151  0.25124382  0.25071790  1
  O  O384  1  0.62627563  0.26294918  0.75527803  1
  O  O385  1  0.63148701  0.74477168  0.26658877  1
  O  O386  1  0.61602633  0.75679837  0.75805710  1
  O  O387  1  0.38445473  0.25374977  0.23642305  1
  O  O388  1  0.37771107  0.23393820  0.74617005  1
  O  O389  1  0.36905248  0.74246791  0.23971598  1
  O  O390  1  0.38200211  0.73974448  0.75021922  1
  O  O391  1  0.87202231  0.24268716  0.24023157  1
  O  O392  1  0.84510611  0.23783324  0.75078800  1
  O  O393  1  0.88757825  0.74104684  0.24724308  1
  O  O394  1  0.87905204  0.74803966  0.74288048  1
  O  O395  1  0.38367572  0.49533224  0.49959211  1
  O  O396  1  0.37874079  0.50458529  0.99792559  1
  O  O397  1  0.38057193  0.98788426  0.48448327  1
  O  O398  1  0.37337415  0.99128840  0.99540439  1
  O  O399  1  0.86913820  0.48645489  0.48798641  1
  O  O400  1  0.87645805  0.50428091  0.98301032  1
  O  O401  1  0.85889451  0.98197129  0.48093245  1
  O  O402  1  0.88540396  0.99283115  0.99420486  1
  O  O403  1  0.10906347  0.00498690  0.00064071  1
  O  O404  1  0.13584212  -0.00423423  0.49945867  1
  O  O405  1  0.11196387  0.50944447  0.02177103  1
  O  O406  1  0.12909614  0.51280107  0.51672543  1
  O  O407  1  0.62131450  0.01311371  0.00635822  1
  O  O408  1  0.61660456  -0.00392873  0.50571263  1
  O  O409  1  0.61800320  0.50959835  0.00747134  1
  O  O410  1  0.61970704  0.50662776  0.50336522  1
  O  O411  1  0.38042208  0.37082363  0.12056079  1
  O  O412  1  0.36201636  0.37322623  0.62155376  1
  O  O413  1  0.37045405  0.86785041  0.11240528  1
  O  O414  1  0.36890603  0.87468339  0.61570154  1
  O  O415  1  0.86394820  0.36898605  0.12452180  1
  O  O416  1  0.86759458  0.38665865  0.61060179  1
  O  O417  1  0.86816151  0.87905529  0.11428370  1
  O  O418  1  0.87483512  0.87266342  0.61333767  1
  O  O419  1  0.11989099  0.13800146  0.38387139  1
  O  O420  1  0.12993427  0.13481216  0.87961032  1
  O  O421  1  0.13276055  0.62185913  0.38480000  1
  O  O422  1  0.13022869  0.62840663  0.88195399  1
  O  O423  1  0.63090880  0.12697810  0.38106041  1
  O  O424  1  0.62652111  0.13353975  0.88614174  1
  O  O425  1  0.63530514  0.63169646  0.38183916  1
  O  O426  1  0.63140314  0.63085852  0.88165250  1
