# generated using pymatgen
data_V85Zn86O256
_symmetry_space_group_name_H-M   'P 1'
_cell_length_a   16.91676144
_cell_length_b   16.91800405
_cell_length_c   16.92188781
_cell_angle_alpha   89.99285977
_cell_angle_beta   89.96618635
_cell_angle_gamma   90.02404971
_symmetry_Int_Tables_number   1
_chemical_formula_structural   V85Zn86O256
_chemical_formula_sum   'V85 Zn86 O256'
_cell_volume   4843.00640868
_cell_formula_units_Z   1
loop_
 _symmetry_equiv_pos_site_id
 _symmetry_equiv_pos_as_xyz
  1  'x, y, z'
loop_
 _atom_site_type_symbol
 _atom_site_label
 _atom_site_symmetry_multiplicity
 _atom_site_fract_x
 _atom_site_fract_y
 _atom_site_fract_z
 _atom_site_occupancy
  V  V0  1  0.37868647  0.87353714  0.49934488  1
  V  V1  1  -0.01229259  0.87268531  0.87718428  1
  V  V2  1  0.87701233  0.48479089  0.38206898  1
  V  V3  1  0.50540128  0.37050054  0.88490115  1
  V  V4  1  0.61330299  0.62292205  0.00363576  1
  V  V5  1  0.50408100  0.62962692  0.62756164  1
  V  V6  1  0.75563142  0.74861483  -0.00311843  1
  V  V7  1  0.74685994  0.12379134  0.86585396  1
  V  V8  1  0.24606847  0.12297086  0.37343036  1
  V  V9  1  0.75439160  0.87194027  0.60856308  1
  V  V10  1  0.25459431  0.37415110  0.62475904  1
  V  V11  1  0.25441197  0.50047282  0.75158069  1
  V  V12  1  0.12519838  0.62238661  0.49943264  1
  V  V13  1  0.76013935  0.25317046  0.50846708  1
  V  V14  1  0.12679678  0.75996337  0.87070998  1
  V  V15  1  0.50310429  0.86989142  0.86688333  1
  V  V16  1  -0.01313880  0.12897589  0.12931408  1
  V  V17  1  0.13003328  0.87793963  0.25100425  1
  V  V18  1  0.62512123  -0.00097632  0.62494525  1
  V  V19  1  0.25272246  0.74987268  0.50266752  1
  V  V20  1  0.62133282  0.37944635  0.25669915  1
  V  V21  1  0.62345828  0.25269219  0.37811047  1
  V  V22  1  -0.00175389  0.62424024  0.12613089  1
  V  V23  1  0.38467416  0.49675631  0.37364845  1
  V  V24  1  0.38128448  0.49779180  0.88146787  1
  V  V25  1  0.24837928  0.12547741  0.87402449  1
  V  V26  1  0.49932019  -0.00159153  0.49352490  1
  V  V27  1  0.25265926  0.87752371  0.12940762  1
  V  V28  1  0.86682191  0.61604098  0.75713048  1
  V  V29  1  0.62866126  0.74527395  0.87027378  1
  V  V30  1  0.75734529  0.00371355  0.24654111  1
  V  V31  1  -0.01455029  0.12563977  0.62952525  1
  V  V32  1  0.25160437  0.49262045  0.24836482  1
  V  V33  1  0.12879001  0.49459319  0.12453651  1
  V  V34  1  0.75795638  0.37028111  0.13085504  1
  V  V35  1  0.12788322  0.49928041  0.62435485  1
  V  V36  1  0.24713850  0.87515283  0.63293636  1
  V  V37  1  0.51504245  0.25189696  0.75236494  1
  V  V38  1  0.00025864  0.75071890  0.74891754  1
  V  V39  1  0.49727042  0.12700954  0.12564124  1
  V  V40  1  0.25107934  0.75041031  0.00173822  1
  V  V41  1  0.00397464  0.74983281  0.24818878  1
  V  V42  1  0.38693223  0.37324534  0.49554024  1
  V  V43  1  0.87025640  0.62636892  0.25979746  1
  V  V44  1  -0.00966628  0.49946873  -0.00354364  1
  V  V45  1  -0.01004873  -0.00574711  0.50149025  1
  V  V46  1  0.50187398  0.12365912  0.62610543  1
  V  V47  1  -0.01154444  0.25195952  0.24719500  1
  V  V48  1  0.38787319  0.74702530  0.12344253  1
  V  V49  1  0.37960554  0.62309693  0.24675587  1
  V  V50  1  0.75668693  0.87569889  0.11708925  1
  V  V51  1  0.49986300  0.74991656  0.26288114  1
  V  V52  1  0.61441511  0.50348195  0.12472731  1
  V  V53  1  0.64495983  0.74817307  0.37734886  1
  V  V54  1  0.12527111  0.36792662  0.74855503  1
  V  V55  1  -0.00744036  0.87461469  0.37697556  1
  V  V56  1  0.62844077  0.86897926  0.74440595  1
  V  V57  1  0.37552264  -0.00059383  0.87090209  1
  V  V58  1  -0.00785057  0.37747607  0.87374377  1
  V  V59  1  0.87130448  0.74891441  0.61661286  1
  V  V60  1  0.50164636  0.00056788  -0.00222267  1
  V  V61  1  0.37233791  -0.00552137  0.37135846  1
  V  V62  1  0.75315237  0.12654726  0.36855696  1
  V  V63  1  0.12119997  0.12055232  0.49774697  1
  V  V64  1  0.37708631  0.25011628  0.62772267  1
  V  V65  1  0.63906856  0.62423512  0.49536913  1
  V  V66  1  0.12938106  0.00115325  0.12953223  1
  V  V67  1  0.37716216  0.87468510  -0.00080913  1
  V  V68  1  0.12738008  0.75073383  0.37517863  1
  V  V69  1  0.36892773  0.11992988  0.24949788  1
  V  V70  1  0.49639151  0.25430894  0.25629961  1
  V  V71  1  0.62349839  -0.00061345  0.12401848  1
  V  V72  1  -0.02497509  0.24635699  0.74863381  1
  V  V73  1  0.12154839  -0.00346352  0.63136712  1
  V  V74  1  -0.01040909  -0.00451312  0.00164023  1
  V  V75  1  0.12463154  0.62486486  -0.00078514  1
  V  V76  1  0.06919289  0.30588882  0.42932608  1
  V  V77  1  0.63133427  0.49560190  0.63042319  1
  V  V78  1  0.25113082  0.24957288  0.49737044  1
  V  V79  1  0.12389747  0.36559357  0.24589602  1
  V  V80  1  0.24968265  0.25766215  0.00525973  1
  V  V81  1  0.12099378  0.12492724  0.00048883  1
  V  V82  1  0.62076986  0.87545253  0.25193322  1
  V  V83  1  0.25172099  0.62521511  0.87472255  1
  V  V84  1  0.74760695  0.24880818  -0.01048828  1
  Zn  Zn85  1  0.24239745  -0.00293447  0.75396549  1
  Zn  Zn86  1  -0.00032730  0.48682839  0.49772341  1
  Zn  Zn87  1  0.63450505  0.37920055  0.75997545  1
  Zn  Zn88  1  0.76419254  0.00534639  0.74071550  1
  Zn  Zn89  1  0.87044817  -0.00367419  0.37499114  1
  Zn  Zn90  1  -0.00106850  0.62303647  0.62663423  1
  Zn  Zn91  1  0.37462852  0.12657663  0.75044521  1
  Zn  Zn92  1  0.61882016  0.13520131  -0.00467087  1
  Zn  Zn93  1  0.36736390  0.26010727  0.13079472  1
  Zn  Zn94  1  0.75028798  0.60329276  0.87980645  1
  Zn  Zn95  1  0.37437446  0.38267621  0.00929791  1
  Zn  Zn96  1  0.87477784  0.00491950  0.86931883  1
  Zn  Zn97  1  0.87765932  0.75230327  0.11941710  1
  Zn  Zn98  1  0.50743634  0.49862820  0.49658327  1
  Zn  Zn99  1  0.76560431  0.38548762  0.62371504  1
  Zn  Zn100  1  0.25317596  0.62451489  0.37447238  1
  Zn  Zn101  1  0.62547761  0.12457504  0.49730404  1
  Zn  Zn102  1  0.38543579  0.75371156  0.63148664  1
  Zn  Zn103  1  0.74899086  0.50493252  0.25406399  1
  Zn  Zn104  1  0.87264144  0.37349512  0.00044361  1
  Zn  Zn105  1  0.38580998  0.62945905  0.75224619  1
  Zn  Zn106  1  0.12117277  0.24889413  0.87343389  1
  Zn  Zn107  1  0.18450481  0.18509675  0.18822578  1
  Zn  Zn108  1  0.18493735  0.18414598  0.68373596  1
  Zn  Zn109  1  0.19209870  0.68520169  0.18685666  1
  Zn  Zn110  1  0.19071092  0.68742519  0.68868483  1
  Zn  Zn111  1  0.68402965  0.18976322  0.18661440  1
  Zn  Zn112  1  0.74942642  0.24342109  0.72901290  1
  Zn  Zn113  1  0.68699177  0.68880126  0.18449003  1
  Zn  Zn114  1  0.69009700  0.68489665  0.68473819  1
  Zn  Zn115  1  0.31053912  0.31109347  0.31389694  1
  Zn  Zn116  1  0.31699310  0.31138511  0.81571794  1
  Zn  Zn117  1  0.31311846  0.81210493  0.31278702  1
  Zn  Zn118  1  0.31530227  0.80979999  0.80925886  1
  Zn  Zn119  1  0.80921060  0.31428885  0.31488465  1
  Zn  Zn120  1  0.80755441  0.43069563  0.80512887  1
  Zn  Zn121  1  0.81417978  0.81427059  0.30231543  1
  Zn  Zn122  1  0.81045512  0.81074238  0.80470458  1
  Zn  Zn123  1  0.19934622  0.44089008  0.43783776  1
  Zn  Zn124  1  0.18155935  0.43763938  0.93346733  1
  Zn  Zn125  1  0.18669862  0.93816890  0.44063948  1
  Zn  Zn126  1  0.18524519  0.93855644  0.94173246  1
  Zn  Zn127  1  0.69572112  0.44015680  0.43716930  1
  Zn  Zn128  1  0.68286691  0.43446116  0.94784944  1
  Zn  Zn129  1  0.68429912  0.93574517  0.43266203  1
  Zn  Zn130  1  0.68829452  0.94037809  0.93516470  1
  Zn  Zn131  1  0.31170304  0.06436384  0.05986789  1
  Zn  Zn132  1  0.31171681  0.06112090  0.56333769  1
  Zn  Zn133  1  0.31385154  0.56308727  0.06440364  1
  Zn  Zn134  1  0.31787848  0.56248839  0.56186095  1
  Zn  Zn135  1  0.81021089  0.06635558  0.05903742  1
  Zn  Zn136  1  0.80728266  0.06488891  0.55785393  1
  Zn  Zn137  1  0.80536350  0.56125477  0.06668927  1
  Zn  Zn138  1  0.81583580  0.56348032  0.56216087  1
  Zn  Zn139  1  0.43703671  0.43263741  0.18565981  1
  Zn  Zn140  1  0.44497527  0.44023118  0.68935707  1
  Zn  Zn141  1  0.43901028  0.93639020  0.18889747  1
  Zn  Zn142  1  0.43784193  0.93546976  0.68736834  1
  Zn  Zn143  1  0.94005361  0.44003390  0.19286409  1
  Zn  Zn144  1  0.94552600  0.44165981  0.68629481  1
  Zn  Zn145  1  0.93949800  0.93730696  0.18626695  1
  Zn  Zn146  1  0.93604904  0.93203372  0.69112472  1
  Zn  Zn147  1  0.05988081  0.06278044  0.31123720  1
  Zn  Zn148  1  0.05545384  0.06231315  0.81260278  1
  Zn  Zn149  1  0.06130661  0.55817350  0.31506688  1
  Zn  Zn150  1  0.06251254  0.56506930  0.81202173  1
  Zn  Zn151  1  0.56268688  0.06440255  0.31191485  1
  Zn  Zn152  1  0.56817177  0.06393673  0.80931407  1
  Zn  Zn153  1  0.56295805  0.56702595  0.31150718  1
  Zn  Zn154  1  0.56513206  0.55841650  0.81378417  1
  Zn  Zn155  1  0.43636404  0.18440870  0.43689473  1
  Zn  Zn156  1  0.43445776  0.19048562  0.93719149  1
  Zn  Zn157  1  0.44198204  0.68201774  0.44134864  1
  Zn  Zn158  1  0.43930558  0.68848643  0.93270501  1
  Zn  Zn159  1  0.93330983  0.17579919  0.43130845  1
  Zn  Zn160  1  0.92867174  0.19232330  0.93854928  1
  Zn  Zn161  1  0.94277177  0.68533586  0.43791197  1
  Zn  Zn162  1  0.93686711  0.68561724  0.93560613  1
  Zn  Zn163  1  0.06164138  0.31161187  0.06329395  1
  Zn  Zn164  1  -0.06668815  0.30697473  0.56575999  1
  Zn  Zn165  1  0.06339132  0.81349285  0.06022969  1
  Zn  Zn166  1  0.06130406  0.81175768  0.56340923  1
  Zn  Zn167  1  0.56396726  0.31395102  0.06916714  1
  Zn  Zn168  1  0.56687964  0.31099546  0.56460402  1
  Zn  Zn169  1  0.56693056  0.81196691  0.05949192  1
  Zn  Zn170  1  0.56534220  0.81100967  0.55543868  1
  O  O171  1  0.12034337  0.11750897  0.11635855  1
  O  O172  1  0.11717776  0.11847444  0.61352461  1
  O  O173  1  0.11554433  0.61959945  0.12172917  1
  O  O174  1  0.12969426  0.61395216  0.61967756  1
  O  O175  1  0.60906142  0.11879054  0.12833447  1
  O  O176  1  0.60974186  0.11332765  0.61887033  1
  O  O177  1  0.62905222  0.61239637  0.12079580  1
  O  O178  1  0.62124735  0.61809781  0.61798953  1
  O  O179  1  0.36992028  0.38229366  0.38392911  1
  O  O180  1  0.38268440  0.38195537  0.88108066  1
  O  O181  1  0.36877685  0.88648491  0.38208688  1
  O  O182  1  0.38345573  0.87944243  0.87742778  1
  O  O183  1  0.87774185  0.38557927  0.37478559  1
  O  O184  1  0.88898917  0.37792578  0.87485914  1
  O  O185  1  0.88861350  0.87423988  0.36770507  1
  O  O186  1  0.88530766  0.87143308  0.87368826  1
  O  O187  1  0.25860770  0.01160146  0.38240849  1
  O  O188  1  0.25607616  0.00492910  0.87573226  1
  O  O189  1  0.26163498  0.50365578  0.36463335  1
  O  O190  1  0.25474301  0.50322819  0.86807967  1
  O  O191  1  0.74608748  0.00609168  0.36436293  1
  O  O192  1  0.75096374  0.01121227  0.87021495  1
  O  O193  1  0.76879323  0.49991472  0.37080574  1
  O  O194  1  0.74528542  0.49076594  0.87555671  1
  O  O195  1  0.23681329  0.50721234  0.13276469  1
  O  O196  1  0.25002622  0.49602625  0.63300587  1
  O  O197  1  0.24094440  0.99230429  0.11753388  1
  O  O198  1  0.24108663  0.99302794  0.62567628  1
  O  O199  1  0.73998717  0.48792444  0.13030352  1
  O  O200  1  0.73581000  0.50215029  0.62019473  1
  O  O201  1  0.74358670  0.99561909  0.12755546  1
  O  O202  1  0.74106388  0.99436278  0.62227445  1
  O  O203  1  0.01020762  0.36560809  0.24613088  1
  O  O204  1  0.00620921  0.36368922  0.75386665  1
  O  O205  1  0.00913132  0.86950276  0.25431495  1
  O  O206  1  0.00043117  0.85893542  0.75995716  1
  O  O207  1  0.50705030  0.36487523  0.25108310  1
  O  O208  1  0.50260486  0.36666184  0.75950098  1
  O  O209  1  0.51303646  0.86729275  0.24558051  1
  O  O210  1  0.51379690  0.87925967  0.75545209  1
  O  O211  1  0.48856410  0.12934159  0.24518463  1
  O  O212  1  0.49851710  0.13063479  0.74292568  1
  O  O213  1  0.48791146  0.63379997  0.25059797  1
  O  O214  1  0.50498534  0.61891769  0.73264551  1
  O  O215  1  1.00706692  0.13324763  0.23663306  1
  O  O216  1  1.00333804  0.13981445  0.74449022  1
  O  O217  1  0.99695119  0.62993406  0.24288680  1
  O  O218  1  0.99109899  0.63340687  0.75036274  1
  O  O219  1  0.35731405  0.24733218  0.00244303  1
  O  O220  1  0.37276158  0.25512296  0.50602208  1
  O  O221  1  0.37335946  0.75474602  0.00637568  1
  O  O222  1  0.36992083  0.75635380  0.50256762  1
  O  O223  1  0.85578393  0.25533368  0.00290012  1
  O  O224  1  0.86512648  0.24544792  0.49390050  1
  O  O225  1  0.86069221  0.74334520  0.00051081  1
  O  O226  1  0.88324313  0.74121219  0.51799768  1
  O  O227  1  0.12725502  0.24364625  0.49028397  1
  O  O228  1  0.13118467  0.24084027  0.99769315  1
  O  O229  1  0.13350854  0.74356818  0.49626603  1
  O  O230  1  0.13059853  0.74362028  0.99336998  1
  O  O231  1  0.62719211  0.24873027  0.48747667  1
  O  O232  1  0.64075789  0.25072082  1.01224657  1
  O  O233  1  0.62495146  0.74535801  0.48255959  1
  O  O234  1  0.63320479  0.74286080  0.99256326  1
  O  O235  1  0.49717592  0.24220491  0.13798113  1
  O  O236  1  0.49730167  0.24147465  0.63020552  1
  O  O237  1  0.49084911  0.75710753  0.13285837  1
  O  O238  1  0.50519244  0.73458225  0.61844470  1
  O  O239  1  1.00196058  0.23732181  0.13078492  1
  O  O240  1  0.99693222  0.24108502  0.63951498  1
  O  O241  1  1.00050201  0.74176237  0.12758109  1
  O  O242  1  0.99328873  0.74845740  0.63357953  1
  O  O243  1  0.00774157  0.24554100  0.37116230  1
  O  O244  1  -0.00079435  0.25386024  0.86332036  1
  O  O245  1  0.00855555  0.75705781  0.37038724  1
  O  O246  1  0.00716164  0.75497654  0.87218536  1
  O  O247  1  0.50673396  0.24198365  0.36466710  1
  O  O248  1  0.49218179  0.26111451  0.86625309  1
  O  O249  1  0.49968120  0.75073686  0.36461454  1
  O  O250  1  0.51201836  0.76237410  0.87783716  1
  O  O251  1  0.24096606  0.12937481  0.49664736  1
  O  O252  1  0.24099274  0.12898423  0.99058937  1
  O  O253  1  0.24394141  0.63277001  0.50101845  1
  O  O254  1  0.24561121  0.63190133  0.99485667  1
  O  O255  1  0.74523192  0.13356053  0.48832860  1
  O  O256  1  0.74296803  0.13704533  1.00102901  1
  O  O257  1  0.73840282  0.62815069  0.50369747  1
  O  O258  1  0.74091129  0.63177203  0.99838404  1
  O  O259  1  0.24463533  0.35926578  -0.00741122  1
  O  O260  1  0.25964457  0.36735534  0.50562728  1
  O  O261  1  0.25736196  0.86964836  0.00668830  1
  O  O262  1  0.25932759  0.86927374  0.50675421  1
  O  O263  1  0.74990481  0.36569996  0.01409755  1
  O  O264  1  0.74602611  0.35656662  0.50239986  1
  O  O265  1  0.74204882  0.86604161  0.00730725  1
  O  O266  1  0.74772150  0.87774922  0.50924408  1
  O  O267  1  0.13147680  0.49133378  0.24544032  1
  O  O268  1  0.13167734  0.49283803  0.74423743  1
  O  O269  1  0.12148768  0.99563601  0.23705869  1
  O  O270  1  0.12233186  1.00498267  0.73586626  1
  O  O271  1  0.62715350  0.49613430  0.24631745  1
  O  O272  1  0.62473522  0.49776310  0.73472071  1
  O  O273  1  0.62743319  0.99127297  0.24439902  1
  O  O274  1  0.62637348  0.99306195  0.73430704  1
  O  O275  1  0.37964613  0.00610589  0.25984143  1
  O  O276  1  0.37265118  0.00047561  0.76152665  1
  O  O277  1  0.37012442  0.50501080  0.25318015  1
  O  O278  1  0.36872050  0.50136540  0.75969654  1
  O  O279  1  0.86027278  -0.00601481  0.24971664  1
  O  O280  1  0.87711176  0.00040667  0.75452449  1
  O  O281  1  0.87842381  0.51242909  0.26049335  1
  O  O282  1  0.87894122  0.51181499  0.75033933  1
  O  O283  1  0.12737534  0.37061867  0.37268031  1
  O  O284  1  0.11454308  0.37220580  0.86425194  1
  O  O285  1  0.12069774  0.87154773  0.36901373  1
  O  O286  1  0.12006681  0.86339597  0.88007288  1
  O  O287  1  0.63126748  0.36954266  0.36458656  1
  O  O288  1  0.60885557  0.37575277  0.87742490  1
  O  O289  1  0.62776739  0.86022909  0.36522262  1
  O  O290  1  0.62078440  0.86981279  0.86515779  1
  O  O291  1  0.38174518  0.12396887  0.13295009  1
  O  O292  1  0.38494390  0.12827007  0.62575078  1
  O  O293  1  0.37209926  0.63547127  0.13292050  1
  O  O294  1  0.39352988  0.62337092  0.62264157  1
  O  O295  1  0.88862886  0.12003542  0.12627852  1
  O  O296  1  0.88646668  0.12006468  0.62055477  1
  O  O297  1  0.88801585  0.62205912  0.13223332  1
  O  O298  1  0.87660863  0.63230593  0.63656785  1
  O  O299  1  0.24753551  0.24106099  0.10882862  1
  O  O300  1  0.25641203  0.25304745  0.61838324  1
  O  O301  1  0.25949112  0.75639162  0.11971864  1
  O  O302  1  0.24830209  0.75712505  0.61447918  1
  O  O303  1  0.74606769  0.26626678  0.12835624  1
  O  O304  1  0.74679791  0.24163824  0.60759195  1
  O  O305  1  0.74963527  0.75875524  0.11548053  1
  O  O306  1  0.76315941  0.75598601  0.62701387  1
  O  O307  1  0.25633443  0.23306341  0.38261460  1
  O  O308  1  0.24706178  0.24060864  0.88318516  1
  O  O309  1  0.24697783  0.74977881  0.38737150  1
  O  O310  1  0.24392447  0.74773852  0.88088085  1
  O  O311  1  0.74225699  0.24390553  0.37970993  1
  O  O312  1  0.74382013  0.24095273  0.88783611  1
  O  O313  1  0.74311444  0.75093558  0.36850014  1
  O  O314  1  0.73951683  0.75265507  0.88029554  1
  O  O315  1  0.00419984  0.12211211  0.00892300  1
  O  O316  1  0.00508297  0.11753165  0.50506536  1
  O  O317  1  0.00415110  0.61876340  0.00591667  1
  O  O318  1  0.01799343  0.62646563  0.50405615  1
  O  O319  1  0.49804943  0.12236436  0.00821496  1
  O  O320  1  0.49925524  0.11523860  0.50673788  1
  O  O321  1  0.51365790  0.63270096  -0.00074356  1
  O  O322  1  0.51258212  0.62108082  0.50870762  1
  O  O323  1  0.48997605  0.37462975  0.50195243  1
  O  O324  1  0.49583044  0.36470960  0.98868980  1
  O  O325  1  0.48662996  0.88166548  0.50471564  1
  O  O326  1  0.49600928  0.87958042  0.99087977  1
  O  O327  1  1.01311366  0.36225784  0.49289128  1
  O  O328  1  0.99963938  0.38096149  0.99260677  1
  O  O329  1  1.00675322  0.88237251  0.48910690  1
  O  O330  1  1.00370276  0.88381240  0.99223488  1
  O  O331  1  0.48879726  0.50212028  0.37431721  1
  O  O332  1  0.49252743  0.48522065  0.87061265  1
  O  O333  1  0.49211319  1.00493591  0.38661886  1
  O  O334  1  0.49499952  0.99184952  0.87670916  1
  O  O335  1  0.98657793  0.50294703  0.37968470  1
  O  O336  1  1.00960922  0.49240640  0.88612647  1
  O  O337  1  0.99855037  0.99234011  0.38152834  1
  O  O338  1  1.00066823  0.99020570  0.88405724  1
  O  O339  1  0.00606156  0.00833488  0.12046155  1
  O  O340  1  0.00474265  0.00183254  0.61891135  1
  O  O341  1  0.01037458  0.50593667  0.12030608  1
  O  O342  1  0.01512517  0.50338539  0.61723767  1
  O  O343  1  0.50182025  0.00651885  0.11879985  1
  O  O344  1  0.50278125  0.00373668  0.61589359  1
  O  O345  1  0.51533291  0.49898067  0.13329589  1
  O  O346  1  0.51276958  0.50782824  0.61950383  1
  O  O347  1  0.24266435  0.38560134  0.25467402  1
  O  O348  1  0.24562702  0.38345419  0.74917464  1
  O  O349  1  0.24379082  0.87074000  0.24084606  1
  O  O350  1  0.25070293  0.87648643  0.73679180  1
  O  O351  1  0.74131078  0.37687400  0.24363688  1
  O  O352  1  0.74736949  0.35802557  0.73870806  1
  O  O353  1  0.73911966  0.88132814  0.24059198  1
  O  O354  1  0.73894846  0.87814796  0.74013941  1
  O  O355  1  0.25973860  0.12727059  0.25689673  1
  O  O356  1  0.24837734  0.12303826  0.76269324  1
  O  O357  1  0.26113896  0.61536258  0.25077735  1
  O  O358  1  0.24944268  0.61165747  0.75580022  1
  O  O359  1  0.73998590  0.11462827  0.25362876  1
  O  O360  1  0.74543967  0.13269049  0.76327746  1
  O  O361  1  0.76775986  0.62616069  0.24125287  1
  O  O362  1  0.76392398  0.62765916  0.75384391  1
  O  O363  1  0.36844931  0.11437499  0.36896511  1
  O  O364  1  0.36628777  0.11607926  0.87496319  1
  O  O365  1  0.37422614  0.61761750  0.36754968  1
  O  O366  1  0.37056539  0.61791712  0.87313103  1
  O  O367  1  0.85862765  0.11739075  0.36992580  1
  O  O368  1  0.85297870  0.12366916  0.88610135  1
  O  O369  1  0.88024679  0.62855496  0.36106256  1
  O  O370  1  0.87197706  0.62785180  0.86097571  1
  O  O371  1  0.12331501  0.38366613  0.13241827  1
  O  O372  1  0.13713956  0.38818279  0.63339268  1
  O  O373  1  0.13123279  0.88176589  0.12938695  1
  O  O374  1  0.13411171  0.88452213  0.61720664  1
  O  O375  1  0.62937282  0.38490759  0.13709710  1
  O  O376  1  0.62542063  0.39031747  0.62249696  1
  O  O377  1  0.63239586  0.87973170  0.13120916  1
  O  O378  1  0.63065675  0.87736168  0.62704089  1
  O  O379  1  0.12152743  0.26089606  0.24766483  1
  O  O380  1  0.12879255  0.26224298  0.74880189  1
  O  O381  1  0.12317616  0.75422367  0.25488970  1
  O  O382  1  0.11684463  0.74128291  0.76049980  1
  O  O383  1  0.61697546  0.25757036  0.25942519  1
  O  O384  1  0.61540517  0.25327264  0.74519138  1
  O  O385  1  0.61959842  0.75266390  0.25761995  1
  O  O386  1  0.63045339  0.75573226  0.75734847  1
  O  O387  1  0.38023048  0.24091754  0.25133428  1
  O  O388  1  0.38121667  0.24827491  0.74119943  1
  O  O389  1  0.38129959  0.74454452  0.24457839  1
  O  O390  1  0.37161922  0.74202200  0.74331148  1
  O  O391  1  0.88935159  0.25418564  0.25789628  1
  O  O392  1  0.87809692  0.24828164  0.75088391  1
  O  O393  1  0.88415781  0.74038760  0.24390697  1
  O  O394  1  0.88247464  0.74091799  0.74304893  1
  O  O395  1  0.37601556  0.49107231  0.49017691  1
  O  O396  1  0.36827557  0.50093999  0.98624980  1
  O  O397  1  0.37976202  0.99312789  0.49391479  1
  O  O398  1  0.37994565  0.99497113  0.98885885  1
  O  O399  1  0.88071209  0.50710095  0.48634976  1
  O  O400  1  0.88780796  0.49891940  1.00735521  1
  O  O401  1  0.88626169  1.00127580  0.49717522  1
  O  O402  1  0.88677277  1.00172034  0.99893297  1
  O  O403  1  0.11575925  0.00687295  0.00931580  1
  O  O404  1  0.11588855  0.00579585  0.50833786  1
  O  O405  1  0.12035745  0.50528470  0.00829921  1
  O  O406  1  0.12971839  0.50564752  0.50599806  1
  O  O407  1  0.61671773  0.00097395  0.00760621  1
  O  O408  1  0.61514680  -0.00309700  0.50636199  1
  O  O409  1  0.62291203  0.50638134  0.01646133  1
  O  O410  1  0.62657548  0.50752443  0.50297916  1
  O  O411  1  0.36963311  0.37374021  0.12179025  1
  O  O412  1  0.37295708  0.37128470  0.61868611  1
  O  O413  1  0.37136059  0.86904528  0.12033473  1
  O  O414  1  0.36660660  0.87539243  0.61659690  1
  O  O415  1  0.86067449  0.38272967  0.12860018  1
  O  O416  1  0.87833545  0.38612690  0.61840179  1
  O  O417  1  0.86142929  0.87312011  0.12907404  1
  O  O418  1  0.86859578  0.85941624  0.62760649  1
  O  O419  1  0.13162605  0.11533862  0.38695750  1
  O  O420  1  0.12843418  0.12316702  0.88555074  1
  O  O421  1  0.12989998  0.63001833  0.38206769  1
  O  O422  1  0.13208924  0.63264088  0.88128734  1
  O  O423  1  0.63261955  0.13397792  0.37433314  1
  O  O424  1  0.63835140  0.11873515  0.88076425  1
  O  O425  1  0.62398023  0.63876802  0.37886758  1
  O  O426  1  0.62658562  0.63082209  0.88106290  1
