# generated using pymatgen
data_V85Zn86O256
_symmetry_space_group_name_H-M   'P 1'
_cell_length_a   16.95461069
_cell_length_b   16.95683292
_cell_length_c   16.94627518
_cell_angle_alpha   90.00101705
_cell_angle_beta   90.02972655
_cell_angle_gamma   89.87300329
_symmetry_Int_Tables_number   1
_chemical_formula_structural   V85Zn86O256
_chemical_formula_sum   'V85 Zn86 O256'
_cell_volume   4871.98219042
_cell_formula_units_Z   1
loop_
 _symmetry_equiv_pos_site_id
 _symmetry_equiv_pos_as_xyz
  1  'x, y, z'
loop_
 _atom_site_type_symbol
 _atom_site_label
 _atom_site_symmetry_multiplicity
 _atom_site_fract_x
 _atom_site_fract_y
 _atom_site_fract_z
 _atom_site_occupancy
  V  V0  1  0.25662657  0.62315312  0.87314779  1
  V  V1  1  0.75101255  0.37088895  0.12400808  1
  V  V2  1  0.50498945  -0.00175973  0.00129505  1
  V  V3  1  0.49631057  0.25119920  0.24649294  1
  V  V4  1  0.62191916  -0.00109931  0.62856101  1
  V  V5  1  0.87788374  0.12088421  0.26324265  1
  V  V6  1  0.00196837  0.00779175  0.00602488  1
  V  V7  1  0.12576614  0.87173025  0.24770715  1
  V  V8  1  0.62802152  0.61846952  0.00951141  1
  V  V9  1  0.62830419  0.12768655  0.00469179  1
  V  V10  1  0.12439002  0.50169945  0.62483454  1
  V  V11  1  0.37591031  0.87153788  0.00077071  1
  V  V12  1  -0.05979138  0.80077921  0.18787407  1
  V  V13  1  0.62611156  0.38008210  0.24473326  1
  V  V14  1  0.11584178  0.37578139  0.25193623  1
  V  V15  1  0.75311449  0.25500939  0.52025799  1
  V  V16  1  0.11757183  0.11233994  0.50379502  1
  V  V17  1  0.36412447  0.12905148  0.75527618  1
  V  V18  1  0.62205363  0.25814563  0.87898422  1
  V  V19  1  0.25286604  -0.01197601  0.73877685  1
  V  V20  1  0.87316641  0.00188862  0.87950800  1
  V  V21  1  0.12502426  0.62227852  -0.00011145  1
  V  V22  1  0.12703757  0.62559186  0.49332515  1
  V  V23  1  0.25538555  0.50361372  0.26432699  1
  V  V24  1  0.24635266  0.25028792  0.49819980  1
  V  V25  1  0.07932825  0.93733164  0.69220435  1
  V  V26  1  0.37800213  0.37300759  0.00377921  1
  V  V27  1  0.00368486  0.75044762  0.74771240  1
  V  V28  1  0.00832684  0.88072897  0.87761041  1
  V  V29  1  0.37599702  0.37815248  0.49614563  1
  V  V30  1  0.73093087  -0.00449543  0.25025897  1
  V  V31  1  0.25139273  0.37360824  0.12722206  1
  V  V32  1  0.87669535  0.49851287  0.87605384  1
  V  V33  1  0.37345105  0.12746474  0.24538130  1
  V  V34  1  0.12368714  0.74809935  0.36841056  1
  V  V35  1  0.74543632  0.87231628  0.62758076  1
  V  V36  1  0.50204152  0.12562554  0.12489252  1
  V  V37  1  0.49690109  0.25962988  0.75430765  1
  V  V38  1  0.75041935  0.49216933  0.74385041  1
  V  V39  1  0.87289657  0.37015332  0.00130024  1
  V  V40  1  0.50204627  0.75332606  0.25019632  1
  V  V41  1  0.87055758  0.37775713  0.49985607  1
  V  V42  1  0.87317663  0.74828187  0.62718069  1
  V  V43  1  -0.00139099  0.62136059  0.62400080  1
  V  V44  1  0.11293624  0.25305409  0.37795120  1
  V  V45  1  0.63211068  0.25190160  0.37460207  1
  V  V46  1  0.24795605  0.76134069  0.50013755  1
  V  V47  1  0.12487351  0.37537945  0.75161936  1
  V  V48  1  0.87374451  0.13024652  0.74252035  1
  V  V49  1  0.25174495  0.00153648  0.24918076  1
  V  V50  1  0.74908820  0.13221544  0.87988088  1
  V  V51  1  0.25457227  0.87489555  0.12657481  1
  V  V52  1  0.74390359  -0.00030513  0.75483909  1
  V  V53  1  0.75304974  0.74815850  0.49928368  1
  V  V54  1  0.88507023  0.61303255  0.24909984  1
  V  V55  1  0.13051860  0.24709103  0.87495764  1
  V  V56  1  0.87899015  0.23696380  0.12015420  1
  V  V57  1  0.49187377  0.62585485  0.63546242  1
  V  V58  1  0.49600235  0.12673859  0.62946723  1
  V  V59  1  0.25681417  0.24545625  0.00046083  1
  V  V60  1  0.49758246  0.37802131  0.37536504  1
  V  V61  1  0.74845392  0.62309086  0.87641729  1
  V  V62  1  0.49876875  0.61538192  0.13040544  1
  V  V63  1  -0.00607096  0.49596613  0.48248417  1
  V  V64  1  0.36733115  0.00427445  0.87841589  1
  V  V65  1  0.49814202  -0.00151429  0.50094798  1
  V  V66  1  0.62611017  0.75378459  0.37228944  1
  V  V67  1  0.37344988  0.75496494  0.63669601  1
  V  V68  1  0.37395029  -0.00026450  0.37256952  1
  V  V69  1  0.61467150  0.74297837  0.87304296  1
  V  V70  1  0.12936766  0.75250680  0.86829574  1
  V  V71  1  0.62032382  0.86693763  0.75316175  1
  V  V72  1  0.25458405  0.50480403  0.74528312  1
  V  V73  1  -0.00199917  0.25079643  0.74366030  1
  V  V74  1  0.38066377  0.49600463  0.87130340  1
  V  V75  1  0.75338926  0.49731643  0.25430662  1
  V  V76  1  0.37267268  0.74140434  0.13051912  1
  V  V77  1  -0.00439215  0.88263853  0.37986315  1
  V  V78  1  0.87404648  0.89001612  0.49699408  1
  V  V79  1  0.62327773  0.12762356  0.50290432  1
  V  V80  1  0.62491151  0.62141836  0.50113152  1
  V  V81  1  0.62244126  0.49503313  0.62171052  1
  V  V82  1  0.12501294  0.12968037  0.00703172  1
  V  V83  1  0.25070663  0.37741316  0.62407324  1
  V  V84  1  0.50381645  0.49435249  -0.00113754  1
  Zn  Zn85  1  0.36740296  0.88169927  0.50819685  1
  Zn  Zn86  1  -0.00029394  0.37332198  0.87607171  1
  Zn  Zn87  1  -0.00048809  0.24607410  0.24779898  1
  Zn  Zn88  1  0.75586181  0.75169237  0.01041227  1
  Zn  Zn89  1  0.00040359  0.49840651  0.00180710  1
  Zn  Zn90  1  0.62438444  0.37462611  0.74832095  1
  Zn  Zn91  1  0.49514166  0.87005925  0.87050288  1
  Zn  Zn92  1  0.12769038  0.00673736  0.12662376  1
  Zn  Zn93  1  0.50166089  0.87743798  0.37261249  1
  Zn  Zn94  1  0.75174311  0.12005783  0.37967993  1
  Zn  Zn95  1  0.00059329  0.11782753  0.62305261  1
  Zn  Zn96  1  0.37405008  0.25095785  0.62490040  1
  Zn  Zn97  1  0.87431715  0.87297138  0.01118872  1
  Zn  Zn98  1  0.46201441  0.53730614  0.45009139  1
  Zn  Zn99  1  0.87487239  0.62343419  0.75104454  1
  Zn  Zn100  1  0.72478764  -0.12537360  0.12650232  1
  Zn  Zn101  1  0.12514178  0.49971597  0.12405761  1
  Zn  Zn102  1  0.37319897  0.61924567  0.29009263  1
  Zn  Zn103  1  -0.00354746  0.62596503  0.12163545  1
  Zn  Zn104  1  0.75693621  0.61950715  0.37517299  1
  Zn  Zn105  1  0.25206486  0.74734451  -0.00042046  1
  Zn  Zn106  1  0.24766941  0.12661475  0.37500901  1
  Zn  Zn107  1  0.18955060  0.19420086  0.18683684  1
  Zn  Zn108  1  0.18612357  0.18597497  0.68325798  1
  Zn  Zn109  1  0.19022466  0.68347023  0.18934444  1
  Zn  Zn110  1  0.19134656  0.68765811  0.68437867  1
  Zn  Zn111  1  0.69221669  0.18813787  0.18824013  1
  Zn  Zn112  1  0.68182101  0.18598433  0.69414515  1
  Zn  Zn113  1  0.69385571  0.68846583  0.18736219  1
  Zn  Zn114  1  0.68573966  0.68171430  0.68971940  1
  Zn  Zn115  1  0.30995300  0.31405309  0.31460348  1
  Zn  Zn116  1  0.31240121  0.31696698  0.81636690  1
  Zn  Zn117  1  0.31322777  0.81175667  0.31503624  1
  Zn  Zn118  1  0.31309677  0.81334479  0.81238513  1
  Zn  Zn119  1  0.81847098  0.31077687  0.31494000  1
  Zn  Zn120  1  0.81093616  0.31250948  0.81183758  1
  Zn  Zn121  1  0.80665178  0.81726230  0.31528988  1
  Zn  Zn122  1  0.82807891  0.79739536  0.84273708  1
  Zn  Zn123  1  0.18218967  0.43548023  0.43756107  1
  Zn  Zn124  1  0.19041652  0.43584469  0.93647912  1
  Zn  Zn125  1  0.18590299  0.93631145  0.43238879  1
  Zn  Zn126  1  0.19084831  0.94140347  0.93660153  1
  Zn  Zn127  1  0.68844530  0.43513205  0.43674444  1
  Zn  Zn128  1  0.69169448  0.43717478  0.94010369  1
  Zn  Zn129  1  0.68761127  0.93800697  0.43579196  1
  Zn  Zn130  1  0.68642044  0.93292518  0.94285643  1
  Zn  Zn131  1  0.31610855  0.06401931  0.06522880  1
  Zn  Zn132  1  0.31008891  0.06730588  0.56318571  1
  Zn  Zn133  1  0.31045170  0.55743572  0.06280091  1
  Zn  Zn134  1  0.32809109  0.58589045  0.51966849  1
  Zn  Zn135  1  0.80669903  0.05640155  0.06675567  1
  Zn  Zn136  1  0.80626396  0.06596734  0.56551198  1
  Zn  Zn137  1  0.81370462  0.55829886  0.06894339  1
  Zn  Zn138  1  0.81317428  0.55974653  0.56225747  1
  Zn  Zn139  1  0.43310387  0.43800627  0.18886930  1
  Zn  Zn140  1  0.43651225  0.44109358  0.68025150  1
  Zn  Zn141  1  0.54812336  0.93831460  0.18563671  1
  Zn  Zn142  1  0.43652466  0.93689254  0.69029472  1
  Zn  Zn143  1  0.93963946  0.43877000  0.18155567  1
  Zn  Zn144  1  0.93458580  0.43350715  0.68409414  1
  Zn  Zn145  1  0.94279541  0.96422605  0.19504479  1
  Zn  Zn146  1  0.91641578  0.93643839  0.69174657  1
  Zn  Zn147  1  0.06445361  0.06470063  0.31438581  1
  Zn  Zn148  1  0.06407368  0.07327573  0.82054179  1
  Zn  Zn149  1  0.06660684  0.56263565  0.30753337  1
  Zn  Zn150  1  0.06356416  0.56354209  0.81335536  1
  Zn  Zn151  1  0.56158314  0.06816801  0.31841679  1
  Zn  Zn152  1  0.55669854  0.06476215  0.81701534  1
  Zn  Zn153  1  0.57253133  0.56664952  0.30618834  1
  Zn  Zn154  1  0.56215452  0.55976463  0.81083748  1
  Zn  Zn155  1  0.43661435  0.19031886  0.43506900  1
  Zn  Zn156  1  0.43835972  0.18793405  0.93597887  1
  Zn  Zn157  1  0.44045016  0.70281842  0.44539880  1
  Zn  Zn158  1  0.43742943  0.68139580  0.94014041  1
  Zn  Zn159  1  0.93594183  0.19160248  0.44341612  1
  Zn  Zn160  1  0.94019458  0.19005256  0.93483053  1
  Zn  Zn161  1  0.93942819  0.69017754  0.43040601  1
  Zn  Zn162  1  0.93893115  0.68830290  0.93893782  1
  Zn  Zn163  1  0.05971133  0.31338318  0.06452339  1
  Zn  Zn164  1  0.05867574  0.31520302  0.56309676  1
  Zn  Zn165  1  0.07143909  0.81619808  0.05342396  1
  Zn  Zn166  1  0.05688923  0.81034850  0.55462701  1
  Zn  Zn167  1  0.56264170  0.31019640  0.06443972  1
  Zn  Zn168  1  0.55995464  0.31240706  0.56173356  1
  Zn  Zn169  1  0.56208453  0.80076229  0.05871065  1
  Zn  Zn170  1  0.55952006  0.80943359  0.56390022  1
  O  O171  1  0.13052623  0.12789687  0.11204129  1
  O  O172  1  0.12295367  0.12521372  0.60897305  1
  O  O173  1  0.12811145  0.62742469  0.10854194  1
  O  O174  1  0.11637797  0.62141903  0.61678181  1
  O  O175  1  0.61887388  0.13162302  0.11406779  1
  O  O176  1  0.61642241  0.11890304  0.62303055  1
  O  O177  1  0.61500432  0.62523482  0.11662485  1
  O  O178  1  0.61538383  0.61982525  0.61911635  1
  O  O179  1  0.38568734  0.37044389  0.38152031  1
  O  O180  1  0.37080567  0.38784816  0.88811498  1
  O  O181  1  0.37692130  0.88947074  0.37784375  1
  O  O182  1  0.37579132  0.87982625  0.88396477  1
  O  O183  1  0.87819502  0.36124202  0.39696552  1
  O  O184  1  0.87318814  0.38035844  0.88348516  1
  O  O185  1  0.88213133  0.86758861  0.38666279  1
  O  O186  1  0.89111657  0.89425780  0.86384245  1
  O  O187  1  0.25716316  0.00371929  0.36844330  1
  O  O188  1  0.26202573  -0.00106900  0.86656379  1
  O  O189  1  0.24743180  0.49473587  0.36322658  1
  O  O190  1  0.25738342  0.50543847  0.86705056  1
  O  O191  1  0.73956775  0.00533304  0.36086022  1
  O  O192  1  0.75694108  0.00752004  0.87378354  1
  O  O193  1  0.74659254  0.49801530  0.36031416  1
  O  O194  1  0.75780088  0.50591909  0.86953421  1
  O  O195  1  0.24669137  0.48796692  0.13004357  1
  O  O196  1  0.24278289  0.49625568  0.63242844  1
  O  O197  1  0.25269056  0.99106633  0.13101196  1
  O  O198  1  0.25555402  0.99994059  0.63943032  1
  O  O199  1  0.75833319  0.48127117  0.13847919  1
  O  O200  1  0.73841734  0.50813651  0.63374295  1
  O  O201  1  0.74932212  0.99706112  0.14490830  1
  O  O202  1  0.73971795  0.99468236  0.63295506  1
  O  O203  1  0.01322952  0.37371181  0.24549086  1
  O  O204  1  0.00685220  0.36870534  0.75178421  1
  O  O205  1  -0.00119706  0.86755200  0.24801001  1
  O  O206  1  0.01007519  0.87841634  0.75151121  1
  O  O207  1  0.50603570  0.36790364  0.25087020  1
  O  O208  1  0.49744981  0.36235173  0.74486660  1
  O  O209  1  0.49531879  0.85713716  0.25095082  1
  O  O210  1  0.51514843  0.88112731  0.75324489  1
  O  O211  1  0.49552547  0.13179468  0.24420815  1
  O  O212  1  0.48857693  0.13185721  0.74599033  1
  O  O213  1  0.49285422  0.62755955  0.24535796  1
  O  O214  1  0.50163350  0.62466774  0.73444726  1
  O  O215  1  0.98351775  0.12289299  0.25250010  1
  O  O216  1  0.99150892  0.13113549  0.74994765  1
  O  O217  1  0.98941921  0.62306666  0.24595331  1
  O  O218  1  0.99923490  0.63011264  0.74075423  1
  O  O219  1  0.36899423  0.26016920  -0.00712312  1
  O  O220  1  0.36505600  0.25776553  0.49965011  1
  O  O221  1  0.37518783  0.75620303  0.00669425  1
  O  O222  1  0.36320416  0.75948586  0.50711468  1
  O  O223  1  0.87679776  0.25261817  0.01085853  1
  O  O224  1  0.85771437  0.25150802  0.50508006  1
  O  O225  1  0.86287168  0.76689806  -0.03991093  1
  O  O226  1  0.86407875  0.75145610  0.50555349  1
  O  O227  1  0.12933787  0.25023535  0.49382395  1
  O  O228  1  0.13118344  0.24776920  0.99484324  1
  O  O229  1  0.12898336  0.74386470  0.49423978  1
  O  O230  1  0.12979368  0.74342927  0.98443505  1
  O  O231  1  0.63369553  0.24938305  0.49518371  1
  O  O232  1  0.61762819  0.23834777  0.99149787  1
  O  O233  1  0.63493154  0.74123183  0.49879108  1
  O  O234  1  0.62641083  0.73309490  0.98975651  1
  O  O235  1  0.50108623  0.23917489  0.13455099  1
  O  O236  1  0.49926802  0.24179848  0.63354518  1
  O  O237  1  0.49253820  0.73607907  0.13223471  1
  O  O238  1  0.48661791  0.73851272  0.61921515  1
  O  O239  1  0.98335692  0.25075690  0.12786958  1
  O  O240  1  1.00781918  0.24631279  0.64049219  1
  O  O241  1  1.00066108  0.74995284  0.12202027  1
  O  O242  1  0.99551290  0.73997219  0.62780927  1
  O  O243  1  0.01017173  0.24796533  0.37354938  1
  O  O244  1  0.01047938  0.25140817  0.86405037  1
  O  O245  1  0.01548278  0.76181403  0.38018141  1
  O  O246  1  0.00908710  0.76162757  0.86639349  1
  O  O247  1  0.51040610  0.25786221  0.36820477  1
  O  O248  1  0.50946805  0.24548683  0.86588738  1
  O  O249  1  0.50721217  0.75268144  0.36830968  1
  O  O250  1  0.51020695  0.74630112  0.87808449  1
  O  O251  1  0.23957252  0.13454433  0.49928958  1
  O  O252  1  0.24874636  0.13977005  1.00613377  1
  O  O253  1  0.23105514  0.63761181  0.50175140  1
  O  O254  1  0.24407696  0.62406325  0.98974302  1
  O  O255  1  0.74241067  0.13805933  0.50149825  1
  O  O256  1  0.73896826  0.11698516  0.99300148  1
  O  O257  1  0.74645190  0.63252615  0.49797975  1
  O  O258  1  0.74277146  0.61950907  0.99553969  1
  O  O259  1  0.25790560  0.36948572  0.00732307  1
  O  O260  1  0.25447968  0.36957704  0.50360707  1
  O  O261  1  0.26049404  0.87481818  0.00631629  1
  O  O262  1  0.24519643  0.86569197  0.50150241  1
  O  O263  1  0.76274141  0.37734512  0.00890461  1
  O  O264  1  0.75417100  0.36370333  0.50156802  1
  O  O265  1  0.75731811  0.87831631  0.00874298  1
  O  O266  1  0.75297250  0.86692821  0.50673725  1
  O  O267  1  0.13634762  0.49183891  0.24852302  1
  O  O268  1  0.13167245  0.49475844  0.74660659  1
  O  O269  1  0.13387235  0.99413909  0.24737338  1
  O  O270  1  0.13647304  1.00314385  0.75307736  1
  O  O271  1  0.63331884  0.48596974  0.24769430  1
  O  O272  1  0.63057240  0.49621743  0.74196650  1
  O  O273  1  0.62452142  1.00148122  0.24954118  1
  O  O274  1  0.62723630  0.99667510  0.74885435  1
  O  O275  1  0.36846542  0.01169392  0.25959491  1
  O  O276  1  0.36666631  0.00567191  0.75677730  1
  O  O277  1  0.36073046  0.50082423  0.25195047  1
  O  O278  1  0.36644555  0.49290200  0.75828704  1
  O  O279  1  0.86414197  0.01747946  0.25299763  1
  O  O280  1  0.86446294  0.01085595  0.75996611  1
  O  O281  1  0.87225594  0.50662684  0.25120430  1
  O  O282  1  0.86795020  0.49887019  0.75601923  1
  O  O283  1  0.12943911  0.36448177  0.36492904  1
  O  O284  1  0.12393501  0.36632773  0.86918674  1
  O  O285  1  0.11758498  0.86948127  0.36570721  1
  O  O286  1  0.11759987  0.86908078  0.87901202  1
  O  O287  1  0.62009833  0.36719020  0.36731280  1
  O  O288  1  0.63158270  0.36091021  0.87671192  1
  O  O289  1  0.62139360  0.85808416  0.38412553  1
  O  O290  1  0.62331320  0.86179113  0.87042388  1
  O  O291  1  0.38251042  0.12551966  0.13879035  1
  O  O292  1  0.37999465  0.13005739  0.63359079  1
  O  O293  1  0.38043584  0.63428488  0.11696457  1
  O  O294  1  0.38669685  0.63155930  0.61449118  1
  O  O295  1  0.86818324  0.13475818  0.13070646  1
  O  O296  1  0.87805689  0.11836126  0.63907460  1
  O  O297  1  0.87555889  0.62493685  0.14146374  1
  O  O298  1  0.88263854  0.63002896  0.62700334  1
  O  O299  1  0.25028954  0.26425977  0.11650843  1
  O  O300  1  0.24814352  0.25813438  0.61366313  1
  O  O301  1  0.25756128  0.75399333  0.12352692  1
  O  O302  1  0.26458915  0.74336830  0.61703725  1
  O  O303  1  0.76466730  0.26076266  0.13023360  1
  O  O304  1  0.74118024  0.25014973  0.61814648  1
  O  O305  1  0.74573370  0.76042372  0.12316439  1
  O  O306  1  0.75294826  0.75183249  0.61969206  1
  O  O307  1  0.24236217  0.24917483  0.38646098  1
  O  O308  1  0.24212282  0.25802768  0.88706527  1
  O  O309  1  0.23692529  0.75632005  0.38477872  1
  O  O310  1  0.24621764  0.74125010  0.87374196  1
  O  O311  1  0.73790808  0.24864109  0.37833776  1
  O  O312  1  0.74227699  0.23708697  0.87076870  1
  O  O313  1  0.74347210  0.74744094  0.38361636  1
  O  O314  1  0.73638750  0.73098088  0.87199244  1
  O  O315  1  0.01164652  0.11918908  -0.00706417  1
  O  O316  1  0.01148722  0.12726693  0.50376735  1
  O  O317  1  0.00984394  0.62418799  -0.00172510  1
  O  O318  1  0.00380000  0.61673296  0.50449353  1
  O  O319  1  0.50361285  0.11970463  0.00734654  1
  O  O320  1  0.50200257  0.11797296  0.50729663  1
  O  O321  1  0.50619347  0.61310344  0.00839512  1
  O  O322  1  0.51248627  0.62618032  0.50789233  1
  O  O323  1  0.49051818  0.36840101  0.48812909  1
  O  O324  1  0.49469138  0.38637748  1.00810263  1
  O  O325  1  0.49891061  0.89029210  0.50210860  1
  O  O326  1  0.48739362  0.88168458  0.99836787  1
  O  O327  1  0.99843609  0.39231452  0.50063741  1
  O  O328  1  0.98731084  0.37535459  0.99690732  1
  O  O329  1  0.98680902  0.87604446  0.49329398  1
  O  O330  1  0.99841309  0.88480920  0.99096055  1
  O  O331  1  0.51279832  0.48311628  0.36578515  1
  O  O332  1  0.49039236  0.50486908  0.88348703  1
  O  O333  1  0.49324136  0.99979021  0.38387519  1
  O  O334  1  0.48635291  0.99801365  0.88345805  1
  O  O335  1  1.00247397  0.50318223  0.38507372  1
  O  O336  1  0.98599354  0.49888358  0.87330081  1
  O  O337  1  1.00279892  0.98155966  0.36323725  1
  O  O338  1  0.99733431  0.99791884  0.88237471  1
  O  O339  1  0.00823030  -0.00006385  0.11058581  1
  O  O340  1  0.00917541  -0.00701472  0.64248669  1
  O  O341  1  0.00709234  0.50569462  0.11960162  1
  O  O342  1  0.00422175  0.51103898  0.62245079  1
  O  O343  1  0.49571285  0.01604010  0.11549323  1
  O  O344  1  0.50191731  0.00757441  0.62094622  1
  O  O345  1  0.49346470  0.50978451  0.11950191  1
  O  O346  1  0.50623371  0.51404769  0.62432685  1
  O  O347  1  0.24572783  0.38059555  0.24352810  1
  O  O348  1  0.24441268  0.38372172  0.74513374  1
  O  O349  1  0.24913870  0.88015863  0.24235310  1
  O  O350  1  0.25072745  0.88906863  0.75099415  1
  O  O351  1  0.74496007  0.37610133  0.24695038  1
  O  O352  1  0.74664249  0.38755627  0.75264956  1
  O  O353  1  0.74788974  0.89212174  0.25194424  1
  O  O354  1  0.73767618  0.88155458  0.74573992  1
  O  O355  1  0.25813765  0.12366376  0.25049951  1
  O  O356  1  0.26084871  0.12001173  0.74588739  1
  O  O357  1  0.25374809  0.60829442  0.25032314  1
  O  O358  1  0.24479333  0.61185939  0.75709062  1
  O  O359  1  0.75534461  0.11737633  0.25390114  1
  O  O360  1  0.75490207  0.12083198  0.75882612  1
  O  O361  1  0.75785181  0.61200392  0.25002940  1
  O  O362  1  0.75047429  0.61228475  0.75920821  1
  O  O363  1  0.37529341  0.11703889  0.36689437  1
  O  O364  1  0.37765630  0.11686370  0.86708358  1
  O  O365  1  0.38174436  0.61293676  0.40651449  1
  O  O366  1  0.36366250  0.61465914  0.87993065  1
  O  O367  1  0.87041358  0.13408771  0.36595505  1
  O  O368  1  0.86811948  0.11814920  0.87111195  1
  O  O369  1  0.87341162  0.63385516  0.35463866  1
  O  O370  1  0.86599071  0.61543852  0.87392171  1
  O  O371  1  0.13298891  0.37378569  0.13347157  1
  O  O372  1  0.13027483  0.38252597  0.63050535  1
  O  O373  1  0.14002052  0.87487123  0.12736030  1
  O  O374  1  0.12227566  0.87499556  0.62866711  1
  O  O375  1  0.63631830  0.36440362  0.13419267  1
  O  O376  1  0.61595896  0.39150960  0.62329272  1
  O  O377  1  0.61094860  0.88124552  0.11391993  1
  O  O378  1  0.62689525  0.87750705  0.63215461  1
  O  O379  1  0.12296654  0.25621246  0.25862737  1
  O  O380  1  0.12325278  0.25349280  0.75738004  1
  O  O381  1  0.13194282  0.75692830  0.25692475  1
  O  O382  1  0.12226742  0.74417640  0.76068024  1
  O  O383  1  0.61717869  0.25583259  0.25696662  1
  O  O384  1  0.61492056  0.25305069  0.75895528  1
  O  O385  1  0.61477525  0.73668910  0.26198370  1
  O  O386  1  0.62774030  0.75606714  0.75795134  1
  O  O387  1  0.38831954  0.24340643  0.25971641  1
  O  O388  1  0.37872636  0.24469364  0.75307918  1
  O  O389  1  0.37921975  0.73888292  0.24719288  1
  O  O390  1  0.37005920  0.74829316  0.73594329  1
  O  O391  1  0.87540596  0.23797019  0.24098410  1
  O  O392  1  0.88368431  0.24109135  0.75776137  1
  O  O393  1  0.87652041  0.74758646  0.24667109  1
  O  O394  1  0.88444182  0.74995193  0.74752956  1
  O  O395  1  0.37559098  0.48230674  0.50713695  1
  O  O396  1  0.38242277  0.49357842  0.99279351  1
  O  O397  1  0.38037815  1.00233564  0.49431227  1
  O  O398  1  0.38045543  0.99462327  0.99544153  1
  O  O399  1  0.88514988  0.49538191  0.49764604  1
  O  O400  1  0.87519450  0.49132213  0.99208314  1
  O  O401  1  0.86459438  0.98916146  0.50436347  1
  O  O402  1  0.88372792  1.00107858  0.99468664  1
  O  O403  1  0.12152407  0.01188022  -0.00153913  1
  O  O404  1  0.12788657  0.01446964  0.49417079  1
  O  O405  1  0.12361645  0.50876472  -0.00398232  1
  O  O406  1  0.11461627  0.50722902  0.50284700  1
  O  O407  1  0.60943433  0.01029882  -0.01218680  1
  O  O408  1  0.61737359  0.00609288  0.50687563  1
  O  O409  1  0.61625468  0.50631927  -0.00576710  1
  O  O410  1  0.63337002  0.51186198  0.50579296  1
  O  O411  1  0.36828094  0.37890239  0.11238316  1
  O  O412  1  0.36746896  0.37043073  0.61759661  1
  O  O413  1  0.36502934  0.85913699  0.11888703  1
  O  O414  1  0.38088119  0.86017345  0.62597914  1
  O  O415  1  0.87134725  0.36452275  0.11911409  1
  O  O416  1  0.88443957  0.37320578  0.60360813  1
  O  O417  1  0.89003827  0.87156784  0.13321727  1
  O  O418  1  0.86569568  0.86658669  0.61843373  1
  O  O419  1  0.12615815  0.13396680  0.38547013  1
  O  O420  1  0.12947889  0.13984010  0.88649644  1
  O  O421  1  0.11768251  0.63464272  0.38171148  1
  O  O422  1  0.13423054  0.63094360  0.88101351  1
  O  O423  1  0.62248780  0.13642890  0.38692675  1
  O  O424  1  0.63144562  0.13229565  0.88118480  1
  O  O425  1  0.62856803  0.63295417  0.38541310  1
  O  O426  1  0.62986356  0.62507838  0.88138923  1
