# generated using pymatgen
data_V85Zn86O256
_symmetry_space_group_name_H-M   'P 1'
_cell_length_a   16.93278153
_cell_length_b   16.92319243
_cell_length_c   16.92414065
_cell_angle_alpha   90.01430631
_cell_angle_beta   90.02370332
_cell_angle_gamma   90.03421742
_symmetry_Int_Tables_number   1
_chemical_formula_structural   V85Zn86O256
_chemical_formula_sum   'V85 Zn86 O256'
_cell_volume   4849.72480501
_cell_formula_units_Z   1
loop_
 _symmetry_equiv_pos_site_id
 _symmetry_equiv_pos_as_xyz
  1  'x, y, z'
loop_
 _atom_site_type_symbol
 _atom_site_label
 _atom_site_symmetry_multiplicity
 _atom_site_fract_x
 _atom_site_fract_y
 _atom_site_fract_z
 _atom_site_occupancy
  V  V0  1  0.13055969  0.63346829  0.49995969  1
  V  V1  1  0.12889144  -0.00082135  0.64154793  1
  V  V2  1  0.75390286  0.75518784  -0.00002457  1
  V  V3  1  0.25478204  0.49692106  0.75719339  1
  V  V4  1  0.75215440  0.23967605  0.49514968  1
  V  V5  1  0.75895456  0.13463485  0.87499387  1
  V  V6  1  0.10988351  0.87206047  0.25308750  1
  V  V7  1  0.50108512  0.74872043  0.74994276  1
  V  V8  1  0.62765959  0.24155421  0.37141177  1
  V  V9  1  0.87478753  0.12665242  0.25565854  1
  V  V10  1  0.25319428  0.63668955  0.37778844  1
  V  V11  1  0.74884698  0.87677122  0.13422139  1
  V  V12  1  0.25242552  0.25967763  -0.00536306  1
  V  V13  1  0.22655276  0.62355504  0.87924581  1
  V  V14  1  0.75095948  0.74966336  0.50552658  1
  V  V15  1  0.11158844  0.75373711  0.37272585  1
  V  V16  1  0.23366959  0.74886218  -0.00354609  1
  V  V17  1  0.36432223  0.74673465  0.62183484  1
  V  V18  1  0.75680868  0.87483074  0.62644060  1
  V  V19  1  0.12445635  0.24986658  0.37565998  1
  V  V20  1  0.88144431  0.75446294  0.12650285  1
  V  V21  1  0.62636749  -0.00196364  0.12707664  1
  V  V22  1  -0.00215394  0.63433969  0.62892616  1
  V  V23  1  0.38267642  0.63401261  0.24641386  1
  V  V24  1  0.49891256  0.00067765  -0.00178057  1
  V  V25  1  -0.00255234  0.85595632  0.86877890  1
  V  V26  1  0.62524092  0.49682724  0.12015185  1
  V  V27  1  0.88163105  0.63098395  0.25088722  1
  V  V28  1  0.11329823  0.00362331  0.12541460  1
  V  V29  1  0.36856479  0.00031693  0.86464353  1
  V  V30  1  0.00873806  0.62841986  0.12419115  1
  V  V31  1  0.50251536  0.87108690  0.36110692  1
  V  V32  1  0.49883169  0.12797839  0.12237237  1
  V  V33  1  0.87504422  0.24164428  0.63645200  1
  V  V34  1  0.37750274  0.37481490  0.49866202  1
  V  V35  1  0.62991529  0.37275050  0.24669827  1
  V  V36  1  0.48433731  0.37255994  0.88025687  1
  V  V37  1  0.00166329  0.49942816  0.50039353  1
  V  V38  1  0.12853218  0.50030974  0.62328393  1
  V  V39  1  0.76423416  0.00222190  0.75964163  1
  V  V40  1  0.62285488  0.12071433  0.50018568  1
  V  V41  1  0.49855416  0.87537655  0.87515846  1
  V  V42  1  0.37579744  -0.00137421  0.37634828  1
  V  V43  1  0.62629078  0.62599241  0.49997783  1
  V  V44  1  0.87491395  0.49870470  0.37396859  1
  V  V45  1  0.37474620  0.26151594  0.12196609  1
  V  V46  1  0.62406040  0.75290614  0.36114011  1
  V  V47  1  0.12929785  0.85861944  0.75554116  1
  V  V48  1  0.25384841  0.37567453  0.62625384  1
  V  V49  1  0.25251993  0.25005238  0.49745200  1
  V  V50  1  0.00295172  -0.00620339  0.49389245  1
  V  V51  1  0.86923484  0.24657694  0.12270460  1
  V  V52  1  0.88021544  0.86914950  0.49711964  1
  V  V53  1  0.62674902  0.36933278  0.76338994  1
  V  V54  1  0.62569732  0.49722044  0.62594126  1
  V  V55  1  0.87610239  0.37024702  0.49919740  1
  V  V56  1  0.12395861  0.13576229  0.00753581  1
  V  V57  1  0.86726744  -0.00025982  0.37697945  1
  V  V58  1  0.50052991  0.24594473  0.75139968  1
  V  V59  1  0.37640081  0.50254152  0.37459739  1
  V  V60  1  0.75062999  0.62562135  0.37533497  1
  V  V61  1  0.50308025  0.49847931  0.50117398  1
  V  V62  1  0.00107967  0.37206259  0.37458022  1
  V  V63  1  0.62782071  0.75197005  0.87640565  1
  V  V64  1  0.24980112  0.50047824  0.24987660  1
  V  V65  1  0.74916939  0.37094630  0.62572806  1
  V  V66  1  0.48691421  0.50196257  -0.00403369  1
  V  V67  1  0.62977221  0.13784582  -0.00711148  1
  V  V68  1  0.12403901  0.11889467  0.49892161  1
  V  V69  1  0.37763134  0.62229987  0.76633719  1
  V  V70  1  0.85870880  0.37951292  0.01001683  1
  V  V71  1  0.25055072  0.12282236  0.37287846  1
  V  V72  1  -0.00253203  0.01246390  -0.01819426  1
  V  V73  1  -0.00593310  0.12184228  0.63124603  1
  V  V74  1  0.36875107  0.87396531  -0.00164767  1
  V  V75  1  0.24183569  0.12414467  0.87057284  1
  V  V76  1  0.24838499  -0.00314357  0.24608619  1
  V  V77  1  0.62655849  0.87833306  0.74872453  1
  V  V78  1  0.00844746  0.49837914  -0.00086592  1
  V  V79  1  0.75316382  0.62519595  0.87607637  1
  V  V80  1  0.50302364  0.37353207  0.37473071  1
  V  V81  1  0.87953283  0.63558582  0.74532106  1
  V  V82  1  0.75278666  0.49795316  0.24242656  1
  V  V83  1  0.75295427  0.49944921  0.75027003  1
  V  V84  1  0.50061424  0.62485518  0.62771345  1
  Zn  Zn85  1  0.50635317  0.63195450  0.12718525  1
  Zn  Zn86  1  0.24971867  0.38116457  0.11983273  1
  Zn  Zn87  1  0.62639269  0.62444538  0.00146405  1
  Zn  Zn88  1  0.12576508  0.37617315  0.24832491  1
  Zn  Zn89  1  0.49653443  0.11931727  0.62566093  1
  Zn  Zn90  1  0.49885938  0.25070349  0.24731648  1
  Zn  Zn91  1  0.37937327  0.75721955  0.12543202  1
  Zn  Zn92  1  0.37715530  0.24357829  0.62354259  1
  Zn  Zn93  1  0.87568535  0.49372579  0.87621991  1
  Zn  Zn94  1  0.49951374  -0.00595906  0.50210848  1
  Zn  Zn95  1  0.37016247  0.12284986  0.74600057  1
  Zn  Zn96  1  0.11396921  0.34392628  0.76917539  1
  Zn  Zn97  1  0.24567867  0.87321036  0.12215150  1
  Zn  Zn98  1  0.12667416  0.50121443  0.12657716  1
  Zn  Zn99  1  0.62490464  0.00160537  0.62622162  1
  Zn  Zn100  1  0.37257638  0.86535203  0.49589243  1
  Zn  Zn101  1  0.37419425  0.12563585  0.24492464  1
  Zn  Zn102  1  0.25031249  0.87700646  0.62320619  1
  Zn  Zn103  1  0.74460866  0.00325198  0.25559878  1
  Zn  Zn104  1  0.00578662  0.24056876  0.24163716  1
  Zn  Zn105  1  0.87426571  0.88802737  -0.00626959  1
  Zn  Zn106  1  -0.00052953  0.35033313  0.87730656  1
  Zn  Zn107  1  0.18979322  0.18919282  0.18638593  1
  Zn  Zn108  1  0.18672856  0.18624019  0.68484294  1
  Zn  Zn109  1  0.19383863  0.69277755  0.18831915  1
  Zn  Zn110  1  0.18606656  0.68043174  0.69516836  1
  Zn  Zn111  1  0.69326435  0.18498427  0.18440694  1
  Zn  Zn112  1  0.68684086  0.18469128  0.69057695  1
  Zn  Zn113  1  0.69331751  0.68343539  0.18391725  1
  Zn  Zn114  1  0.68951261  0.68825029  0.68794096  1
  Zn  Zn115  1  0.31526318  0.31246352  0.30940192  1
  Zn  Zn116  1  0.31271961  0.30912920  0.81167465  1
  Zn  Zn117  1  0.30845320  0.81541468  0.31291161  1
  Zn  Zn118  1  0.30774546  0.80677011  0.81312977  1
  Zn  Zn119  1  0.81127030  0.30888283  0.30952758  1
  Zn  Zn120  1  0.81795020  0.31163582  0.82003159  1
  Zn  Zn121  1  0.81515802  0.81296676  0.31523435  1
  Zn  Zn122  1  0.81852653  0.81442323  0.81277292  1
  Zn  Zn123  1  0.18953083  0.44124095  0.43653124  1
  Zn  Zn124  1  0.18348520  0.43825687  0.93374249  1
  Zn  Zn125  1  0.19254103  0.92934456  0.44057976  1
  Zn  Zn126  1  0.18114769  0.94136347  0.93394947  1
  Zn  Zn127  1  0.69031252  0.43329376  0.43581257  1
  Zn  Zn128  1  0.68491095  0.43915008  0.93682965  1
  Zn  Zn129  1  0.68618085  0.93320555  0.43592438  1
  Zn  Zn130  1  0.68750692  0.94168902  0.94056397  1
  Zn  Zn131  1  0.30965421  0.06312978  0.05961282  1
  Zn  Zn132  1  0.31118853  0.05952928  0.56219965  1
  Zn  Zn133  1  0.30851471  0.56813116  0.06200704  1
  Zn  Zn134  1  0.31509288  0.56582247  0.56304571  1
  Zn  Zn135  1  0.81372098  0.06706942  0.06212006  1
  Zn  Zn136  1  0.80979229  0.05783119  0.56426200  1
  Zn  Zn137  1  0.81632959  0.56501300  0.06390197  1
  Zn  Zn138  1  0.81467648  0.56127087  0.56369929  1
  Zn  Zn139  1  0.44019930  0.44188027  0.18721808  1
  Zn  Zn140  1  0.43747331  0.43582699  0.69194305  1
  Zn  Zn141  1  0.43551763  0.93898478  0.18503348  1
  Zn  Zn142  1  0.43903150  0.93579725  0.68464315  1
  Zn  Zn143  1  0.94072514  0.43539536  0.18479979  1
  Zn  Zn144  1  0.93692988  0.43347298  0.68526008  1
  Zn  Zn145  1  0.93412587  0.94165384  0.18657829  1
  Zn  Zn146  1  0.94252342  0.93429195  0.68736998  1
  Zn  Zn147  1  0.05689310  0.05995267  0.31265866  1
  Zn  Zn148  1  0.03485831  0.13742554  0.83343356  1
  Zn  Zn149  1  0.06337797  0.56491304  0.31337365  1
  Zn  Zn150  1  0.04781492  0.51870921  0.79736261  1
  Zn  Zn151  1  0.55985558  0.06115317  0.30900967  1
  Zn  Zn152  1  0.56411213  0.06201001  0.81413719  1
  Zn  Zn153  1  0.56490342  0.56170178  0.31232908  1
  Zn  Zn154  1  0.56493206  0.55922568  0.81736650  1
  Zn  Zn155  1  0.43965051  0.18499010  0.43560331  1
  Zn  Zn156  1  0.43410082  0.18820745  0.93582792  1
  Zn  Zn157  1  0.44279689  0.68941616  0.43654972  1
  Zn  Zn158  1  0.43927920  0.69127113  0.94521111  1
  Zn  Zn159  1  0.93878616  0.18295907  0.43815649  1
  Zn  Zn160  1  0.93113028  0.19226561  0.95035099  1
  Zn  Zn161  1  0.93835213  0.68673713  0.44215844  1
  Zn  Zn162  1  0.93716873  0.68148020  0.94023968  1
  Zn  Zn163  1  0.06050825  0.31697175  0.06750142  1
  Zn  Zn164  1  0.07474459  0.29843290  0.58809835  1
  Zn  Zn165  1  0.05787898  0.82269772  0.06043431  1
  Zn  Zn166  1  0.06557440  0.81285513  0.56472563  1
  Zn  Zn167  1  0.56362131  0.31558682  0.05990100  1
  Zn  Zn168  1  0.56460064  0.30737588  0.56568157  1
  Zn  Zn169  1  0.56246748  0.81281888  0.06565509  1
  Zn  Zn170  1  0.56012873  0.81477716  0.55886069  1
  O  O171  1  0.12933240  0.11745392  0.11812593  1
  O  O172  1  0.11817793  0.11180031  0.61776398  1
  O  O173  1  0.11088034  0.62951058  0.13650538  1
  O  O174  1  0.12322728  0.61783022  0.61775723  1
  O  O175  1  0.62108902  0.12148229  0.11315716  1
  O  O176  1  0.62312586  0.12443060  0.61411463  1
  O  O177  1  0.62523265  0.61135541  0.12535164  1
  O  O178  1  0.62104042  0.61776497  0.62134443  1
  O  O179  1  0.38408153  0.38106310  0.37823796  1
  O  O180  1  0.38631668  0.37906026  0.87107749  1
  O  O181  1  0.38416056  0.87943456  0.37275439  1
  O  O182  1  0.37619615  0.88093758  0.87744615  1
  O  O183  1  0.88132943  0.37761219  0.37949500  1
  O  O184  1  0.87935313  0.37444916  0.89262010  1
  O  O185  1  0.87313955  0.88120017  0.38841236  1
  O  O186  1  0.89272170  0.87523194  0.87507374  1
  O  O187  1  0.25605898  0.00293860  0.36687342  1
  O  O188  1  0.25509672  0.01420288  0.88022434  1
  O  O189  1  0.25785998  0.51184033  0.37037947  1
  O  O190  1  0.24918395  0.51090545  0.86937344  1
  O  O191  1  0.76212273  -0.00577229  0.37495595  1
  O  O192  1  0.74974895  0.00295154  0.86402570  1
  O  O193  1  0.75508471  0.50514004  0.36704519  1
  O  O194  1  0.75090317  0.50848227  0.86768811  1
  O  O195  1  0.24905691  0.50235933  0.13468904  1
  O  O196  1  0.24857025  0.49583971  0.62975109  1
  O  O197  1  0.23937199  0.99928974  0.13136071  1
  O  O198  1  0.23252027  0.99932610  0.62358916  1
  O  O199  1  0.74480853  0.50506093  0.13688174  1
  O  O200  1  0.74550222  0.49267152  0.63136724  1
  O  O201  1  0.74366215  0.99272010  0.12182131  1
  O  O202  1  0.74533119  0.99219693  0.63708137  1
  O  O203  1  0.00163685  0.37739517  0.26622315  1
  O  O204  1  0.00812242  0.40830523  0.76657473  1
  O  O205  1  0.01127077  0.87925821  0.25008395  1
  O  O206  1  0.00809560  0.87634371  0.76221549  1
  O  O207  1  0.51350058  0.37643870  0.25541249  1
  O  O208  1  0.50644663  0.37189145  0.76199497  1
  O  O209  1  0.49718348  0.87709017  0.26146633  1
  O  O210  1  0.50927985  0.86912242  0.75512427  1
  O  O211  1  0.50059729  0.12775048  0.23296467  1
  O  O212  1  0.50034637  0.13452920  0.75240636  1
  O  O213  1  0.48584315  0.62019552  0.25182900  1
  O  O214  1  0.49635324  0.62669714  0.74832985  1
  O  O215  1  0.98354411  0.12276599  0.25062369  1
  O  O216  1  0.99820142  0.11411656  0.73007825  1
  O  O217  1  0.98670006  0.61931531  0.24429224  1
  O  O218  1  0.98961989  0.61013951  0.74028770  1
  O  O219  1  0.36125434  0.24662780  0.00681001  1
  O  O220  1  0.37032580  0.25737499  0.49728502  1
  O  O221  1  0.36567650  0.76497159  -0.00595102  1
  O  O222  1  0.38084349  0.74182697  0.51876877  1
  O  O223  1  0.86965809  0.26233861  0.01523897  1
  O  O224  1  0.86561269  0.25278005  0.49962003  1
  O  O225  1  0.86534874  0.75161835  0.00664346  1
  O  O226  1  0.86457858  0.75679046  0.49544537  1
  O  O227  1  0.13125609  0.24282948  0.49193542  1
  O  O228  1  0.13716928  0.24325230  1.01105788  1
  O  O229  1  0.12232083  0.74012880  0.49273881  1
  O  O230  1  0.13465281  0.75834623  1.00361218  1
  O  O231  1  0.63085461  0.24079267  0.49257238  1
  O  O232  1  0.62480307  0.23660072  1.00260773  1
  O  O233  1  0.63221334  0.74319237  0.49335741  1
  O  O234  1  0.63868583  0.74863191  0.99481551  1
  O  O235  1  0.49247548  0.24532142  0.12144210  1
  O  O236  1  0.49680592  0.24905671  0.63667682  1
  O  O237  1  0.49221444  0.74347429  0.11390089  1
  O  O238  1  0.49808321  0.74251341  0.63317981  1
  O  O239  1  0.98006428  0.26303443  0.13160717  1
  O  O240  1  0.97913675  0.23680114  0.60845281  1
  O  O241  1  0.98822131  0.74678274  0.11677570  1
  O  O242  1  1.00496619  0.73348041  0.62240888  1
  O  O243  1  0.00887130  0.25598728  0.37603309  1
  O  O244  1  -0.00217695  0.23545642  0.87258539  1
  O  O245  1  0.01221756  0.74273271  0.37424327  1
  O  O246  1  -0.00064285  0.75795562  0.87979816  1
  O  O247  1  0.50834599  0.25685874  0.37098144  1
  O  O248  1  0.49605670  0.26420639  0.87120560  1
  O  O249  1  0.50863863  0.76068641  0.37438694  1
  O  O250  1  0.50713289  0.75580591  0.87044728  1
  O  O251  1  0.24347265  0.12896230  0.49204174  1
  O  O252  1  0.24250746  0.13391624  0.99343888  1
  O  O253  1  0.24273809  0.62147798  0.49062298  1
  O  O254  1  0.24861608  0.63109738  0.98698375  1
  O  O255  1  0.74370435  0.13434691  0.50253746  1
  O  O256  1  0.73820662  0.11977949  0.98901151  1
  O  O257  1  0.74739394  0.63089208  0.49638050  1
  O  O258  1  0.75139841  0.63275856  0.99170413  1
  O  O259  1  0.24863198  0.36282827  -0.00212331  1
  O  O260  1  0.25949295  0.37279608  0.50310084  1
  O  O261  1  0.25291227  0.86989993  -0.00473013  1
  O  O262  1  0.25913519  0.87287045  0.50840952  1
  O  O263  1  0.76002493  0.38132355  0.00016595  1
  O  O264  1  0.75326657  0.36355648  0.50726504  1
  O  O265  1  0.75534212  0.86969716  0.00468411  1
  O  O266  1  0.75450881  0.86799914  0.50788850  1
  O  O267  1  0.13676687  0.50137437  0.25288043  1
  O  O268  1  0.14413510  0.50689273  0.73454464  1
  O  O269  1  0.12782125  0.99234660  0.24601760  1
  O  O270  1  0.12260066  0.99684977  0.73851474  1
  O  O271  1  0.63268955  0.49355078  0.24480180  1
  O  O272  1  0.63517769  0.49316038  0.74651915  1
  O  O273  1  0.62730162  1.00764498  0.23282647  1
  O  O274  1  0.63116694  0.98672436  0.75230063  1
  O  O275  1  0.36567942  0.00154766  0.25687000  1
  O  O276  1  0.37672834  -0.00128611  0.76155291  1
  O  O277  1  0.37119812  0.50967004  0.25696398  1
  O  O278  1  0.36359739  0.50809020  0.74528622  1
  O  O279  1  0.87385637  0.00721284  0.25901041  1
  O  O280  1  0.86180865  -0.00453288  0.74665678  1
  O  O281  1  0.86836321  0.50418992  0.25424502  1
  O  O282  1  0.86071264  0.50269435  0.74978599  1
  O  O283  1  0.11920308  0.36668455  0.37723760  1
  O  O284  1  0.11421049  0.37570821  0.87451965  1
  O  O285  1  0.12695396  0.86876471  0.36268184  1
  O  O286  1  0.11402560  0.88012229  0.86112599  1
  O  O287  1  0.62046270  0.36562220  0.36926258  1
  O  O288  1  0.61865563  0.37741893  0.86536286  1
  O  O289  1  0.61285134  0.86764847  0.37535038  1
  O  O290  1  0.62144569  0.87061850  0.86937681  1
  O  O291  1  0.38423819  0.13096500  0.12169357  1
  O  O292  1  0.37640035  0.12457721  0.62849945  1
  O  O293  1  0.37612238  0.62443056  0.14053833  1
  O  O294  1  0.38173421  0.63179484  0.63541238  1
  O  O295  1  0.87314330  0.13872405  0.13240238  1
  O  O296  1  0.87711286  0.13337736  0.62062640  1
  O  O297  1  0.88009789  0.63517277  0.13390025  1
  O  O298  1  0.88577177  0.61842010  0.63193007  1
  O  O299  1  0.25905716  0.25164992  0.11520021  1
  O  O300  1  0.25524373  0.26006217  0.61511450  1
  O  O301  1  0.25725531  0.75133372  0.11230522  1
  O  O302  1  0.26327423  0.74198967  0.63183356  1
  O  O303  1  0.76934329  0.25889883  0.14040526  1
  O  O304  1  0.75878995  0.25047794  0.61895564  1
  O  O305  1  0.75762722  0.75675776  0.11815211  1
  O  O306  1  0.74610135  0.75637169  0.61313991  1
  O  O307  1  0.24431214  0.24510797  0.37778364  1
  O  O308  1  0.25519245  0.24117612  0.88742879  1
  O  O309  1  0.24126348  0.73969948  0.37090806  1
  O  O310  1  0.24801417  0.73295815  0.88025047  1
  O  O311  1  0.73966181  0.25447064  0.38387185  1
  O  O312  1  0.74638362  0.23372896  0.86399146  1
  O  O313  1  0.74371263  0.74704839  0.38519447  1
  O  O314  1  0.74953166  0.74623567  0.88139524  1
  O  O315  1  0.01030317  0.11976980  0.00445079  1
  O  O316  1  0.00574540  0.11402275  0.50572706  1
  O  O317  1  -0.01067335  0.61272814  0.01508387  1
  O  O318  1  0.00710031  0.61749028  0.50700824  1
  O  O319  1  0.50793415  0.12260316  0.00486913  1
  O  O320  1  0.51002868  0.12132715  0.50042641  1
  O  O321  1  0.50536138  0.61178764  -0.00321903  1
  O  O322  1  0.50736596  0.61773590  0.50551665  1
  O  O323  1  0.49795187  0.37898080  0.49651717  1
  O  O324  1  0.50242366  0.38385283  0.98745599  1
  O  O325  1  0.49289086  0.87540246  0.48782101  1
  O  O326  1  0.49126495  0.88091411  0.99202201  1
  O  O327  1  0.99648921  0.37970758  0.48974909  1
  O  O328  1  0.99208003  0.39023561  1.00297181  1
  O  O329  1  0.99062297  0.87955891  0.50692835  1
  O  O330  1  1.00447810  0.89150670  0.97987461  1
  O  O331  1  0.49785530  0.49377506  0.38171342  1
  O  O332  1  0.50376603  0.48987114  0.88715730  1
  O  O333  1  0.49352191  0.98962067  0.37315391  1
  O  O334  1  0.49112939  0.99491739  0.87966422  1
  O  O335  1  0.99455571  0.49510211  0.38111197  1
  O  O336  1  0.99135315  0.51582833  0.89731534  1
  O  O337  1  0.98861529  1.00123749  0.38819917  1
  O  O338  1  1.00244828  1.01998714  0.88370950  1
  O  O339  1  0.01120278  -0.00489106  0.11823977  1
  O  O340  1  0.00691225  0.00230108  0.61437975  1
  O  O341  1  0.00146828  0.50995042  0.11877613  1
  O  O342  1  0.01210212  0.50246616  0.61641114  1
  O  O343  1  0.50481600  0.00751891  0.11770149  1
  O  O344  1  0.50702491  -0.00090292  0.62070386  1
  O  O345  1  0.50753525  0.50184993  0.11252478  1
  O  O346  1  0.50592889  0.50393460  0.62210328  1
  O  O347  1  0.25229883  0.39176193  0.25461530  1
  O  O348  1  0.24965049  0.38029726  0.74189421  1
  O  O349  1  0.24244797  0.88681671  0.24856498  1
  O  O350  1  0.23409052  0.86996744  0.74795858  1
  O  O351  1  0.73801316  0.38451170  0.25831575  1
  O  O352  1  0.74440585  0.37956503  0.74833783  1
  O  O353  1  0.75532682  0.87837946  0.23737583  1
  O  O354  1  0.74702840  0.88083401  0.74569757  1
  O  O355  1  0.24834258  0.11301095  0.25542205  1
  O  O356  1  0.24881676  0.13559150  0.76609392  1
  O  O357  1  0.25975601  0.61856490  0.25783827  1
  O  O358  1  0.25810054  0.61874194  0.76334121  1
  O  O359  1  0.76692791  0.11997831  0.24650620  1
  O  O360  1  0.74305697  0.11068399  0.76169846  1
  O  O361  1  0.76119445  0.61712543  0.25563062  1
  O  O362  1  0.75489745  0.61728369  0.75422096  1
  O  O363  1  0.37014072  0.11707484  0.36910127  1
  O  O364  1  0.36381200  0.11644315  0.87453431  1
  O  O365  1  0.37074310  0.62410583  0.36904028  1
  O  O366  1  0.37867038  0.62775812  0.86684430  1
  O  O367  1  0.87526385  0.11692588  0.36640536  1
  O  O368  1  0.85743919  0.12573008  0.88533328  1
  O  O369  1  0.87032756  0.62057982  0.36983881  1
  O  O370  1  0.86433534  0.62308405  0.86683565  1
  O  O371  1  0.13122750  0.38022551  0.13173121  1
  O  O372  1  0.14165457  0.39319923  0.60653548  1
  O  O373  1  0.12538112  0.88223743  0.13671549  1
  O  O374  1  0.12166555  0.88290904  0.63855042  1
  O  O375  1  0.62217275  0.38596504  0.13283768  1
  O  O376  1  0.63133238  0.37938422  0.63315905  1
  O  O377  1  0.63589203  0.88527046  0.11725812  1
  O  O378  1  0.63649465  0.87312489  0.63263572  1
  O  O379  1  0.12466703  0.25071676  0.26294042  1
  O  O380  1  0.10829858  0.26334289  0.69630314  1
  O  O381  1  0.12894662  0.76526304  0.25542013  1
  O  O382  1  0.12213708  0.75995790  0.74748710  1
  O  O383  1  0.62624047  0.25581669  0.25467915  1
  O  O384  1  0.61430930  0.25931545  0.74480797  1
  O  O385  1  0.63466837  0.74327020  0.26233994  1
  O  O386  1  0.62394835  0.76005355  0.75559752  1
  O  O387  1  0.37710467  0.24588063  0.23887405  1
  O  O388  1  0.38765308  0.24913966  0.74835726  1
  O  O389  1  0.36881637  0.73652257  0.25050391  1
  O  O390  1  0.38171081  0.74048395  0.74456884  1
  O  O391  1  0.87969030  0.23961061  0.25033656  1
  O  O392  1  0.87311525  0.25428336  0.73451554  1
  O  O393  1  0.87005909  0.74224922  0.24150855  1
  O  O394  1  0.86958991  0.73503886  0.74757379  1
  O  O395  1  0.38288691  0.49638309  0.49409111  1
  O  O396  1  0.38864518  0.50340786  1.00536250  1
  O  O397  1  0.37521721  1.00103121  0.48367879  1
  O  O398  1  0.37734916  0.99117882  0.99030062  1
  O  O399  1  0.87905202  0.49138180  0.49380493  1
  O  O400  1  0.87859289  0.49021345  1.00360882  1
  O  O401  1  0.87954432  0.99223374  0.49537575  1
  O  O402  1  0.89456320  1.00424877  1.00654389  1
  O  O403  1  0.11612863  0.00925916  0.00682298  1
  O  O404  1  0.11695284  0.00069074  0.49982928  1
  O  O405  1  0.11177267  0.50134179  0.00520367  1
  O  O406  1  0.12277956  0.51387142  0.50188819  1
  O  O407  1  0.61689463  0.00750236  0.00816466  1
  O  O408  1  0.62854939  0.01243729  0.49669668  1
  O  O409  1  0.61942670  0.50136780  0.00759554  1
  O  O410  1  0.62334957  0.50445804  0.50477536  1
  O  O411  1  0.37404017  0.36514923  0.12933806  1
  O  O412  1  0.36578944  0.37701689  0.61918698  1
  O  O413  1  0.36869913  0.87899327  0.11290968  1
  O  O414  1  0.37414959  0.85600027  0.63076063  1
  O  O415  1  0.87190229  0.37287522  0.11615238  1
  O  O416  1  0.87029579  0.36409790  0.61838701  1
  O  O417  1  0.86985411  0.86947705  0.12015818  1
  O  O418  1  0.86367681  0.87841028  0.61617462  1
  O  O419  1  0.12813053  0.13047554  0.37910396  1
  O  O420  1  0.13756115  0.12428744  0.88838124  1
  O  O421  1  0.13254263  0.63290391  0.38055806  1
  O  O422  1  0.13105029  0.61769351  0.86811144  1
  O  O423  1  0.61935114  0.13583229  0.37804062  1
  O  O424  1  0.63063265  0.11976035  0.88896322  1
  O  O425  1  0.63165654  0.63023678  0.38022209  1
  O  O426  1  0.63859604  0.63237007  0.87326032  1
