# generated using pymatgen
data_V85Zn86O256
_symmetry_space_group_name_H-M   'P 1'
_cell_length_a   16.95396374
_cell_length_b   16.96455736
_cell_length_c   16.95722724
_cell_angle_alpha   90.02694812
_cell_angle_beta   89.96573004
_cell_angle_gamma   89.99177565
_symmetry_Int_Tables_number   1
_chemical_formula_structural   V85Zn86O256
_chemical_formula_sum   'V85 Zn86 O256'
_cell_volume   4877.17672528
_cell_formula_units_Z   1
loop_
 _symmetry_equiv_pos_site_id
 _symmetry_equiv_pos_as_xyz
  1  'x, y, z'
loop_
 _atom_site_type_symbol
 _atom_site_label
 _atom_site_symmetry_multiplicity
 _atom_site_fract_x
 _atom_site_fract_y
 _atom_site_fract_z
 _atom_site_occupancy
  V  V0  1  0.36697201  0.86595689  0.49747771  1
  V  V1  1  0.10828592  0.87636123  0.75639793  1
  V  V2  1  0.49504996  0.37125100  0.37413337  1
  V  V3  1  0.49246056  0.75042421  0.24425617  1
  V  V4  1  0.00439078  0.25325737  0.75502447  1
  V  V5  1  0.74898675  0.50229046  0.25091494  1
  V  V6  1  0.50751186  0.62042232  0.12334327  1
  V  V7  1  0.24628706  0.87105276  0.62556477  1
  V  V8  1  0.25138161  -0.00244485  0.75724455  1
  V  V9  1  0.37518687  0.12157636  0.76003276  1
  V  V10  1  0.74967763  0.00331950  0.24590277  1
  V  V11  1  0.00076889  0.87609088  0.37672106  1
  V  V12  1  0.00256622  0.74828699  0.25178400  1
  V  V13  1  0.75205740  0.24888418  -0.00244605  1
  V  V14  1  0.37671505  0.12828899  0.23852037  1
  V  V15  1  0.37741410  -0.00108303  0.37422837  1
  V  V16  1  0.37256790  0.87760419  -0.00621386  1
  V  V17  1  0.75019572  0.12869907  0.37237207  1
  V  V18  1  0.24864468  0.50331719  0.76378668  1
  V  V19  1  0.49554959  0.00008426  0.49801544  1
  V  V20  1  0.12729021  0.87651712  0.24962475  1
  V  V21  1  0.00806229  0.61758274  0.12888361  1
  V  V22  1  0.88037474  0.75217935  0.12246096  1
  V  V23  1  0.61463261  0.87808573  0.24595194  1
  V  V24  1  0.13088327  0.62137042  -0.00562354  1
  V  V25  1  0.12596322  0.37738304  0.24307168  1
  V  V26  1  0.13107290  0.62851605  0.50122623  1
  V  V27  1  0.25176067  0.87478698  0.12262536  1
  V  V28  1  0.61910010  0.00622568  0.11915531  1
  V  V29  1  0.36569606  0.74424402  0.62346006  1
  V  V30  1  0.74797654  0.86522864  0.61494396  1
  V  V31  1  0.37089243  0.74038355  0.12221421  1
  V  V32  1  0.43435245  0.43872210  0.93395765  1
  V  V33  1  0.50456111  0.61596545  0.62621790  1
  V  V34  1  0.12612140  0.50178774  0.62525590  1
  V  V35  1  0.62236028  0.12697228  -0.00086077  1
  V  V36  1  0.75019449  0.25050334  0.50095843  1
  V  V37  1  0.26260926  0.37776665  0.12378005  1
  V  V38  1  0.75308093  0.74424526  0.00174425  1
  V  V39  1  0.62148226  0.25550496  0.37294510  1
  V  V40  1  0.87136555  0.51048716  0.37673537  1
  V  V41  1  0.00099809  0.37670982  0.37582185  1
  V  V42  1  0.00535358  0.12474934  0.12229668  1
  V  V43  1  0.54620865  0.82767364  0.41019576  1
  V  V44  1  0.62148776  0.12724617  0.49948116  1
  V  V45  1  0.00189935  0.01034231  0.49625646  1
  V  V46  1  0.49758821  0.25815079  0.75453240  1
  V  V47  1  0.62495318  0.74975816  0.87793760  1
  V  V48  1  0.87714658  0.24502433  0.62791515  1
  V  V49  1  0.62384933  0.25883961  0.87410486  1
  V  V50  1  0.50741025  0.49284329  0.50756083  1
  V  V51  1  0.88260070  0.74121933  0.61672638  1
  V  V52  1  0.49602819  0.12479867  0.62666391  1
  V  V53  1  0.26151772  0.24687242  0.00945973  1
  V  V54  1  0.26572288  0.62744945  0.37632762  1
  V  V55  1  0.36728925  0.62420665  0.76349048  1
  V  V56  1  0.13440679  0.74996594  0.37998046  1
  V  V57  1  0.87801308  0.25178793  0.12547212  1
  V  V58  1  0.87987929  0.37480354  -0.01127789  1
  V  V59  1  0.75383845  0.87374701  0.12303309  1
  V  V60  1  0.49512212  0.74914233  0.75176850  1
  V  V61  1  0.12557054  0.00305391  0.11416666  1
  V  V62  1  0.75107265  0.37792745  0.12263457  1
  V  V63  1  0.87236333  0.37743590  0.50030098  1
  V  V64  1  0.36872713  0.36984194  0.50099624  1
  V  V65  1  0.36657180  0.24713223  0.62534361  1
  V  V66  1  0.24643354  0.37388477  0.62415443  1
  V  V67  1  0.25252879  0.50450793  0.25051376  1
  V  V68  1  0.62284028  0.87803709  0.75043403  1
  V  V69  1  0.00299603  0.24992194  0.25143366  1
  V  V70  1  0.49619857  0.24758652  0.23344347  1
  V  V71  1  0.62292484  0.00140998  0.62371379  1
  V  V72  1  0.00407373  0.49339572  0.00091656  1
  V  V73  1  0.75840652  0.00423915  0.74602440  1
  V  V74  1  0.24948399  0.00416136  0.24892669  1
  V  V75  1  0.12793557  0.24919656  0.38869062  1
  V  V76  1  0.87824290  0.50707355  0.86431378  1
  V  V77  1  0.24379517  0.12505014  0.88003133  1
  V  V78  1  0.74425473  0.38052090  0.62954766  1
  V  V79  1  0.50054128  0.88200195  0.87615710  1
  V  V80  1  -0.01290481  -0.00166545  -0.00849346  1
  V  V81  1  0.24806782  0.12922812  0.38746177  1
  V  V82  1  0.12120836  0.25669292  0.88781175  1
  V  V83  1  0.12570336  0.00717072  0.62050218  1
  V  V84  1  0.49582555  0.00733797  -0.00137980  1
  Zn  Zn85  1  0.75384471  0.62777477  0.86455467  1
  Zn  Zn86  1  -0.01566019  0.74157770  0.76588148  1
  Zn  Zn87  1  0.74340632  0.51505941  0.74172913  1
  Zn  Zn88  1  0.86915610  0.87454889  0.49370973  1
  Zn  Zn89  1  0.88578986  0.12116901  0.76101355  1
  Zn  Zn90  1  0.87590851  0.12660164  0.24926305  1
  Zn  Zn91  1  0.61937502  0.61660100  -0.00646324  1
  Zn  Zn92  1  0.12328730  0.37677941  0.75703994  1
  Zn  Zn93  1  0.00670331  0.12829978  0.62228125  1
  Zn  Zn94  1  0.25118244  0.74208934  -0.00921993  1
  Zn  Zn95  1  0.87519205  0.00146006  0.37350692  1
  Zn  Zn96  1  0.87403947  0.62679176  0.25341336  1
  Zn  Zn97  1  0.37503352  0.49934033  0.37618747  1
  Zn  Zn98  1  0.93301197  0.84300010  -0.07108177  1
  Zn  Zn99  1  0.00034416  0.62104518  0.63191933  1
  Zn  Zn100  1  0.62331145  0.37376714  0.24587818  1
  Zn  Zn101  1  0.75536119  0.12172086  0.87642580  1
  Zn  Zn102  1  0.61804669  0.49253806  0.11763584  1
  Zn  Zn103  1  0.69256824  0.70080599  0.42641132  1
  Zn  Zn104  1  0.11836344  0.75340251  0.87893082  1
  Zn  Zn105  1  0.61944643  0.38553920  0.75070586  1
  Zn  Zn106  1  0.00048400  0.50330292  0.50084743  1
  Zn  Zn107  1  0.18758780  0.18814889  0.19168117  1
  Zn  Zn108  1  0.18640532  0.18746874  0.69346862  1
  Zn  Zn109  1  0.18879082  0.68590602  0.18779324  1
  Zn  Zn110  1  0.17856129  0.68723287  0.69679943  1
  Zn  Zn111  1  0.68427495  0.19068244  0.18375363  1
  Zn  Zn112  1  0.68564177  0.19034968  0.68722270  1
  Zn  Zn113  1  0.69951832  0.70332444  0.22692863  1
  Zn  Zn114  1  0.68457204  0.68615384  0.68845255  1
  Zn  Zn115  1  0.31146506  0.30839664  0.30950128  1
  Zn  Zn116  1  0.30895388  0.31457115  0.81593197  1
  Zn  Zn117  1  0.31413132  0.81357827  0.31085688  1
  Zn  Zn118  1  0.30641595  0.80960151  0.81526888  1
  Zn  Zn119  1  0.81295351  0.31769354  0.31196235  1
  Zn  Zn120  1  0.81351135  0.30836352  0.81178675  1
  Zn  Zn121  1  0.81524033  0.81410920  0.31095219  1
  Zn  Zn122  1  0.80724398  0.80574360  0.79923025  1
  Zn  Zn123  1  0.18791257  0.43927981  0.43742695  1
  Zn  Zn124  1  0.19020446  0.43617426  0.94641263  1
  Zn  Zn125  1  0.18872175  0.94056246  0.43855059  1
  Zn  Zn126  1  0.18604186  0.93644984  0.93573380  1
  Zn  Zn127  1  0.67473057  0.54225919  0.43387523  1
  Zn  Zn128  1  0.68936124  0.44211912  0.93549001  1
  Zn  Zn129  1  0.68866953  0.94597372  0.43652711  1
  Zn  Zn130  1  0.75095591  0.91933110  0.92016714  1
  Zn  Zn131  1  0.31196144  0.06202655  0.05867427  1
  Zn  Zn132  1  0.31122105  0.05822705  0.56604507  1
  Zn  Zn133  1  0.31464709  0.55670594  0.06239539  1
  Zn  Zn134  1  0.31271287  0.55961848  0.56156776  1
  Zn  Zn135  1  0.81316748  0.06645255  0.06255806  1
  Zn  Zn136  1  0.81476916  0.06118193  0.56113733  1
  Zn  Zn137  1  0.81667010  0.56313803  0.06277835  1
  Zn  Zn138  1  0.80531550  0.56824614  0.55656735  1
  Zn  Zn139  1  0.43344817  0.43804239  0.18960983  1
  Zn  Zn140  1  0.42980558  0.43833925  0.69497841  1
  Zn  Zn141  1  0.43479426  0.93942935  0.18245192  1
  Zn  Zn142  1  0.43298097  0.93746751  0.68821022  1
  Zn  Zn143  1  0.93600683  0.43736634  0.18816782  1
  Zn  Zn144  1  0.94108198  0.43204211  0.68646863  1
  Zn  Zn145  1  0.93797779  0.93806775  0.18733558  1
  Zn  Zn146  1  0.93425376  0.93584042  0.67735795  1
  Zn  Zn147  1  0.06620719  0.06470260  0.31020013  1
  Zn  Zn148  1  0.06449272  0.06627624  0.81295797  1
  Zn  Zn149  1  0.06655933  0.56127262  0.31558946  1
  Zn  Zn150  1  0.05829120  0.56117565  0.81375020  1
  Zn  Zn151  1  0.56028676  0.06584869  0.31015163  1
  Zn  Zn152  1  0.56709888  0.06563043  0.81473581  1
  Zn  Zn153  1  0.55873390  0.55769141  0.29723793  1
  Zn  Zn154  1  0.56128557  0.55832580  0.81311713  1
  Zn  Zn155  1  0.43186481  0.18791287  0.43629195  1
  Zn  Zn156  1  0.43684690  0.19221815  0.93652055  1
  Zn  Zn157  1  0.49057099  0.65520820  0.41611635  1
  Zn  Zn158  1  0.43893857  0.68868047  0.94096178  1
  Zn  Zn159  1  0.93687749  0.18944660  0.43634796  1
  Zn  Zn160  1  0.93856107  0.18055185  0.93853506  1
  Zn  Zn161  1  0.94203978  0.68999792  0.44524884  1
  Zn  Zn162  1  0.94266530  0.67749261  0.94205549  1
  Zn  Zn163  1  0.06673043  0.31254515  0.06318990  1
  Zn  Zn164  1  0.05962322  0.31588762  0.56516441  1
  Zn  Zn165  1  0.06562333  0.81249144  0.06250304  1
  Zn  Zn166  1  0.06493500  0.81673149  0.55950728  1
  Zn  Zn167  1  0.56058278  0.31874642  0.05562104  1
  Zn  Zn168  1  0.55976547  0.31172988  0.56420781  1
  Zn  Zn169  1  0.56356249  0.81299768  0.06114904  1
  Zn  Zn170  1  0.55841900  0.80679739  0.57485641  1
  O  O171  1  0.11731841  0.11517007  0.13357545  1
  O  O172  1  0.12940747  0.11107250  0.62816751  1
  O  O173  1  0.11219945  0.62832876  0.12095443  1
  O  O174  1  0.13138193  0.61763055  0.61663155  1
  O  O175  1  0.62785886  0.11910903  0.11128863  1
  O  O176  1  0.61669998  0.12222710  0.61770488  1
  O  O177  1  0.60857838  0.62850973  0.12937841  1
  O  O178  1  0.60179492  0.63533053  0.62500716  1
  O  O179  1  0.37830463  0.36889138  0.38480982  1
  O  O180  1  0.38515875  0.37653114  0.86803814  1
  O  O181  1  0.36398601  0.88676827  0.38489252  1
  O  O182  1  0.38436889  0.87146647  0.88644827  1
  O  O183  1  0.87939522  0.38124601  0.38409160  1
  O  O184  1  0.87378926  0.37815015  0.88600493  1
  O  O185  1  0.88526893  0.87878346  0.37340902  1
  O  O186  1  0.84687468  0.87990575  0.87299501  1
  O  O187  1  0.25600033  0.01014338  0.37011375  1
  O  O188  1  0.24468433  0.00915702  0.86641091  1
  O  O189  1  0.25246784  0.50978219  0.37026166  1
  O  O190  1  0.24308089  0.49398149  0.86175240  1
  O  O191  1  0.74921158  0.01152205  0.36399302  1
  O  O192  1  0.73404857  0.00507736  0.84933600  1
  O  O193  1  0.75807698  0.49686881  0.36361290  1
  O  O194  1  0.76887221  0.50126139  0.87353670  1
  O  O195  1  0.25224050  0.48520104  0.13345365  1
  O  O196  1  0.24072937  0.49262080  0.63032275  1
  O  O197  1  0.24273371  0.99637391  0.12855857  1
  O  O198  1  0.24380523  0.99225014  0.63414966  1
  O  O199  1  0.76015254  0.48568660  0.12928858  1
  O  O200  1  0.76093831  0.48269867  0.62555086  1
  O  O201  1  0.74217350  0.99564988  0.12812860  1
  O  O202  1  0.74175548  0.99492531  0.62842413  1
  O  O203  1  0.00814164  0.37105884  0.25512702  1
  O  O204  1  0.00471801  0.35835780  0.74848989  1
  O  O205  1  0.00685107  0.87231115  0.26006794  1
  O  O206  1  0.00730584  0.87864426  0.74564516  1
  O  O207  1  0.49768668  0.36620513  0.25827676  1
  O  O208  1  0.50160812  0.36083703  0.73875527  1
  O  O209  1  0.50621156  0.87444596  0.24693116  1
  O  O210  1  0.50121934  0.87202723  0.75730891  1
  O  O211  1  0.48928230  0.13554477  0.25443691  1
  O  O212  1  0.49113123  0.12865504  0.74635483  1
  O  O213  1  0.49489461  0.63931652  0.23820199  1
  O  O214  1  0.48707048  0.62794982  0.74067184  1
  O  O215  1  0.99789541  0.13071537  0.24183754  1
  O  O216  1  1.00284469  0.13591826  0.74459821  1
  O  O217  1  1.00165216  0.62933429  0.24542741  1
  O  O218  1  1.01781989  0.63565319  0.74259754  1
  O  O219  1  0.36028602  0.24884822  -0.00008789  1
  O  O220  1  0.37699764  0.25905325  0.51154929  1
  O  O221  1  0.37144462  0.75930264  0.00679664  1
  O  O222  1  0.37618088  0.76428235  0.51140251  1
  O  O223  1  0.87466383  0.25708509  0.00617974  1
  O  O224  1  0.87087617  0.25614676  0.50546507  1
  O  O225  1  0.87076315  0.75218559  0.00754784  1
  O  O226  1  0.87291105  0.75714494  0.50900975  1
  O  O227  1  0.11944606  0.25414654  0.48790032  1
  O  O228  1  0.13246531  0.24922330  0.99120098  1
  O  O229  1  0.12546653  0.74495435  0.48988517  1
  O  O230  1  0.12334570  0.73395898  1.00286585  1
  O  O231  1  0.62815075  0.24511418  0.49243157  1
  O  O232  1  0.62850765  0.24463214  0.99342941  1
  O  O233  1  0.60513212  0.76824860  0.47648068  1
  O  O234  1  0.63268227  0.74814087  0.99323926  1
  O  O235  1  0.50662970  0.25353196  0.13510612  1
  O  O236  1  0.48834386  0.24225659  0.63155773  1
  O  O237  1  0.49041927  0.74693808  0.12790887  1
  O  O238  1  0.48489581  0.74118885  0.63236365  1
  O  O239  1  0.99855642  0.24293160  0.12966528  1
  O  O240  1  0.99496820  0.24748830  0.63236353  1
  O  O241  1  0.99583063  0.74643623  0.13149498  1
  O  O242  1  0.98719385  0.75400969  0.61826065  1
  O  O243  1  0.00658734  0.25562831  0.36979176  1
  O  O244  1  0.01572618  0.24273816  0.87351895  1
  O  O245  1  0.01020462  0.75775027  0.37167009  1
  O  O246  1  -0.00258028  0.75714405  0.88103481  1
  O  O247  1  0.50387636  0.25619273  0.37273088  1
  O  O248  1  0.50900116  0.24339374  0.86403061  1
  O  O249  1  0.48262986  0.75711394  0.36239037  1
  O  O250  1  0.50491352  0.76147749  0.87210685  1
  O  O251  1  0.25562133  0.12026520  0.48612103  1
  O  O252  1  0.25218529  0.13593144  0.99456611  1
  O  O253  1  0.24090482  0.62029023  0.49103408  1
  O  O254  1  0.23331818  0.62204440  1.01191437  1
  O  O255  1  0.74395511  0.12976271  0.49123311  1
  O  O256  1  0.74099762  0.13228798  1.00063885  1
  O  O257  1  0.73303123  0.62043048  0.49234846  1
  O  O258  1  0.75108612  0.63833599  1.00159490  1
  O  O259  1  0.24405480  0.36349768  0.01766138  1
  O  O260  1  0.25464517  0.37781165  0.51387932  1
  O  O261  1  0.25827230  0.87998788  0.00594297  1
  O  O262  1  0.25557281  0.88173255  0.51382821  1
  O  O263  1  0.76114756  0.36810051  0.00594070  1
  O  O264  1  0.76343105  0.36631659  0.51204079  1
  O  O265  1  0.74279872  0.86256487  0.01690707  1
  O  O266  1  0.74586233  0.88235127  0.51071006  1
  O  O267  1  0.13774496  0.48748141  0.25931153  1
  O  O268  1  0.13411218  0.49718230  0.74455073  1
  O  O269  1  0.13167114  0.99390499  0.24303442  1
  O  O270  1  0.13021001  0.99234859  0.74326467  1
  O  O271  1  0.63366300  0.49281467  0.24033774  1
  O  O272  1  0.63095450  0.49654559  0.75421403  1
  O  O273  1  0.63014502  1.00037676  0.24039386  1
  O  O274  1  0.62505637  0.99628939  0.73840902  1
  O  O275  1  0.37004546  0.00435293  0.25797444  1
  O  O276  1  0.36347749  0.00949529  0.74573707  1
  O  O277  1  0.35823334  0.49322593  0.25774482  1
  O  O278  1  0.35726826  0.51002672  0.74656161  1
  O  O279  1  0.86027529  0.00295433  0.24861957  1
  O  O280  1  0.86125153  0.00306457  0.73781980  1
  O  O281  1  0.86914548  0.49877627  0.26107227  1
  O  O282  1  0.87995054  0.49178444  0.76372910  1
  O  O283  1  0.12180777  0.36744268  0.36996023  1
  O  O284  1  0.13100380  0.35966809  0.87763718  1
  O  O285  1  0.12342053  0.86859098  0.37074434  1
  O  O286  1  0.12042542  0.88292650  0.85840710  1
  O  O287  1  0.61455197  0.36010665  0.37142592  1
  O  O288  1  0.63286204  0.36174143  0.87214190  1
  O  O289  1  0.61732510  0.89108836  0.36212663  1
  O  O290  1  0.62066833  0.86497372  0.86876999  1
  O  O291  1  0.37111560  0.11696451  0.13959170  1
  O  O292  1  0.37450869  0.13079399  0.63434394  1
  O  O293  1  0.37830429  0.63725151  0.11970675  1
  O  O294  1  0.37343571  0.63372964  0.63149325  1
  O  O295  1  0.88223361  0.13588514  0.12775900  1
  O  O296  1  0.87691199  0.13776608  0.62350871  1
  O  O297  1  0.88787778  0.63700144  0.12480908  1
  O  O298  1  0.87939704  0.63756628  0.61395373  1
  O  O299  1  0.24471976  0.25414043  0.11488884  1
  O  O300  1  0.25907601  0.25630726  0.63348638  1
  O  O301  1  0.25620627  0.75682375  0.12236789  1
  O  O302  1  0.25357888  0.76099672  0.63354225  1
  O  O303  1  0.75811990  0.25753329  0.11962553  1
  O  O304  1  0.75828031  0.25389304  0.61938778  1
  O  O305  1  0.75826966  0.75641706  0.12583093  1
  O  O306  1  0.74979209  0.76316784  0.62239760  1
  O  O307  1  0.24388339  0.23755489  0.37408956  1
  O  O308  1  0.24276442  0.24591913  0.88657092  1
  O  O309  1  0.24198832  0.74326186  0.36776873  1
  O  O310  1  0.23428151  0.75899399  0.88052882  1
  O  O311  1  0.74161451  0.24680397  0.37785391  1
  O  O312  1  0.74245897  0.24732081  0.88127349  1
  O  O313  1  0.73431503  0.74337243  0.33291143  1
  O  O314  1  0.74173027  0.74893126  0.88464409  1
  O  O315  1  -0.00063027  0.11452073  0.01560356  1
  O  O316  1  -0.00090029  0.11417969  0.49786151  1
  O  O317  1  0.00886011  0.61244962  0.01034399  1
  O  O318  1  0.01711953  0.62287695  0.50448299  1
  O  O319  1  0.50441857  0.11524778  -0.00778139  1
  O  O320  1  0.50026117  0.12066978  0.50586155  1
  O  O321  1  0.50125514  0.63282272  0.01827409  1
  O  O322  1  0.48552558  0.60727246  0.51779166  1
  O  O323  1  0.48959112  0.37431792  0.49574335  1
  O  O324  1  0.49616769  0.38243715  0.99307531  1
  O  O325  1  0.49287707  0.87923591  0.49453040  1
  O  O326  1  0.49517807  0.88325380  0.99337131  1
  O  O327  1  0.98795764  0.37660086  0.49534826  1
  O  O328  1  0.99453081  0.38482676  1.00921563  1
  O  O329  1  1.00201437  0.88363785  0.48560927  1
  O  O330  1  1.00205290  0.89180372  1.00572119  1
  O  O331  1  0.49509913  0.48325347  0.38055566  1
  O  O332  1  0.48736842  0.50863185  0.88154775  1
  O  O333  1  0.48498847  1.00729670  0.37923382  1
  O  O334  1  0.50750821  0.98857882  0.88161479  1
  O  O335  1  0.99317163  0.49176550  0.37690541  1
  O  O336  1  0.98920323  0.49929442  0.88634978  1
  O  O337  1  1.00145423  0.99462910  0.37785591  1
  O  O338  1  1.00444239  1.00971509  0.89355074  1
  O  O339  1  0.00684450  0.00693134  0.12337297  1
  O  O340  1  0.00772560  0.00192145  0.61425364  1
  O  O341  1  -0.00663043  0.50834911  0.11805260  1
  O  O342  1  0.01418763  0.49776524  0.62441885  1
  O  O343  1  0.51111907  -0.00312059  0.11474435  1
  O  O344  1  0.50218506  0.00477658  0.61915743  1
  O  O345  1  0.49753127  0.51607544  0.13549145  1
  O  O346  1  0.49262055  0.50812301  0.62399196  1
  O  O347  1  0.24416855  0.37611229  0.24156039  1
  O  O348  1  0.24948864  0.38560342  0.74043862  1
  O  O349  1  0.24730064  0.88409837  0.24249095  1
  O  O350  1  0.24579163  0.88517091  0.74352399  1
  O  O351  1  0.74991122  0.38200100  0.24005410  1
  O  O352  1  0.75248823  0.37023107  0.73414678  1
  O  O353  1  0.73889546  0.88646948  0.23900368  1
  O  O354  1  0.74101762  0.88582023  0.73317073  1
  O  O355  1  0.25718666  0.12024623  0.25800405  1
  O  O356  1  0.25581593  0.11770313  0.75841843  1
  O  O357  1  0.24446698  0.61530124  0.26017123  1
  O  O358  1  0.25170611  0.61206189  0.74855988  1
  O  O359  1  0.74776079  0.12039083  0.25471111  1
  O  O360  1  0.74867200  0.11098404  0.74221184  1
  O  O361  1  0.75697272  0.60519082  0.23374442  1
  O  O362  1  0.75329064  0.62798994  0.75012836  1
  O  O363  1  0.36386702  0.11907265  0.36950413  1
  O  O364  1  0.36370984  0.13093206  0.86486784  1
  O  O365  1  0.36767867  0.62476550  0.38373855  1
  O  O366  1  0.37375516  0.63950876  0.86187226  1
  O  O367  1  0.86095191  0.12733925  0.37095204  1
  O  O368  1  0.86838992  0.12681909  0.87256898  1
  O  O369  1  0.88403544  0.61320549  0.37675408  1
  O  O370  1  0.87514694  0.61052187  0.87805641  1
  O  O371  1  0.13279819  0.36964529  0.13951959  1
  O  O372  1  0.13237205  0.38130447  0.62757709  1
  O  O373  1  0.13175349  0.88227512  0.13062651  1
  O  O374  1  0.13026197  0.88381750  0.63292542  1
  O  O375  1  0.63802548  0.37194279  0.12500285  1
  O  O376  1  0.64198790  0.36528211  0.62528023  1
  O  O377  1  0.62947791  0.88503744  0.13053420  1
  O  O378  1  0.63066362  0.87966291  0.62791730  1
  O  O379  1  0.11987042  0.25756570  0.25974565  1
  O  O380  1  0.12211415  0.25285944  0.76379969  1
  O  O381  1  0.12109512  0.75688963  0.25736672  1
  O  O382  1  0.11995469  0.77042632  0.74955252  1
  O  O383  1  0.61531087  0.24866705  0.25749847  1
  O  O384  1  0.61495011  0.24916730  0.75734808  1
  O  O385  1  0.60449774  0.76695829  0.24123860  1
  O  O386  1  0.61429406  0.75879506  0.75453032  1
  O  O387  1  0.38392270  0.23974618  0.25288331  1
  O  O388  1  0.37950061  0.24197592  0.74527407  1
  O  O389  1  0.38331878  0.76278096  0.23511557  1
  O  O390  1  0.37631455  0.74682981  0.74164306  1
  O  O391  1  0.88446672  0.25276466  0.24340417  1
  O  O392  1  0.88451551  0.24745910  0.74333534  1
  O  O393  1  0.88736072  0.74726737  0.24241270  1
  O  O394  1  0.87552357  0.75782948  0.72391415  1
  O  O395  1  0.37959958  0.48246930  0.50083359  1
  O  O396  1  0.36602199  0.48697906  0.99351433  1
  O  O397  1  0.37876484  0.99084213  0.49582477  1
  O  O398  1  0.38630170  0.99277666  1.00356206  1
  O  O399  1  0.87602333  0.49277373  0.49392737  1
  O  O400  1  0.88308703  0.49159648  0.99406114  1
  O  O401  1  0.88520215  0.99667932  0.49480857  1
  O  O402  1  0.88673676  1.00012971  1.00461823  1
  O  O403  1  0.11992995  -0.00199649  0.01209186  1
  O  O404  1  0.11648716  -0.00467409  0.50879919  1
  O  O405  1  0.11687620  0.50793439  -0.00040620  1
  O  O406  1  0.12495408  0.50709189  0.50809228  1
  O  O407  1  0.61625211  0.01020369  0.00600742  1
  O  O408  1  0.61498609  0.00779345  0.50369487  1
  O  O409  1  0.63676531  0.50651184  0.00754545  1
  O  O410  1  0.60619152  0.48198228  0.50351866  1
  O  O411  1  0.36058711  0.36874998  0.13187313  1
  O  O412  1  0.36657544  0.36621765  0.62183169  1
  O  O413  1  0.37093474  0.86979274  0.11231515  1
  O  O414  1  0.36543524  0.86808778  0.62097327  1
  O  O415  1  0.87138583  0.36668279  0.11771491  1
  O  O416  1  0.87203381  0.36325573  0.61881993  1
  O  O417  1  0.86689230  0.86372285  0.13299731  1
  O  O418  1  0.85952280  0.87161814  0.61645693  1
  O  O419  1  0.13963470  0.13238071  0.37092374  1
  O  O420  1  0.13879310  0.13677005  0.87174378  1
  O  O421  1  0.13371764  0.63366155  0.38203915  1
  O  O422  1  0.11981794  0.62458112  0.89276402  1
  O  O423  1  0.63234448  0.13348339  0.37838530  1
  O  O424  1  0.62902140  0.13398710  0.88580680  1
  O  O425  1  0.59919443  0.61919041  0.38305029  1
  O  O426  1  0.62167060  0.64102914  0.87472092  1
