# generated using pymatgen
data_V85Zn86O256
_symmetry_space_group_name_H-M   'P 1'
_cell_length_a   16.92448632
_cell_length_b   16.93274979
_cell_length_c   16.92770109
_cell_angle_alpha   89.94679763
_cell_angle_beta   90.11835944
_cell_angle_gamma   90.07016036
_symmetry_Int_Tables_number   1
_chemical_formula_structural   V85Zn86O256
_chemical_formula_sum   'V85 Zn86 O256'
_cell_volume   4851.09221916
_cell_formula_units_Z   1
loop_
 _symmetry_equiv_pos_site_id
 _symmetry_equiv_pos_as_xyz
  1  'x, y, z'
loop_
 _atom_site_type_symbol
 _atom_site_label
 _atom_site_symmetry_multiplicity
 _atom_site_fract_x
 _atom_site_fract_y
 _atom_site_fract_z
 _atom_site_occupancy
  V  V0  1  0.12754614  0.62535111  -0.00178991  1
  V  V1  1  0.12548679  0.37622801  0.74959811  1
  V  V2  1  0.87284996  0.85913614  0.50341303  1
  V  V3  1  0.38024509  0.50283110  0.38242788  1
  V  V4  1  0.62185450  -0.00630819  0.61461546  1
  V  V5  1  0.25735852  0.37751392  0.12198102  1
  V  V6  1  0.12567739  0.24901185  0.87490152  1
  V  V7  1  0.00179884  0.49795809  0.49089522  1
  V  V8  1  0.87345993  0.49792996  0.86826027  1
  V  V9  1  0.12818070  0.87766962  0.74585524  1
  V  V10  1  -0.00842917  -0.00518825  0.00128176  1
  V  V11  1  0.25226443  0.87758915  0.12718636  1
  V  V12  1  0.00051181  0.87956572  0.38080864  1
  V  V13  1  0.62847847  0.38442249  0.25259619  1
  V  V14  1  0.75631389  0.87724183  0.11849505  1
  V  V15  1  0.75099607  0.38331795  0.12786010  1
  V  V16  1  0.49478247  0.24686214  0.25374837  1
  V  V17  1  0.37956616  0.37787039  0.50542799  1
  V  V18  1  0.74947203  0.12428567  0.37629732  1
  V  V19  1  0.25129768  0.75491397  0.50731898  1
  V  V20  1  0.12534337  0.00068092  0.12699310  1
  V  V21  1  0.37865247  0.87965157  0.50334078  1
  V  V22  1  0.00159642  0.49929354  -0.00274264  1
  V  V23  1  0.12416380  0.50659136  0.62210359  1
  V  V24  1  -0.00187112  0.24755298  0.74730027  1
  V  V25  1  0.87397969  0.37211506  -0.00167028  1
  V  V26  1  0.74916406  -0.00189291  0.24925948  1
  V  V27  1  0.37244128  0.24438862  0.13031319  1
  V  V28  1  0.25254350  0.50219765  0.25190622  1
  V  V29  1  0.24882356  0.37471761  0.62793602  1
  V  V30  1  0.25034417  0.13240548  0.37701245  1
  V  V31  1  0.24910286  0.62692277  0.38297556  1
  V  V32  1  0.25306112  0.75307964  0.00245515  1
  V  V33  1  0.87450942  0.12162472  0.75152115  1
  V  V34  1  0.50035269  0.38295147  0.87039071  1
  V  V35  1  0.49307307  0.61972464  0.62857857  1
  V  V36  1  0.12482382  0.87646502  0.25339981  1
  V  V37  1  0.12756786  0.49890650  0.12453556  1
  V  V38  1  0.26126653  0.50343479  0.75418801  1
  V  V39  1  0.75062606  0.62666277  0.35996908  1
  V  V40  1  0.00067269  0.62759766  0.12567774  1
  V  V41  1  0.75574337  0.75469946  -0.00405938  1
  V  V42  1  0.00424560  0.25365644  0.25870696  1
  V  V43  1  0.61520794  0.74720664  0.87150006  1
  V  V44  1  -0.00803644  0.87302917  0.87610656  1
  V  V45  1  0.12416072  0.74698994  0.38000547  1
  V  V46  1  0.11531010  0.13545236  0.49600898  1
  V  V47  1  0.48106354  0.49695705  0.00183067  1
  V  V48  1  0.73424272  0.49153762  0.74272291  1
  V  V49  1  0.12470516  0.12489022  -0.00051925  1
  V  V50  1  0.62030977  0.86853625  0.24564713  1
  V  V51  1  0.63361065  0.62880759  0.50636732  1
  V  V52  1  0.74806562  0.62261291  0.87275441  1
  V  V53  1  0.61877549  0.86619796  0.74607433  1
  V  V54  1  -0.00005049  0.12582302  0.12481667  1
  V  V55  1  0.38444054  0.00761281  0.37844307  1
  V  V56  1  0.38463746  0.63231072  0.25400008  1
  V  V57  1  0.12526206  0.37285149  0.26279838  1
  V  V58  1  0.62630264  0.24974354  0.37578319  1
  V  V59  1  0.49775352  0.11750611  0.61842596  1
  V  V60  1  0.73346481  0.24625686  -0.00246526  1
  V  V61  1  0.25474625  0.25448267  -0.00273166  1
  V  V62  1  0.87609823  -0.00015726  0.38649933  1
  V  V63  1  0.87506789  0.62881521  0.74273044  1
  V  V64  1  0.50940447  0.12949416  0.11946495  1
  V  V65  1  0.73479914  0.12565520  0.87598291  1
  V  V66  1  0.87341120  0.37411794  0.49593492  1
  V  V67  1  0.49780325  0.86631323  0.37120393  1
  V  V68  1  0.25715962  0.11528887  0.87348340  1
  V  V69  1  -0.00142025  0.63012285  0.61742062  1
  V  V70  1  0.62396050  0.61875425  -0.00001353  1
  V  V71  1  0.87595663  0.25001267  0.12371431  1
  V  V72  1  0.75046183  -0.00511428  0.74774047  1
  V  V73  1  0.50027513  0.37771983  0.37915939  1
  V  V74  1  0.38113880  0.75246569  0.63480336  1
  V  V75  1  0.26632311  0.62393447  0.87148166  1
  V  V76  1  0.12397669  -0.00504921  0.61277737  1
  V  V77  1  0.25630315  0.00751597  0.25271026  1
  V  V78  1  0.75323565  0.85804468  0.62180282  1
  V  V79  1  0.12426805  0.74898579  0.87121768  1
  V  V80  1  0.38720192  0.75532306  0.12927160  1
  V  V81  1  0.51887443  0.24820409  0.75570987  1
  V  V82  1  0.00007164  0.37397114  0.87346702  1
  V  V83  1  0.37286115  0.24537227  0.63142915  1
  V  V84  1  0.49225125  0.88159627  0.87205850  1
  Zn  Zn85  1  0.62721377  0.00507165  0.11489777  1
  Zn  Zn86  1  0.62004602  0.11597202  0.49413453  1
  Zn  Zn87  1  0.62981517  0.75264182  0.37785629  1
  Zn  Zn88  1  0.73734826  0.37029137  0.62624453  1
  Zn  Zn89  1  0.86928209  -0.00556118  0.87885465  1
  Zn  Zn90  1  0.37510997  0.88810487  -0.00312799  1
  Zn  Zn91  1  0.62573386  0.50368293  0.12839867  1
  Zn  Zn92  1  -0.00390303  0.75208095  0.74250231  1
  Zn  Zn93  1  -0.00388249  0.75053678  0.25061767  1
  Zn  Zn94  1  0.87795009  0.75330400  0.12223027  1
  Zn  Zn95  1  0.24644293  0.25293147  0.49885975  1
  Zn  Zn96  1  0.87714188  0.12432484  0.25153558  1
  Zn  Zn97  1  0.86995318  0.25173302  0.62591672  1
  Zn  Zn98  1  0.87091297  0.49640715  0.36622970  1
  Zn  Zn99  1  0.58228878  0.47301930  0.58259702  1
  Zn  Zn100  1  0.50329775  0.62658527  0.12909626  1
  Zn  Zn101  1  0.38131220  0.11592320  0.75559299  1
  Zn  Zn102  1  0.74900041  0.25024886  0.50243948  1
  Zn  Zn103  1  -0.00507130  0.11929199  0.61998549  1
  Zn  Zn104  1  0.87001563  0.62097008  0.24240023  1
  Zn  Zn105  1  0.50028529  0.01531274  -0.01246955  1
  Zn  Zn106  1  0.25503050  -0.00614096  0.74439436  1
  Zn  Zn107  1  0.18665176  0.18881019  0.18963651  1
  Zn  Zn108  1  0.18476378  0.18319996  0.68537329  1
  Zn  Zn109  1  0.19020897  0.68891135  0.19195594  1
  Zn  Zn110  1  0.18832843  0.68673460  0.68808600  1
  Zn  Zn111  1  0.68940163  0.19431439  0.19213193  1
  Zn  Zn112  1  0.68894446  0.18104334  0.68139363  1
  Zn  Zn113  1  0.68614575  0.69279388  0.18350051  1
  Zn  Zn114  1  0.68332282  0.67970841  0.68722839  1
  Zn  Zn115  1  0.31150319  0.31563154  0.31340898  1
  Zn  Zn116  1  0.31891634  0.31351412  0.81406604  1
  Zn  Zn117  1  0.31312258  0.81543793  0.31488864  1
  Zn  Zn118  1  0.30979235  0.81198130  0.81254695  1
  Zn  Zn119  1  0.81478685  0.31396675  0.31194378  1
  Zn  Zn120  1  0.80714999  0.30897651  0.81226710  1
  Zn  Zn121  1  0.81313016  0.80596631  0.30941918  1
  Zn  Zn122  1  0.80912933  0.80923481  0.81094630  1
  Zn  Zn123  1  0.19150177  0.43982976  0.44229865  1
  Zn  Zn124  1  0.19180882  0.43819942  0.93593634  1
  Zn  Zn125  1  0.19251292  0.93970050  0.43924283  1
  Zn  Zn126  1  0.18157263  0.93566245  0.93905461  1
  Zn  Zn127  1  0.69137397  0.44351287  0.43780485  1
  Zn  Zn128  1  0.68290542  0.43237271  0.93355059  1
  Zn  Zn129  1  0.69046442  0.93079912  0.43568340  1
  Zn  Zn130  1  0.67744168  0.94079385  0.93684173  1
  Zn  Zn131  1  0.31921664  0.06532554  0.06068093  1
  Zn  Zn132  1  0.30678155  0.06143674  0.56188113  1
  Zn  Zn133  1  0.31272801  0.57051931  0.06637524  1
  Zn  Zn134  1  0.31373673  0.56444070  0.56559820  1
  Zn  Zn135  1  0.81026264  0.06592173  0.06156098  1
  Zn  Zn136  1  0.80973004  0.06028878  0.56459539  1
  Zn  Zn137  1  0.81434017  0.56304256  0.05800622  1
  Zn  Zn138  1  0.81221436  0.55956182  0.56007866  1
  Zn  Zn139  1  0.43849133  0.43846749  0.18976969  1
  Zn  Zn140  1  0.43855490  0.43234081  0.69404307  1
  Zn  Zn141  1  0.43674371  0.94473443  0.18772716  1
  Zn  Zn142  1  0.43464453  0.93654532  0.69058596  1
  Zn  Zn143  1  0.93978441  0.43911072  0.19072559  1
  Zn  Zn144  1  0.93475270  0.43766778  0.68079776  1
  Zn  Zn145  1  0.93504461  0.93717304  0.19278266  1
  Zn  Zn146  1  0.94112715  0.93699971  0.68427254  1
  Zn  Zn147  1  0.06220911  0.06431936  0.31442185  1
  Zn  Zn148  1  0.06434266  0.05907746  0.81173017  1
  Zn  Zn149  1  0.06448457  0.56284422  0.31057900  1
  Zn  Zn150  1  0.06433667  0.56420998  0.80711007  1
  Zn  Zn151  1  0.56253360  0.06138463  0.30561097  1
  Zn  Zn152  1  0.56269372  0.05746729  0.80096974  1
  Zn  Zn153  1  0.56475035  0.56469789  0.32138197  1
  Zn  Zn154  1  0.55369602  0.56320508  0.81173902  1
  Zn  Zn155  1  0.43443352  0.19007483  0.44205392  1
  Zn  Zn156  1  0.43515257  0.19898035  0.93798762  1
  Zn  Zn157  1  0.44191904  0.68802642  0.44670079  1
  Zn  Zn158  1  0.43950162  0.69114929  0.94248759  1
  Zn  Zn159  1  0.93472109  0.19024265  0.43659376  1
  Zn  Zn160  1  0.93256146  0.18335708  0.93498990  1
  Zn  Zn161  1  0.93679790  0.68322436  0.43430522  1
  Zn  Zn162  1  0.93718078  0.68539650  0.93540850  1
  Zn  Zn163  1  0.06625810  0.31396491  0.06614695  1
  Zn  Zn164  1  0.05777265  0.31504564  0.56334798  1
  Zn  Zn165  1  0.06488921  0.81397831  0.06104580  1
  Zn  Zn166  1  0.06131646  0.81381411  0.55895808  1
  Zn  Zn167  1  0.55896170  0.32001553  0.06332640  1
  Zn  Zn168  1  0.56144310  0.30129357  0.56349717  1
  Zn  Zn169  1  0.56901995  0.81719510  0.05595774  1
  Zn  Zn170  1  0.55769789  0.80841214  0.55823524  1
  O  O171  1  0.12030916  0.12013951  0.11894621  1
  O  O172  1  0.12105760  0.11843791  0.61071521  1
  O  O173  1  0.12414854  0.62006598  0.11821439  1
  O  O174  1  0.11726296  0.61318500  0.63006313  1
  O  O175  1  0.61245467  0.13190862  0.13121352  1
  O  O176  1  0.61794055  0.11048536  0.62141799  1
  O  O177  1  0.62227748  0.62366259  0.11581061  1
  O  O178  1  0.61730221  0.62153546  0.61470810  1
  O  O179  1  0.37705439  0.38363527  0.38466717  1
  O  O180  1  0.40017985  0.35574800  0.88198809  1
  O  O181  1  0.38166268  0.88450777  0.37936078  1
  O  O182  1  0.38936190  0.86507249  0.87480367  1
  O  O183  1  0.87132029  0.37719594  0.38876581  1
  O  O184  1  0.88045144  0.37976645  0.87748515  1
  O  O185  1  0.87913788  0.87844404  0.38386794  1
  O  O186  1  0.88793267  0.87360989  0.86887555  1
  O  O187  1  0.25711017  0.00970652  0.36944862  1
  O  O188  1  0.24273601  0.01392804  0.87854973  1
  O  O189  1  0.25939721  0.50895391  0.37330808  1
  O  O190  1  0.24460013  0.51223579  0.86734718  1
  O  O191  1  0.75490292  0.00429313  0.36832230  1
  O  O192  1  0.74953738  0.00110072  0.86280905  1
  O  O193  1  0.75158334  0.52115322  0.37953615  1
  O  O194  1  0.75660134  0.50161425  0.86817271  1
  O  O195  1  0.24875827  0.49517797  0.12943805  1
  O  O196  1  0.24265616  0.49726818  0.63198067  1
  O  O197  1  0.24702028  0.99905005  0.13378632  1
  O  O198  1  0.22949831  1.00587012  0.62734373  1
  O  O199  1  0.74966828  0.48622951  0.11632353  1
  O  O200  1  0.74980373  0.49887551  0.64006378  1
  O  O201  1  0.74920781  0.99636464  0.13108223  1
  O  O202  1  0.74250260  0.99125198  0.63399266  1
  O  O203  1  0.01410802  0.36568809  0.24044459  1
  O  O204  1  0.00286812  0.36784076  0.75439348  1
  O  O205  1  0.00590029  0.87301113  0.26114728  1
  O  O206  1  0.00868209  0.87176881  0.75707136  1
  O  O207  1  0.50663050  0.36766556  0.25779771  1
  O  O208  1  0.50074760  0.36265058  0.76030423  1
  O  O209  1  0.50916228  0.88452927  0.25686368  1
  O  O210  1  0.50819285  0.87127269  0.75868756  1
  O  O211  1  0.50322993  0.14234634  0.24407031  1
  O  O212  1  0.50032141  0.13342723  0.73961569  1
  O  O213  1  0.48827760  0.62193969  0.25126628  1
  O  O214  1  0.51169016  0.62843057  0.72841262  1
  O  O215  1  1.00115367  0.13281893  0.24098994  1
  O  O216  1  0.99230523  0.13149387  0.75312003  1
  O  O217  1  1.00926839  0.62811472  0.23301623  1
  O  O218  1  0.99139562  0.62516735  0.74036668  1
  O  O219  1  0.36097066  0.24921603  0.01157035  1
  O  O220  1  0.37212846  0.25860296  0.51366124  1
  O  O221  1  0.36429664  0.75243117  0.00971142  1
  O  O222  1  0.36849835  0.75861644  0.50600992  1
  O  O223  1  0.87365019  0.25413164  0.00973972  1
  O  O224  1  0.87464763  0.26122437  0.50195351  1
  O  O225  1  0.85937932  0.74513679  -0.00331736  1
  O  O226  1  0.87790423  0.76116214  0.49874212  1
  O  O227  1  0.12469436  0.23918772  0.50360534  1
  O  O228  1  0.13409146  0.24515057  0.99692979  1
  O  O229  1  0.13508598  0.75799550  0.48803577  1
  O  O230  1  0.13663765  0.74763468  0.99338349  1
  O  O231  1  0.62521723  0.24436358  0.48436611  1
  O  O232  1  0.63558622  0.25295516  1.00848923  1
  O  O233  1  0.62045491  0.73572095  0.49609113  1
  O  O234  1  0.63192763  0.73843893  0.99118578  1
  O  O235  1  0.49296099  0.24851326  0.13242528  1
  O  O236  1  0.49220194  0.24087682  0.63538952  1
  O  O237  1  0.48943359  0.75150616  0.11708955  1
  O  O238  1  0.48638382  0.74401132  0.62515737  1
  O  O239  1  0.99358607  0.24474599  0.12719160  1
  O  O240  1  0.99784092  0.24596376  0.63865122  1
  O  O241  1  1.00104995  0.74192527  0.12212549  1
  O  O242  1  1.00723849  0.73490448  0.62337034  1
  O  O243  1  -0.00461619  0.24659478  0.35748052  1
  O  O244  1  0.00418359  0.25267943  0.86677392  1
  O  O245  1  0.00935192  0.75565557  0.37489911  1
  O  O246  1  0.00828156  0.75560697  0.87579025  1
  O  O247  1  0.50418692  0.25580620  0.37075259  1
  O  O248  1  0.50358520  0.24362841  0.85802465  1
  O  O249  1  0.49620147  0.76367126  0.37387074  1
  O  O250  1  0.51147794  0.75352339  0.87577270  1
  O  O251  1  0.23776131  0.12917274  0.49325838  1
  O  O252  1  0.24481247  0.13257010  0.99198735  1
  O  O253  1  0.25592712  0.63299710  0.48836495  1
  O  O254  1  0.24547765  0.63298221  0.99345550  1
  O  O255  1  0.74708163  0.12308376  0.48641569  1
  O  O256  1  0.75338492  0.13478000  0.98980253  1
  O  O257  1  0.73737113  0.62615428  0.50219180  1
  O  O258  1  0.74246939  0.62940754  0.99145828  1
  O  O259  1  0.24486866  0.36685105  0.00893183  1
  O  O260  1  0.26002470  0.37284938  0.50903979  1
  O  O261  1  0.25194691  0.86907266  0.00520349  1
  O  O262  1  0.26389221  0.86548218  0.49282774  1
  O  O263  1  0.75576607  0.36569182  0.00390100  1
  O  O264  1  0.76113583  0.37581122  0.50117767  1
  O  O265  1  0.74229534  0.86688243  0.00521986  1
  O  O266  1  0.76319631  0.87386993  0.50648461  1
  O  O267  1  0.13251262  0.49425060  0.24347900  1
  O  O268  1  0.12989547  0.49242832  0.74226609  1
  O  O269  1  0.13215934  0.99530120  0.24605516  1
  O  O270  1  0.12865757  0.99232862  0.74251178  1
  O  O271  1  0.61802866  0.48802377  0.25034610  1
  O  O272  1  0.63620140  0.50092652  0.75598755  1
  O  O273  1  0.63766470  0.99288272  0.24739869  1
  O  O274  1  0.63215399  0.98457685  0.73924461  1
  O  O275  1  0.36245443  -0.00054037  0.26023760  1
  O  O276  1  0.36691132  0.00390737  0.74640502  1
  O  O277  1  0.36987713  0.50759809  0.25893858  1
  O  O278  1  0.36054120  0.49492583  0.75010894  1
  O  O279  1  0.86261108  0.00008738  0.25957075  1
  O  O280  1  0.86728573  0.00318303  0.75026046  1
  O  O281  1  0.88343539  0.50788723  0.25370017  1
  O  O282  1  0.87381830  0.50535220  0.75886443  1
  O  O283  1  0.13499595  0.37940162  0.36204613  1
  O  O284  1  0.11931661  0.36881107  0.86993279  1
  O  O285  1  0.11736844  0.87309898  0.37395812  1
  O  O286  1  0.11653832  0.86508193  0.86969087  1
  O  O287  1  0.62247539  0.36962823  0.37174308  1
  O  O288  1  0.60160882  0.36891424  0.88537599  1
  O  O289  1  0.61609218  0.87450389  0.36757746  1
  O  O290  1  0.61762928  0.86604116  0.86436514  1
  O  O291  1  0.38243336  0.14011743  0.12940786  1
  O  O292  1  0.37986310  0.13029384  0.62379205  1
  O  O293  1  0.37659432  0.63675871  0.13640624  1
  O  O294  1  0.38435887  0.63735301  0.62041579  1
  O  O295  1  0.88043269  0.13373138  0.12794938  1
  O  O296  1  0.87565247  0.12387183  0.63736331  1
  O  O297  1  0.88797859  0.62620921  0.11873183  1
  O  O298  1  0.88441720  0.61628767  0.63258615  1
  O  O299  1  0.25506362  0.25623031  0.12082718  1
  O  O300  1  0.25569108  0.25574317  0.62649494  1
  O  O301  1  0.25489019  0.75691111  0.11871016  1
  O  O302  1  0.25754960  0.74116533  0.61201734  1
  O  O303  1  0.75866268  0.25607259  0.11830463  1
  O  O304  1  0.75201351  0.25075985  0.62027424  1
  O  O305  1  0.75015010  0.75928912  0.11294209  1
  O  O306  1  0.74927291  0.75948531  0.63222721  1
  O  O307  1  0.25576285  0.23689745  0.37573000  1
  O  O308  1  0.24469856  0.24671379  0.88256828  1
  O  O309  1  0.24602730  0.74484866  0.38306672  1
  O  O310  1  0.24322477  0.74486150  0.88275493  1
  O  O311  1  0.74299660  0.24099066  0.37384617  1
  O  O312  1  0.75227669  0.24045914  0.88633655  1
  O  O313  1  0.74863825  0.73492450  0.37406205  1
  O  O314  1  0.73946896  0.74370259  0.87862471  1
  O  O315  1  0.00482481  0.11895186  0.00494389  1
  O  O316  1  0.01104605  0.12791300  0.49842662  1
  O  O317  1  0.00797768  0.62038762  0.00545982  1
  O  O318  1  -0.00604718  0.61394373  0.50804219  1
  O  O319  1  0.49739837  0.13740025  0.01669778  1
  O  O320  1  0.50203789  0.12889916  0.51384885  1
  O  O321  1  0.50562016  0.61344460  -0.00024793  1
  O  O322  1  0.50912616  0.62865437  0.51631311  1
  O  O323  1  0.48758950  0.37062048  0.49560902  1
  O  O324  1  0.49848636  0.39234757  0.99684782  1
  O  O325  1  0.48766007  0.87392445  0.48948630  1
  O  O326  1  0.50046304  0.87029396  0.97996980  1
  O  O327  1  0.98801395  0.38446021  0.50469720  1
  O  O328  1  0.99554462  0.37911498  0.99396075  1
  O  O329  1  0.98860724  0.87429213  0.48947225  1
  O  O330  1  1.00572737  0.88366561  0.99073601  1
  O  O331  1  0.48684250  0.49452810  0.37295062  1
  O  O332  1  0.49639332  0.49176249  0.88284365  1
  O  O333  1  0.48775012  0.99763158  0.36913021  1
  O  O334  1  0.50248553  0.98488803  0.86799682  1
  O  O335  1  1.00395395  0.50592780  0.38851335  1
  O  O336  1  0.99421869  0.49587363  0.87780090  1
  O  O337  1  0.98862512  0.99124650  0.36815362  1
  O  O338  1  1.00023153  0.99068858  0.88384960  1
  O  O339  1  0.00335775  0.00379745  0.12076306  1
  O  O340  1  0.01737818  0.00461351  0.63074823  1
  O  O341  1  0.00823167  0.50620034  0.11488789  1
  O  O342  1  0.00785453  0.50694903  0.61859435  1
  O  O343  1  0.50180471  0.02473208  0.13612857  1
  O  O344  1  0.50956889  0.00539026  0.63040040  1
  O  O345  1  0.50039136  0.50189317  0.11290603  1
  O  O346  1  0.48588007  0.51241277  0.62661619  1
  O  O347  1  0.24512930  0.38263777  0.24332093  1
  O  O348  1  0.24500285  0.38010144  0.74794204  1
  O  O349  1  0.24407562  0.88545059  0.24800973  1
  O  O350  1  0.23241791  0.87435099  0.75669283  1
  O  O351  1  0.74142870  0.36829686  0.23976390  1
  O  O352  1  0.75266471  0.38832744  0.75043792  1
  O  O353  1  0.74389889  0.88139979  0.24310063  1
  O  O354  1  0.74538768  0.87922898  0.74276752  1
  O  O355  1  0.24117021  0.11705449  0.26092204  1
  O  O356  1  0.24581999  0.12677572  0.76758108  1
  O  O357  1  0.26040840  0.62126360  0.26114013  1
  O  O358  1  0.24451727  0.61640805  0.76059824  1
  O  O359  1  0.75109281  0.11879376  0.25962137  1
  O  O360  1  0.75564688  0.11504816  0.75410868  1
  O  O361  1  0.74516492  0.62481081  0.25625102  1
  O  O362  1  0.75628749  0.61295289  0.75422137  1
  O  O363  1  0.36621477  0.11739408  0.38405649  1
  O  O364  1  0.35986284  0.13195410  0.87634799  1
  O  O365  1  0.37242268  0.62145780  0.37302665  1
  O  O366  1  0.36516104  0.63398030  0.87616348  1
  O  O367  1  0.86774989  0.11721007  0.37331027  1
  O  O368  1  0.86683739  0.11901383  0.86320785  1
  O  O369  1  0.86101004  0.62486030  0.37211336  1
  O  O370  1  0.86954076  0.61465213  0.86887287  1
  O  O371  1  0.13833706  0.38163988  0.13017657  1
  O  O372  1  0.12991233  0.38169844  0.63099517  1
  O  O373  1  0.13221255  0.88114985  0.13182825  1
  O  O374  1  0.11968304  0.88550003  0.62926772  1
  O  O375  1  0.63299854  0.37694625  0.13454479  1
  O  O376  1  0.62264974  0.37752161  0.61660073  1
  O  O377  1  0.63405347  0.87860602  0.13046837  1
  O  O378  1  0.62943009  0.87404145  0.62830238  1
  O  O379  1  0.11695760  0.26055716  0.24503889  1
  O  O380  1  0.11689360  0.25428019  0.75435399  1
  O  O381  1  0.12801150  0.75980349  0.26291893  1
  O  O382  1  0.12197494  0.75526669  0.75683297  1
  O  O383  1  0.61852248  0.26042142  0.26097161  1
  O  O384  1  0.61650606  0.24676114  0.74535238  1
  O  O385  1  0.62625699  0.76518602  0.25107123  1
  O  O386  1  0.63253922  0.75862493  0.75680173  1
  O  O387  1  0.38349472  0.25792379  0.24404936  1
  O  O388  1  0.37836729  0.24460187  0.73906410  1
  O  O389  1  0.36848410  0.74382525  0.24194899  1
  O  O390  1  0.36498318  0.75243707  0.73238339  1
  O  O391  1  0.88265610  0.25144261  0.23739585  1
  O  O392  1  0.88174811  0.24092045  0.75153005  1
  O  O393  1  0.87901068  0.74139761  0.24156219  1
  O  O394  1  0.87605063  0.73287184  0.75590072  1
  O  O395  1  0.36878161  0.49171322  0.49332084  1
  O  O396  1  0.38272214  0.50523085  1.00189447  1
  O  O397  1  0.36764833  0.99116248  0.49150202  1
  O  O398  1  0.38877567  1.00009680  1.00537915  1
  O  O399  1  0.88293631  0.49069854  0.49628825  1
  O  O400  1  0.87993523  0.49363323  0.98639357  1
  O  O401  1  0.87021868  0.99366386  0.48913130  1
  O  O402  1  0.88778579  1.00459898  0.99882389  1
  O  O403  1  0.11549097  0.00500770  0.00806896  1
  O  O404  1  0.12563320  0.00576024  0.50831860  1
  O  O405  1  0.12147820  0.50513639  0.00361957  1
  O  O406  1  0.11742841  0.49317602  0.51199585  1
  O  O407  1  0.61231237  0.00158472  0.00271838  1
  O  O408  1  0.62940818  -0.00541297  0.51090085  1
  O  O409  1  0.62292488  0.51138248  -0.00125965  1
  O  O410  1  0.61964390  0.52007314  0.48802754  1
  O  O411  1  0.36299007  0.36839399  0.13121285  1
  O  O412  1  0.37061392  0.36798521  0.62176656  1
  O  O413  1  0.36936079  0.87054758  0.12680539  1
  O  O414  1  0.38061531  0.86300540  0.61625938  1
  O  O415  1  0.86992150  0.36899163  0.11922123  1
  O  O416  1  0.87005880  0.37346875  0.61222479  1
  O  O417  1  0.86081779  0.87564234  0.12731391  1
  O  O418  1  0.87022212  0.87822248  0.61125426  1
  O  O419  1  0.13161057  0.11822342  0.39007412  1
  O  O420  1  0.13107404  0.13116412  0.88140290  1
  O  O421  1  0.13652523  0.63536459  0.36943694  1
  O  O422  1  0.12612080  0.63681430  0.87898848  1
  O  O423  1  0.63053263  0.13066544  0.37272288  1
  O  O424  1  0.63606373  0.11906614  0.86573738  1
  O  O425  1  0.63431080  0.63157106  0.38087705  1
  O  O426  1  0.62726791  0.62990801  0.87862081  1
