# generated using pymatgen
data_V85Zn86O256
_symmetry_space_group_name_H-M   'P 1'
_cell_length_a   16.92788839
_cell_length_b   16.92824308
_cell_length_c   16.92826040
_cell_angle_alpha   90.03637954
_cell_angle_beta   89.99035599
_cell_angle_gamma   90.03400172
_symmetry_Int_Tables_number   1
_chemical_formula_structural   V85Zn86O256
_chemical_formula_sum   'V85 Zn86 O256'
_cell_volume   4850.95040111
_cell_formula_units_Z   1
loop_
 _symmetry_equiv_pos_site_id
 _symmetry_equiv_pos_as_xyz
  1  'x, y, z'
loop_
 _atom_site_type_symbol
 _atom_site_label
 _atom_site_symmetry_multiplicity
 _atom_site_fract_x
 _atom_site_fract_y
 _atom_site_fract_z
 _atom_site_occupancy
  V  V0  1  0.37610692  0.12215848  0.74896657  1
  V  V1  1  0.74769203  0.49430580  0.74531933  1
  V  V2  1  0.50017456  0.12353986  0.12422075  1
  V  V3  1  0.62763568  -0.01471328  0.12544143  1
  V  V4  1  0.25217629  0.76127318  0.51501874  1
  V  V5  1  0.87178650  0.37243896  0.51536231  1
  V  V6  1  0.37925920  0.25693597  0.12127169  1
  V  V7  1  0.25127652  0.37871775  0.63050509  1
  V  V8  1  0.12436041  0.12237453  0.50120184  1
  V  V9  1  -0.00174312  0.24669114  0.24725712  1
  V  V10  1  0.00405497  0.74892597  0.76509501  1
  V  V11  1  0.25370173  0.25153787  -0.00232625  1
  V  V12  1  0.49901873  0.37495818  0.37248158  1
  V  V13  1  0.49567679  -0.00678188  0.00102081  1
  V  V14  1  0.12745396  0.62577062  0.50052345  1
  V  V15  1  0.87645512  0.74947562  0.62737408  1
  V  V16  1  0.38505255  0.87781758  0.50648863  1
  V  V17  1  0.62080067  0.51241907  0.11253658  1
  V  V18  1  0.73443911  0.62806486  0.37830597  1
  V  V19  1  0.62198798  0.86902386  0.27054342  1
  V  V20  1  0.62102200  0.00034349  0.62717640  1
  V  V21  1  0.25380364  0.12257362  0.37199786  1
  V  V22  1  0.12929938  0.50180893  0.63531244  1
  V  V23  1  0.25021007  0.12404631  0.87525794  1
  V  V24  1  0.73536872  0.74433104  0.50023275  1
  V  V25  1  0.25328516  0.76271802  -0.00359434  1
  V  V26  1  -0.00218670  0.13667609  0.62625893  1
  V  V27  1  0.50544150  0.50892309  0.50008640  1
  V  V28  1  0.12128825  0.74949196  0.37063694  1
  V  V29  1  0.50217658  0.25072566  0.75037199  1
  V  V30  1  -0.00044199  0.89527756  0.87952203  1
  V  V31  1  0.62824107  0.25083328  0.87797581  1
  V  V32  1  0.25255464  0.62956459  0.37197856  1
  V  V33  1  0.76324153  -0.00229771  0.75370321  1
  V  V34  1  0.75161670  -0.00541874  0.25000437  1
  V  V35  1  0.25010597  -0.00923512  0.74477475  1
  V  V36  1  0.74971976  0.75197289  0.00733511  1
  V  V37  1  0.63231977  0.12517812  0.00178263  1
  V  V38  1  0.75141305  0.87190687  0.62808077  1
  V  V39  1  0.25016660  -0.00531057  0.24368635  1
  V  V40  1  0.37188018  0.61188235  0.74127644  1
  V  V41  1  0.00078492  0.50029015  0.50116346  1
  V  V42  1  0.00021930  0.87418317  0.36796727  1
  V  V43  1  0.87457549  0.37102143  0.00122137  1
  V  V44  1  0.87687744  0.63566674  0.25232958  1
  V  V45  1  0.87281601  0.88827036  0.00040516  1
  V  V46  1  0.25168294  0.50430748  0.24982833  1
  V  V47  1  0.12654168  0.86882129  0.24125135  1
  V  V48  1  -0.00497200  0.37528807  0.37489346  1
  V  V49  1  0.12018083  -0.00183183  0.12132867  1
  V  V50  1  0.86934727  0.24893285  0.12443767  1
  V  V51  1  0.50149607  0.25151401  0.25059618  1
  V  V52  1  0.37432703  -0.00667862  0.87923667  1
  V  V53  1  0.62254299  0.74457584  0.87896155  1
  V  V54  1  0.00147840  0.37232342  0.86955766  1
  V  V55  1  0.48935657  0.62547160  0.11417630  1
  V  V56  1  0.62488831  0.37693089  0.24836803  1
  V  V57  1  0.74894411  0.37618776  0.12076652  1
  V  V58  1  0.12348324  0.24925329  0.86636003  1
  V  V59  1  0.87929576  0.14284528  0.74799660  1
  V  V60  1  0.37645760  0.24837893  0.62359132  1
  V  V61  1  0.37205071  0.76611173  0.12459087  1
  V  V62  1  0.11674886  0.12273036  -0.00047351  1
  V  V63  1  0.49594625  0.74693214  0.25913371  1
  V  V64  1  0.48779061  0.75038597  0.74754443  1
  V  V65  1  0.87630329  0.87318752  0.49735273  1
  V  V66  1  0.87397012  0.50066904  0.87775254  1
  V  V67  1  0.25301069  0.61880985  0.87461801  1
  V  V68  1  0.12430649  -0.00804688  0.62465425  1
  V  V69  1  0.74970240  0.50430562  0.25049636  1
  V  V70  1  0.12650767  0.63279614  -0.00537443  1
  V  V71  1  0.62453909  0.87428386  0.75613067  1
  V  V72  1  0.37433267  0.50365207  0.36951201  1
  V  V73  1  0.75176979  0.25076471  0.51521431  1
  V  V74  1  0.00295870  0.50089883  0.00341834  1
  V  V75  1  0.00185023  0.62800749  0.62642411  1
  V  V76  1  0.12513849  0.24931057  0.37410828  1
  V  V77  1  0.12481903  0.37500872  0.24863381  1
  V  V78  1  0.75704229  0.12327968  0.87842322  1
  V  V79  1  0.25231729  0.37662416  0.12131750  1
  V  V80  1  0.00072898  0.63650060  0.12829498  1
  V  V81  1  0.37495711  0.37544334  0.49812591  1
  V  V82  1  0.25166656  0.24881389  0.49844266  1
  V  V83  1  0.74602848  0.62351937  0.88086219  1
  V  V84  1  0.63112996  0.24876001  0.37618083  1
  Zn  Zn85  1  0.12717542  0.86952756  0.75409609  1
  Zn  Zn86  1  0.12420494  0.37397321  0.74915368  1
  Zn  Zn87  1  -0.00182849  0.00045575  0.50057616  1
  Zn  Zn88  1  0.62848231  0.37199947  0.74208076  1
  Zn  Zn89  1  0.87280650  0.75760467  0.12682120  1
  Zn  Zn90  1  -0.00497400  0.12137837  0.12014108  1
  Zn  Zn91  1  0.62668006  0.12383264  0.50167662  1
  Zn  Zn92  1  0.87585864  0.00112851  0.37417810  1
  Zn  Zn93  1  0.87374309  0.12115024  0.25120354  1
  Zn  Zn94  1  0.87264879  0.50324012  0.37753606  1
  Zn  Zn95  1  0.75517104  0.12501188  0.37631363  1
  Zn  Zn96  1  0.87333156  0.62585295  0.75324050  1
  Zn  Zn97  1  0.38100466  -0.01263609  0.36952279  1
  Zn  Zn98  1  0.50915921  -0.00213482  0.48243170  1
  Zn  Zn99  1  0.50552164  0.63201845  0.61993752  1
  Zn  Zn100  1  0.12550578  0.50233874  0.12494556  1
  Zn  Zn101  1  0.50218321  0.12293461  0.62152426  1
  Zn  Zn102  1  0.38105142  0.49508639  0.88794324  1
  Zn  Zn103  1  0.49532114  0.87065037  0.88033004  1
  Zn  Zn104  1  0.37654752  0.12190313  0.24926891  1
  Zn  Zn105  1  0.63143346  0.50212722  0.61851556  1
  Zn  Zn106  1  0.49016231  0.37538071  0.88766277  1
  Zn  Zn107  1  0.18769180  0.18534602  0.18530175  1
  Zn  Zn108  1  0.18931040  0.18297138  0.68544642  1
  Zn  Zn109  1  0.18959576  0.68894228  0.18317165  1
  Zn  Zn110  1  0.18736068  0.68657319  0.69278987  1
  Zn  Zn111  1  0.68962037  0.18319048  0.18884331  1
  Zn  Zn112  1  0.68921609  0.18429009  0.69122596  1
  Zn  Zn113  1  0.68354807  0.68975878  0.19104924  1
  Zn  Zn114  1  0.68278076  0.67997905  0.69055692  1
  Zn  Zn115  1  0.31487070  0.31273590  0.30775109  1
  Zn  Zn116  1  0.31561566  0.31656143  0.81172572  1
  Zn  Zn117  1  0.31359245  0.81297705  0.31478988  1
  Zn  Zn118  1  0.30969576  0.81123039  0.81764245  1
  Zn  Zn119  1  0.81259806  0.31387987  0.31267424  1
  Zn  Zn120  1  0.81026371  0.31161146  0.81652388  1
  Zn  Zn121  1  0.80561326  0.81167936  0.31471394  1
  Zn  Zn122  1  0.81602505  0.81188060  0.81898723  1
  Zn  Zn123  1  0.18622299  0.43790637  0.44048121  1
  Zn  Zn124  1  0.19013180  0.43889665  0.93793128  1
  Zn  Zn125  1  0.18885459  0.93741742  0.43342636  1
  Zn  Zn126  1  0.18250268  0.93825602  0.93404513  1
  Zn  Zn127  1  0.68938265  0.43516347  0.43714014  1
  Zn  Zn128  1  0.68500692  0.43605934  0.93624461  1
  Zn  Zn129  1  0.69173787  0.93614014  0.43996137  1
  Zn  Zn130  1  0.68972344  0.93856520  0.93787651  1
  Zn  Zn131  1  0.31010570  0.06399185  0.06397620  1
  Zn  Zn132  1  0.31351616  0.05643294  0.56192051  1
  Zn  Zn133  1  0.30871159  0.57257133  0.06848140  1
  Zn  Zn134  1  0.31422099  0.56471988  0.56035391  1
  Zn  Zn135  1  0.81006108  0.06026536  0.06800322  1
  Zn  Zn136  1  0.81128523  0.06230757  0.56627109  1
  Zn  Zn137  1  0.81275723  0.56576377  0.06320265  1
  Zn  Zn138  1  0.81386922  0.56452084  0.56165150  1
  Zn  Zn139  1  0.44273288  0.44114342  0.04874529  1
  Zn  Zn140  1  0.44324135  0.43483872  0.68819870  1
  Zn  Zn141  1  0.44198412  0.93593112  0.19378959  1
  Zn  Zn142  1  0.43470230  0.93059127  0.68428335  1
  Zn  Zn143  1  0.93584561  0.44163073  0.18824858  1
  Zn  Zn144  1  0.93740327  0.44170405  0.69098480  1
  Zn  Zn145  1  0.93954307  0.93444838  0.18526503  1
  Zn  Zn146  1  0.94399751  0.93650058  0.68699510  1
  Zn  Zn147  1  0.06291393  0.05955426  0.31186245  1
  Zn  Zn148  1  0.06246543  0.06530277  0.80789684  1
  Zn  Zn149  1  0.06249912  0.56281277  0.31147876  1
  Zn  Zn150  1  0.06266758  0.56540417  0.81672908  1
  Zn  Zn151  1  0.56579155  0.06317852  0.31174357  1
  Zn  Zn152  1  0.56412273  0.06242761  0.81338604  1
  Zn  Zn153  1  0.55785208  0.56482632  0.30465733  1
  Zn  Zn154  1  0.55888841  0.56143656  0.81676226  1
  Zn  Zn155  1  0.44210745  0.18058200  0.43812459  1
  Zn  Zn156  1  0.43996449  0.18743307  0.93758458  1
  Zn  Zn157  1  0.42930234  0.69112165  0.43967100  1
  Zn  Zn158  1  0.43225097  0.68320224  0.93678253  1
  Zn  Zn159  1  0.93437256  0.18682873  0.43889084  1
  Zn  Zn160  1  0.93632058  0.18828344  0.93467627  1
  Zn  Zn161  1  0.93506856  0.68857006  0.43675458  1
  Zn  Zn162  1  0.93129402  0.68758694  0.94325425  1
  Zn  Zn163  1  0.06409385  0.31100204  0.06038795  1
  Zn  Zn164  1  0.06400483  0.31341390  0.56138953  1
  Zn  Zn165  1  0.06224959  0.81547897  0.05550247  1
  Zn  Zn166  1  0.06234432  0.81192097  0.56029924  1
  Zn  Zn167  1  0.57282027  0.30698730  0.06475923  1
  Zn  Zn168  1  0.56540588  0.31909534  0.56443556  1
  Zn  Zn169  1  0.55902876  0.80699126  0.06155652  1
  Zn  Zn170  1  0.56140854  0.81476845  0.56869605  1
  O  O171  1  0.12266049  0.11939717  0.11568975  1
  O  O172  1  0.11828617  0.11726399  0.62036636  1
  O  O173  1  0.11800106  0.62306939  0.11637809  1
  O  O174  1  0.12249976  0.61868642  0.62113207  1
  O  O175  1  0.61986944  0.11750748  0.11861616  1
  O  O176  1  0.62622046  0.11329316  0.62659834  1
  O  O177  1  0.61805240  0.61622077  0.12709429  1
  O  O178  1  0.61836068  0.61453719  0.62822644  1
  O  O179  1  0.37885439  0.38146653  0.37826581  1
  O  O180  1  0.37270047  0.37880563  0.87979685  1
  O  O181  1  0.36206217  0.87378410  0.39733165  1
  O  O182  1  0.37634708  0.88968734  0.87318216  1
  O  O183  1  0.88630424  0.37808726  0.37845578  1
  O  O184  1  0.88163939  0.37731926  0.88440333  1
  O  O185  1  0.88271518  0.87175689  0.38122680  1
  O  O186  1  0.88797630  0.87219024  0.88629134  1
  O  O187  1  0.24985902  0.00814550  0.36305933  1
  O  O188  1  0.25609866  0.00635262  0.86949472  1
  O  O189  1  0.25250477  0.50685783  0.37149771  1
  O  O190  1  0.24916778  0.51543967  0.87782297  1
  O  O191  1  0.75100952  -0.00069308  0.36390713  1
  O  O192  1  0.74472133  0.01281757  0.86576708  1
  O  O193  1  0.75099894  0.50592814  0.36654462  1
  O  O194  1  0.75463079  0.50581517  0.87327227  1
  O  O195  1  0.24894942  0.49389837  0.13429852  1
  O  O196  1  0.24125719  0.49088181  0.61539200  1
  O  O197  1  0.23935838  1.00654628  0.13650027  1
  O  O198  1  0.23934042  1.00697348  0.63558205  1
  O  O199  1  0.74081319  0.49850600  0.13044373  1
  O  O200  1  0.75630988  0.50614251  0.64273867  1
  O  O201  1  0.73908247  1.00100957  0.13775264  1
  O  O202  1  0.74237592  0.99121496  0.63398731  1
  O  O203  1  0.00230907  0.36823818  0.25585496  1
  O  O204  1  0.00198937  0.38106083  0.76564266  1
  O  O205  1  0.00828294  0.87506639  0.26074972  1
  O  O206  1  -0.00272770  0.86586247  0.76437984  1
  O  O207  1  0.50938218  0.36609702  0.25721309  1
  O  O208  1  0.50102191  0.35857992  0.75192464  1
  O  O209  1  0.51266404  0.86270889  0.24716040  1
  O  O210  1  0.50573872  0.86568998  0.75440354  1
  O  O211  1  0.50348995  0.13197639  0.23652456  1
  O  O212  1  0.49296014  0.13266745  0.74842309  1
  O  O213  1  0.50562054  0.64177216  0.23691335  1
  O  O214  1  0.48615102  0.63494127  0.75051086  1
  O  O215  1  1.00170693  0.13847093  0.24857497  1
  O  O216  1  0.98586961  0.12395311  0.74479158  1
  O  O217  1  0.99018311  0.61737205  0.24044774  1
  O  O218  1  0.99771362  0.63460037  0.74664803  1
  O  O219  1  0.36116140  0.24001508  0.00604125  1
  O  O220  1  0.37154986  0.25405333  0.50412828  1
  O  O221  1  0.36387217  0.74857457  0.01040115  1
  O  O222  1  0.36001923  0.75902249  0.50166136  1
  O  O223  1  0.88029330  0.26291712  0.00851234  1
  O  O224  1  0.86523251  0.26281042  0.49764322  1
  O  O225  1  0.86471510  0.75797086  0.00294066  1
  O  O226  1  0.87173636  0.75862735  0.50876838  1
  O  O227  1  0.13161344  0.24402244  0.49274234  1
  O  O228  1  0.13566594  0.24328551  0.99402556  1
  O  O229  1  0.13311922  0.74543140  0.49277459  1
  O  O230  1  0.14049896  0.74394901  1.00892086  1
  O  O231  1  0.63736323  0.25352851  0.49359427  1
  O  O232  1  0.62745199  0.23278906  0.99468075  1
  O  O233  1  0.63666671  0.75351506  0.50879453  1
  O  O234  1  0.63258692  0.76087103  0.98597723  1
  O  O235  1  0.49584327  0.24267798  0.12940774  1
  O  O236  1  0.49352329  0.24755671  0.63115180  1
  O  O237  1  0.48968640  0.74419545  0.12847938  1
  O  O238  1  0.50283051  0.75009087  0.64361568  1
  O  O239  1  0.98981204  0.25200037  0.13210417  1
  O  O240  1  1.00810235  0.23649981  0.62399730  1
  O  O241  1  0.99910481  0.73878291  0.12013195  1
  O  O242  1  0.99344443  0.74665494  0.63119610  1
  O  O243  1  0.00443537  0.25696612  0.36806383  1
  O  O244  1  0.01102763  0.26086457  0.88282301  1
  O  O245  1  0.01411894  0.75487934  0.37979039  1
  O  O246  1  -0.00376945  0.74668728  0.86562926  1
  O  O247  1  0.50799521  0.25387663  0.37063788  1
  O  O248  1  0.51001370  0.24584553  0.86740788  1
  O  O249  1  0.49085286  0.74247779  0.35816110  1
  O  O250  1  0.50535424  0.75035671  0.86860313  1
  O  O251  1  0.24615672  0.12900649  0.49218247  1
  O  O252  1  0.24106924  0.13255541  0.99404694  1
  O  O253  1  0.24535299  0.63446275  0.49238449  1
  O  O254  1  0.24161805  0.63395723  0.99543184  1
  O  O255  1  0.75091609  0.13817712  0.49964629  1
  O  O256  1  0.74408599  0.11744450  0.99184426  1
  O  O257  1  0.75555557  0.63198479  0.49029403  1
  O  O258  1  0.75422881  0.63321438  0.98892893  1
  O  O259  1  0.24198297  0.36686683  0.01363143  1
  O  O260  1  0.25488001  0.36769469  0.50591647  1
  O  O261  1  0.24678125  0.86159051  -0.00660150  1
  O  O262  1  0.24408173  0.86287781  0.50153517  1
  O  O263  1  0.75852050  0.38003447  0.01263887  1
  O  O264  1  0.76450221  0.36939365  0.49815481  1
  O  O265  1  0.76405982  0.86792620  -0.00924542  1
  O  O266  1  0.75780198  0.86519971  0.50754592  1
  O  O267  1  0.13502895  0.49227068  0.25064457  1
  O  O268  1  0.12190558  0.50051097  0.73858322  1
  O  O269  1  0.13104793  0.99156110  0.24356821  1
  O  O270  1  0.13358449  1.00026974  0.74301697  1
  O  O271  1  0.63403028  0.49677311  0.24143241  1
  O  O272  1  0.64196962  0.49868705  0.75672396  1
  O  O273  1  0.62847575  0.98635708  0.24404340  1
  O  O274  1  0.63352384  0.99213621  0.74774701  1
  O  O275  1  0.36492779  0.00103064  0.24839656  1
  O  O276  1  0.36984366  0.00453808  0.75408829  1
  O  O277  1  0.35911245  0.49489861  0.26477125  1
  O  O278  1  0.37562502  0.51112348  0.74592310  1
  O  O279  1  0.86493504  -0.00433998  0.24882323  1
  O  O280  1  0.86467162  -0.00130405  0.74608454  1
  O  O281  1  0.86149229  0.50868839  0.24860928  1
  O  O282  1  0.86677998  0.50219089  0.75986616  1
  O  O283  1  0.11458111  0.37039948  0.37141426  1
  O  O284  1  0.11991442  0.36790293  0.87455445  1
  O  O285  1  0.11901103  0.86780503  0.36656675  1
  O  O286  1  0.10558374  0.87795907  0.87377045  1
  O  O287  1  0.62148179  0.36617537  0.36944706  1
  O  O288  1  0.62983161  0.35692690  0.87512877  1
  O  O289  1  0.62251539  0.87339789  0.36883529  1
  O  O290  1  0.62322935  0.87144552  0.86586045  1
  O  O291  1  0.38387610  0.13476972  0.12567875  1
  O  O292  1  0.37500082  0.12690193  0.63605092  1
  O  O293  1  0.38691521  0.63504635  0.12962699  1
  O  O294  1  0.37660123  0.62518746  0.63770544  1
  O  O295  1  0.87617573  0.13498962  0.12737378  1
  O  O296  1  0.88210388  0.12179004  0.63852046  1
  O  O297  1  0.88304723  0.62751294  0.13266944  1
  O  O298  1  0.88133815  0.63674588  0.62635264  1
  O  O299  1  0.25722228  0.25566124  0.11948124  1
  O  O300  1  0.25564109  0.25444461  0.61738892  1
  O  O301  1  0.26536371  0.74711514  0.11744095  1
  O  O302  1  0.24172098  0.74884819  0.61248778  1
  O  O303  1  0.76086714  0.26005500  0.13142535  1
  O  O304  1  0.74593093  0.25087094  0.61438394  1
  O  O305  1  0.74653609  0.74429063  0.11037266  1
  O  O306  1  0.75870963  0.75266914  0.62420929  1
  O  O307  1  0.24414690  0.24455537  0.37637760  1
  O  O308  1  0.24416615  0.24513354  0.88173699  1
  O  O309  1  0.23988735  0.74295787  0.37912139  1
  O  O310  1  0.25572967  0.74047663  0.89030881  1
  O  O311  1  0.74361857  0.25217877  0.38151685  1
  O  O312  1  0.74295057  0.23426246  0.87039812  1
  O  O313  1  0.75201205  0.74037683  0.38811064  1
  O  O314  1  0.74333851  0.74196082  0.88044855  1
  O  O315  1  0.01266265  0.13085636  -0.00009624  1
  O  O316  1  0.00513770  0.12331519  0.50730705  1
  O  O317  1  0.00571671  0.61987641  0.00580966  1
  O  O318  1  0.00610707  0.62196139  0.50622249  1
  O  O319  1  0.50768054  0.11831900  0.00966375  1
  O  O320  1  0.50714149  0.11755255  0.50488415  1
  O  O321  1  0.50228149  0.63577756  0.01560486  1
  O  O322  1  0.49019901  0.61249985  0.49816764  1
  O  O323  1  0.49214778  0.38359352  0.49060150  1
  O  O324  1  0.50179765  0.36177827  1.00186859  1
  O  O325  1  0.48961975  0.87597328  0.50404667  1
  O  O326  1  0.50321292  0.88971424  0.99904716  1
  O  O327  1  0.99116944  0.37655069  0.49310533  1
  O  O328  1  0.99576629  0.38301647  0.99485654  1
  O  O329  1  0.99313958  0.87436875  0.48886840  1
  O  O330  1  0.99066343  0.87375974  0.98640668  1
  O  O331  1  0.49087680  0.49822894  0.37708295  1
  O  O332  1  0.49719208  0.48956018  0.87074730  1
  O  O333  1  0.49372786  1.00345996  0.36942212  1
  O  O334  1  0.49240751  1.00191866  0.88384643  1
  O  O335  1  0.99981734  0.49175384  0.38195051  1
  O  O336  1  0.99550164  0.49592607  0.88690547  1
  O  O337  1  0.99904670  0.98882009  0.37837952  1
  O  O338  1  0.99748756  0.99359392  0.87196690  1
  O  O339  1  0.01496730  0.00493971  0.13156947  1
  O  O340  1  0.00801164  0.00950002  0.62356661  1
  O  O341  1  0.00030586  0.50590563  0.11450160  1
  O  O342  1  0.00705977  0.50748771  0.62098270  1
  O  O343  1  0.50486344  0.00690260  0.12073519  1
  O  O344  1  0.51498684  -0.00304619  0.63156741  1
  O  O345  1  0.51033299  0.51421569  0.12544657  1
  O  O346  1  0.49233906  0.50035266  0.60501066  1
  O  O347  1  0.24612793  0.37946122  0.23919601  1
  O  O348  1  0.24602779  0.36806807  0.73359516  1
  O  O349  1  0.23935961  0.88322658  0.25402577  1
  O  O350  1  0.24637235  0.88606090  0.75720008  1
  O  O351  1  0.74803463  0.38479524  0.24052336  1
  O  O352  1  0.75181536  0.39041286  0.75758158  1
  O  O353  1  0.73257431  0.87699147  0.25324720  1
  O  O354  1  0.74512218  0.87888249  0.74994001  1
  O  O355  1  0.24945917  0.11830696  0.25688938  1
  O  O356  1  0.25819565  0.11696449  0.75614867  1
  O  O357  1  0.24231207  0.61568965  0.25829180  1
  O  O358  1  0.26413539  0.63370082  0.75818813  1
  O  O359  1  0.75074488  0.11133641  0.25315676  1
  O  O360  1  0.76345309  0.11775320  0.75410812  1
  O  O361  1  0.75516209  0.62130673  0.25610004  1
  O  O362  1  0.75357280  0.61709799  0.76415571  1
  O  O363  1  0.36134140  0.12785926  0.37162575  1
  O  O364  1  0.37207176  0.11818741  0.86430123  1
  O  O365  1  0.36024502  0.61909294  0.37704438  1
  O  O366  1  0.36842840  0.62168891  0.86369246  1
  O  O367  1  0.87422250  0.12004156  0.37044954  1
  O  O368  1  0.87008131  0.12902627  0.86225210  1
  O  O369  1  0.87131026  0.62273764  0.36618373  1
  O  O370  1  0.86773774  0.61666820  0.87651156  1
  O  O371  1  0.13220065  0.37624873  0.13166927  1
  O  O372  1  0.13155026  0.38356264  0.62457231  1
  O  O373  1  0.11921703  0.88086924  0.13350786  1
  O  O374  1  0.11520402  0.88849066  0.62947992  1
  O  O375  1  0.63351601  0.38374125  0.13001797  1
  O  O376  1  0.62178052  0.38914689  0.62915375  1
  O  O377  1  0.62045363  0.88442025  0.12428965  1
  O  O378  1  0.63213946  0.87802028  0.63960141  1
  O  O379  1  0.11812437  0.25559014  0.25323861  1
  O  O380  1  0.12997601  0.24818986  0.76311033  1
  O  O381  1  0.13056675  0.75807132  0.25626158  1
  O  O382  1  0.10822549  0.75226572  0.74518599  1
  O  O383  1  0.62293664  0.25542803  0.25559236  1
  O  O384  1  0.61868761  0.24741211  0.75826186  1
  O  O385  1  0.61419515  0.76199825  0.24795012  1
  O  O386  1  0.61862083  0.75685743  0.76097480  1
  O  O387  1  0.38374270  0.24758624  0.23995711  1
  O  O388  1  0.38021157  0.24031051  0.74461909  1
  O  O389  1  0.38506145  0.75838706  0.23860790  1
  O  O390  1  0.38569599  0.74893735  0.75547343  1
  O  O391  1  0.88273880  0.25131825  0.24230402  1
  O  O392  1  0.87293078  0.24132006  0.74828449  1
  O  O393  1  0.86833185  0.73976808  0.24640662  1
  O  O394  1  0.88523821  0.74969381  0.74386648  1
  O  O395  1  0.37812528  0.49488623  0.48695065  1
  O  O396  1  0.37375557  0.51252909  1.00299639  1
  O  O397  1  0.37651023  0.98827976  0.49662041  1
  O  O398  1  0.38308654  1.01070983  0.99140646  1
  O  O399  1  0.88079891  0.48841144  0.49982129  1
  O  O400  1  0.88177589  0.49028220  0.99879592  1
  O  O401  1  0.87256592  0.98387583  0.50147126  1
  O  O402  1  0.86999948  0.98776603  1.00136173  1
  O  O403  1  0.13221958  0.00981332  0.00905631  1
  O  O404  1  0.12576970  0.00581939  0.50682718  1
  O  O405  1  0.11724575  0.50824500  0.00210269  1
  O  O406  1  0.11854745  0.50640775  0.50746485  1
  O  O407  1  0.61930911  0.00681065  0.00634351  1
  O  O408  1  0.62785091  -0.00189707  0.51234138  1
  O  O409  1  0.62932341  0.49938255  0.01479047  1
  O  O410  1  0.60747008  0.49664555  0.49159127  1
  O  O411  1  0.36794198  0.36227259  0.12259510  1
  O  O412  1  0.36841692  0.37028526  0.61913031  1
  O  O413  1  0.38022152  0.86475855  0.12255926  1
  O  O414  1  0.36757755  0.87851319  0.60774153  1
  O  O415  1  0.86890109  0.37163758  0.12036710  1
  O  O416  1  0.88366879  0.37518034  0.61335165  1
  O  O417  1  0.88406184  0.87253135  0.10670862  1
  O  O418  1  0.87418892  0.86524861  0.61995664  1
  O  O419  1  0.13373859  0.12873864  0.37955072  1
  O  O420  1  0.12883631  0.13062286  0.88009524  1
  O  O421  1  0.13118621  0.63088469  0.37900681  1
  O  O422  1  0.13083696  0.62577865  0.88717762  1
  O  O423  1  0.62944642  0.13934694  0.37580355  1
  O  O424  1  0.63240104  0.12999639  0.88250075  1
  O  O425  1  0.63560339  0.62190119  0.36849927  1
  O  O426  1  0.63189672  0.63472279  0.87132555  1
