# generated using pymatgen
data_V85Zn86O256
_symmetry_space_group_name_H-M   'P 1'
_cell_length_a   16.92874454
_cell_length_b   16.91832844
_cell_length_c   16.92726355
_cell_angle_alpha   90.03732743
_cell_angle_beta   90.03478891
_cell_angle_gamma   90.00113921
_symmetry_Int_Tables_number   1
_chemical_formula_structural   V85Zn86O256
_chemical_formula_sum   'V85 Zn86 O256'
_cell_volume   4848.06893756
_cell_formula_units_Z   1
loop_
 _symmetry_equiv_pos_site_id
 _symmetry_equiv_pos_as_xyz
  1  'x, y, z'
loop_
 _atom_site_type_symbol
 _atom_site_label
 _atom_site_symmetry_multiplicity
 _atom_site_fract_x
 _atom_site_fract_y
 _atom_site_fract_z
 _atom_site_occupancy
  V  V0  1  0.50528906  -0.00728364  -0.00706293  1
  V  V1  1  0.37382295  0.37971262  -0.00105241  1
  V  V2  1  0.12777113  0.62304540  0.00684158  1
  V  V3  1  0.63311851  -0.00560714  0.12742658  1
  V  V4  1  0.50247120  0.12672553  0.12106010  1
  V  V5  1  0.24557662  0.62342693  0.86345756  1
  V  V6  1  0.75234083  0.37001713  0.12893938  1
  V  V7  1  0.86614110  0.87267696  0.49536622  1
  V  V8  1  0.62772433  0.49666498  0.62196353  1
  V  V9  1  -0.01392718  0.25218084  0.24895718  1
  V  V10  1  0.87400917  0.87085823  -0.00212696  1
  V  V11  1  0.75177898  0.10749993  0.37839499  1
  V  V12  1  0.49990108  0.24846628  0.74801560  1
  V  V13  1  0.86721693  0.25446789  0.62410204  1
  V  V14  1  0.37338569  0.25370431  0.12420086  1
  V  V15  1  0.00112990  0.00027375  0.00435644  1
  V  V16  1  0.87506242  0.12423435  0.74842406  1
  V  V17  1  0.26264897  0.24845344  0.49471004  1
  V  V18  1  0.00191143  0.37736629  0.87470006  1
  V  V19  1  0.24667772  0.39006489  0.13001489  1
  V  V20  1  0.87585354  0.37009539  0.00612909  1
  V  V21  1  0.12975523  0.38186143  0.74496194  1
  V  V22  1  0.62482728  0.62484313  -0.00047683  1
  V  V23  1  0.37616394  -0.00426751  0.87424963  1
  V  V24  1  0.38064693  0.87003653  -0.00362579  1
  V  V25  1  0.12801027  0.88379090  0.23897523  1
  V  V26  1  0.86882704  0.10544239  0.25002245  1
  V  V27  1  0.12413236  0.12441250  0.49972342  1
  V  V28  1  0.26127165  0.74957850  0.50433773  1
  V  V29  1  0.75060109  0.62572238  0.87513475  1
  V  V30  1  0.62696021  0.87054165  0.73896558  1
  V  V31  1  0.12587906  0.12879429  0.00733117  1
  V  V32  1  0.62744522  0.12435380  -0.00030733  1
  V  V33  1  0.00671023  0.49842028  0.00731972  1
  V  V34  1  0.50096202  0.62556804  0.12630706  1
  V  V35  1  0.86427141  0.75897664  0.62989069  1
  V  V36  1  0.86253580  0.37810457  0.50344709  1
  V  V37  1  0.37120962  0.62008961  0.25063735  1
  V  V38  1  0.12596169  0.38749662  0.24846183  1
  V  V39  1  0.24567986  0.11433066  0.36045306  1
  V  V40  1  0.00089701  0.25138052  0.74638585  1
  V  V41  1  -0.00606133  0.12781686  0.12598150  1
  V  V42  1  0.74953020  0.51163452  0.25154869  1
  V  V43  1  0.63066147  0.87381040  0.26236297  1
  V  V44  1  0.62760036  0.37615540  0.74734603  1
  V  V45  1  0.75023499  -0.00638898  0.74367753  1
  V  V46  1  -0.00521132  0.62290064  0.12859506  1
  V  V47  1  0.49902478  0.24822761  0.24950762  1
  V  V48  1  0.50131113  0.75572068  0.26409135  1
  V  V49  1  0.25846423  0.37758157  0.61943520  1
  V  V50  1  0.37729131  0.88566343  0.49679839  1
  V  V51  1  0.37088884  0.49130180  0.37499378  1
  V  V52  1  0.75203089  0.12426101  0.87482652  1
  V  V53  1  0.62678442  0.25083959  0.87566974  1
  V  V54  1  0.62916850  0.24305981  0.38170219  1
  V  V55  1  0.12784626  0.25025429  0.87293318  1
  V  V56  1  0.00076779  0.12456981  0.62384846  1
  V  V57  1  0.87693978  0.50112793  0.87565426  1
  V  V58  1  0.49662222  0.36793649  0.38165694  1
  V  V59  1  0.37333112  0.12313489  0.74921499  1
  V  V60  1  0.12229109  0.25180800  0.37395964  1
  V  V61  1  0.24593694  0.74914703  -0.00082841  1
  V  V62  1  0.37043780  0.75255783  0.12638229  1
  V  V63  1  0.01598947  0.75511852  0.75573918  1
  V  V64  1  0.00052991  0.63074087  0.62800723  1
  V  V65  1  0.24817581  0.62057116  0.37203756  1
  V  V66  1  -0.00192360  0.50279388  0.50244378  1
  V  V67  1  -0.00340388  0.37706123  0.37700840  1
  V  V68  1  0.49686637  0.49761970  0.49997360  1
  V  V69  1  0.62219491  0.75671285  0.87210757  1
  V  V70  1  -0.00358639  0.74789445  0.25295654  1
  V  V71  1  0.48768529  0.62790741  0.62940112  1
  V  V72  1  0.02313929  0.87503522  0.87563989  1
  V  V73  1  0.75235870  0.49655212  0.74584382  1
  V  V74  1  0.37042466  0.50373491  0.85941719  1
  V  V75  1  0.12675416  -0.00503208  0.63289653  1
  V  V76  1  -0.00132514  -0.00471906  0.49475543  1
  V  V77  1  0.49978348  0.37712387  0.87371164  1
  V  V78  1  0.87055667  0.51162402  0.37429801  1
  V  V79  1  0.62431278  0.37566376  0.25123436  1
  V  V80  1  0.62854341  0.63884218  0.49675972  1
  V  V81  1  0.12513610  0.62888412  0.50065057  1
  V  V82  1  0.48636525  0.75151218  0.75103786  1
  V  V83  1  0.50624030  0.11505236  0.61971010  1
  V  V84  1  0.25206778  0.87153845  0.63258741  1
  Zn  Zn85  1  0.74633295  0.24500854  0.50160454  1
  Zn  Zn86  1  0.12684505  0.75448971  0.37251525  1
  Zn  Zn87  1  0.24392380  -0.00772348  0.76020029  1
  Zn  Zn88  1  0.87752034  0.62910015  0.75137891  1
  Zn  Zn89  1  0.24929739  0.12422566  0.87488472  1
  Zn  Zn90  1  0.87783251  -0.00347256  0.87235603  1
  Zn  Zn91  1  0.75350347  0.87348279  0.12876167  1
  Zn  Zn92  1  0.37942460  0.24734334  0.61674656  1
  Zn  Zn93  1  0.63163135  -0.00300178  0.61301334  1
  Zn  Zn94  1  0.00164488  0.87826839  0.37374009  1
  Zn  Zn95  1  0.27948244  0.93932871  0.17224198  1
  Zn  Zn96  1  0.51557098  -0.00545859  0.47769048  1
  Zn  Zn97  1  0.37691673  -0.01267302  0.35322816  1
  Zn  Zn98  1  0.62520799  0.50044654  0.12523396  1
  Zn  Zn99  1  0.87150024  0.74616181  0.12731907  1
  Zn  Zn100  1  0.24811685  0.25570939  -0.00095646  1
  Zn  Zn101  1  0.75097239  0.75014401  0.00329979  1
  Zn  Zn102  1  0.74545508  0.64500235  0.37627044  1
  Zn  Zn103  1  0.12993040  0.50312354  0.62793331  1
  Zn  Zn104  1  0.36624759  0.11327451  0.23793195  1
  Zn  Zn105  1  0.75525545  0.24697241  0.00697443  1
  Zn  Zn106  1  0.49932747  0.50224089  -0.00137004  1
  Zn  Zn107  1  0.18255077  0.19834954  0.18634362  1
  Zn  Zn108  1  0.19115578  0.18859621  0.68547519  1
  Zn  Zn109  1  0.18329338  0.68816779  0.18729927  1
  Zn  Zn110  1  0.18955437  0.69018889  0.68582159  1
  Zn  Zn111  1  0.68908340  0.18665065  0.19211603  1
  Zn  Zn112  1  0.68729819  0.18534686  0.68812835  1
  Zn  Zn113  1  0.68655010  0.69410734  0.18834969  1
  Zn  Zn114  1  0.68330834  0.68133832  0.68651417  1
  Zn  Zn115  1  0.30992926  0.30913488  0.30902849  1
  Zn  Zn116  1  0.31228352  0.31372987  0.80725019  1
  Zn  Zn117  1  0.30904628  0.80812459  0.31525721  1
  Zn  Zn118  1  0.30736890  0.81168351  0.81868975  1
  Zn  Zn119  1  0.80945085  0.31732198  0.31715941  1
  Zn  Zn120  1  0.81354992  0.31323894  0.81425872  1
  Zn  Zn121  1  0.81342758  0.81245297  0.31559842  1
  Zn  Zn122  1  0.81627038  0.81217019  0.81326850  1
  Zn  Zn123  1  0.18555053  0.43782752  0.44093816  1
  Zn  Zn124  1  0.18911179  0.43919914  0.93718685  1
  Zn  Zn125  1  0.18354201  0.93384830  0.43817679  1
  Zn  Zn126  1  0.20340631  0.95240545  0.97951505  1
  Zn  Zn127  1  0.68421198  0.43972206  0.43508591  1
  Zn  Zn128  1  0.68884091  0.43917907  0.93870398  1
  Zn  Zn129  1  0.69063273  0.92595299  0.43764037  1
  Zn  Zn130  1  0.69135363  0.93620599  0.93338664  1
  Zn  Zn131  1  0.31503853  0.06972489  0.05503618  1
  Zn  Zn132  1  0.30947222  0.06239669  0.56297247  1
  Zn  Zn133  1  0.31396154  0.56307878  0.06062018  1
  Zn  Zn134  1  0.31285219  0.55829858  0.55916352  1
  Zn  Zn135  1  0.81632720  0.06020004  0.06338000  1
  Zn  Zn136  1  0.81427687  0.05915063  0.55993155  1
  Zn  Zn137  1  0.81320468  0.55827739  0.06281331  1
  Zn  Zn138  1  0.81196181  0.56872293  0.56491785  1
  Zn  Zn139  1  0.43841313  0.43899567  0.18984360  1
  Zn  Zn140  1  0.43801423  0.43523533  0.68405180  1
  Zn  Zn141  1  0.44966695  0.93659367  0.18151211  1
  Zn  Zn142  1  0.43491258  0.93211944  0.68640981  1
  Zn  Zn143  1  0.93474761  0.44087949  0.19030189  1
  Zn  Zn144  1  0.93850821  0.43922932  0.68623202  1
  Zn  Zn145  1  0.94489236  0.93365371  0.18339299  1
  Zn  Zn146  1  0.94212407  0.93580221  0.68994665  1
  Zn  Zn147  1  0.06148163  0.06130898  0.30865376  1
  Zn  Zn148  1  0.06208358  0.06214327  0.81585196  1
  Zn  Zn149  1  0.05856563  0.56613322  0.31480992  1
  Zn  Zn150  1  0.06545367  0.56465371  0.81424932  1
  Zn  Zn151  1  0.56359388  0.06144146  0.30908520  1
  Zn  Zn152  1  0.56334762  0.05909241  0.80896044  1
  Zn  Zn153  1  0.56154778  0.56300911  0.31464377  1
  Zn  Zn154  1  0.56112483  0.56439121  0.81083758  1
  Zn  Zn155  1  0.44289167  0.15918923  0.42299155  1
  Zn  Zn156  1  0.43823708  0.18780090  0.93570488  1
  Zn  Zn157  1  0.43596491  0.68330637  0.44146739  1
  Zn  Zn158  1  0.43668640  0.68461984  0.93369933  1
  Zn  Zn159  1  0.93205471  0.18491601  0.43626307  1
  Zn  Zn160  1  0.93861646  0.18951391  0.93547100  1
  Zn  Zn161  1  0.93187941  0.69512689  0.43936659  1
  Zn  Zn162  1  0.94217513  0.69040001  0.93705109  1
  Zn  Zn163  1  0.06172391  0.31185373  0.06729699  1
  Zn  Zn164  1  0.06135501  0.31302478  0.56036719  1
  Zn  Zn165  1  0.06279478  0.80882220  0.06392819  1
  Zn  Zn166  1  0.06531373  0.81256852  0.56385797  1
  Zn  Zn167  1  0.56430482  0.31460673  0.06061986  1
  Zn  Zn168  1  0.56153889  0.31026581  0.56232657  1
  Zn  Zn169  1  0.56312520  0.80922069  0.06519780  1
  Zn  Zn170  1  0.55433696  0.81363369  0.56423009  1
  O  O171  1  0.11568065  0.13628015  0.11309559  1
  O  O172  1  0.12033270  0.12163840  0.61885567  1
  O  O173  1  0.11577488  0.62396316  0.11420519  1
  O  O174  1  0.11959760  0.62353770  0.61847483  1
  O  O175  1  0.62234468  0.11925038  0.11979882  1
  O  O176  1  0.60992560  0.12109596  0.63363397  1
  O  O177  1  0.61735020  0.62667804  0.11709226  1
  O  O178  1  0.61528745  0.61338360  0.61733805  1
  O  O179  1  0.37991997  0.38338556  0.36766930  1
  O  O180  1  0.37576682  0.38406462  0.87973799  1
  O  O181  1  0.36497017  0.87627572  0.38990592  1
  O  O182  1  0.37595006  0.88045304  0.88663536  1
  O  O183  1  0.87897858  0.38516359  0.38521575  1
  O  O184  1  0.88266672  0.38132678  0.88134241  1
  O  O185  1  0.88286850  0.87341525  0.39186106  1
  O  O186  1  0.88077094  0.87633599  0.88690760  1
  O  O187  1  0.24786553  0.01365404  0.37651994  1
  O  O188  1  0.26376733  0.00174325  0.88043191  1
  O  O189  1  0.25889671  0.50896003  0.38450451  1
  O  O190  1  0.26120852  0.50815226  0.87732468  1
  O  O191  1  0.74971102  0.00936748  0.37458096  1
  O  O192  1  0.75162600  0.01162569  0.86617528  1
  O  O193  1  0.75493637  0.50211877  0.36782710  1
  O  O194  1  0.75489264  0.50934447  0.87017464  1
  O  O195  1  0.25567502  0.48942571  0.12610834  1
  O  O196  1  0.24816728  0.48266742  0.61625027  1
  O  O197  1  0.24164139  0.99238088  0.08375393  1
  O  O198  1  0.24217981  0.99258725  0.62749401  1
  O  O199  1  0.74822577  0.49264780  0.13465258  1
  O  O200  1  0.74158538  0.50471642  0.63427203  1
  O  O201  1  0.73621284  0.99830411  0.11998655  1
  O  O202  1  0.74814062  1.00945184  0.64035718  1
  O  O203  1  0.00264025  0.36930630  0.25625006  1
  O  O204  1  0.00752253  0.36968539  0.75312845  1
  O  O205  1  0.00884788  0.86541989  0.25148546  1
  O  O206  1  0.00346658  0.87143126  0.76712839  1
  O  O207  1  0.50360162  0.36916495  0.26034156  1
  O  O208  1  0.50570068  0.36903505  0.75436314  1
  O  O209  1  0.50399177  0.86042684  0.24758532  1
  O  O210  1  0.50652791  0.85810304  0.74495998  1
  O  O211  1  0.49816049  0.13269036  0.23570960  1
  O  O212  1  0.49123488  0.12864413  0.74516420  1
  O  O213  1  0.49515730  0.63411824  0.24501271  1
  O  O214  1  0.50327305  0.63239288  0.73686586  1
  O  O215  1  0.98867976  0.13053519  0.24604663  1
  O  O216  1  0.99396902  0.13137845  0.74594304  1
  O  O217  1  1.00369179  0.63573724  0.24219967  1
  O  O218  1  1.00088522  0.63315193  0.74564300  1
  O  O219  1  0.37576918  0.26375454  0.00348207  1
  O  O220  1  0.36383986  0.23884346  0.49219344  1
  O  O221  1  0.37409402  0.75344629  0.00604221  1
  O  O222  1  0.36546830  0.75616873  0.49800070  1
  O  O223  1  0.87478833  0.26573644  -0.00529662  1
  O  O224  1  0.87482158  0.25992838  0.50721669  1
  O  O225  1  0.87547683  0.75798992  0.00175234  1
  O  O226  1  0.88370644  0.76293238  0.51791260  1
  O  O227  1  0.12648064  0.24449660  0.48745848  1
  O  O228  1  0.12187438  0.24708896  0.98976957  1
  O  O229  1  0.13262037  0.73938727  0.49843488  1
  O  O230  1  0.13508078  0.73880600  1.00463789  1
  O  O231  1  0.62567865  0.25180302  0.48627948  1
  O  O232  1  0.62877279  0.24354831  0.99278284  1
  O  O233  1  0.61808048  0.73709596  0.50759785  1
  O  O234  1  0.62381178  0.73970157  0.99079144  1
  O  O235  1  0.49093739  0.24926519  0.12638221  1
  O  O236  1  0.49886626  0.24116190  0.63225250  1
  O  O237  1  0.48897910  0.74004325  0.13049615  1
  O  O238  1  0.49925148  0.73632264  0.63603542  1
  O  O239  1  1.00005263  0.23938908  0.13509404  1
  O  O240  1  0.99224024  0.24462843  0.62830488  1
  O  O241  1  0.99837963  0.74068634  0.13404149  1
  O  O242  1  0.99962665  0.74308368  0.63407963  1
  O  O243  1  0.00390036  0.25485617  0.37077214  1
  O  O244  1  0.00964111  0.25758178  0.86812911  1
  O  O245  1  0.00253669  0.74650633  0.36314609  1
  O  O246  1  0.00313933  0.76487637  0.87099023  1
  O  O247  1  0.50425962  0.25018580  0.37047919  1
  O  O248  1  0.50634872  0.25621767  0.86786914  1
  O  O249  1  0.49307280  0.74463742  0.36180867  1
  O  O250  1  0.50892318  0.73700090  0.85921064  1
  O  O251  1  0.24212015  0.13130699  0.48984226  1
  O  O252  1  0.23912345  0.13721270  0.99455257  1
  O  O253  1  0.24450432  0.63020195  0.49695445  1
  O  O254  1  0.24479273  0.62881946  0.99570454  1
  O  O255  1  0.76069589  0.12629156  0.48257744  1
  O  O256  1  0.74800765  0.12595535  0.99242832  1
  O  O257  1  0.73094612  0.61979071  0.50243360  1
  O  O258  1  0.74271688  0.62387082  0.99256262  1
  O  O259  1  0.25698045  0.37498693  0.00771728  1
  O  O260  1  0.24336924  0.36351333  0.50998907  1
  O  O261  1  0.26127248  0.85386203  -0.00885048  1
  O  O262  1  0.25523169  0.86716936  0.50691353  1
  O  O263  1  0.75839801  0.37684163  0.00911484  1
  O  O264  1  0.76002260  0.37414016  0.49694739  1
  O  O265  1  0.76016392  0.87280955  -0.00070723  1
  O  O266  1  0.76789722  0.87672542  0.50605652  1
  O  O267  1  0.11792605  0.48657646  0.25720926  1
  O  O268  1  0.12125805  0.48570142  0.74856280  1
  O  O269  1  0.11992008  0.98433469  0.24867130  1
  O  O270  1  0.12719821  1.00820690  0.73781205  1
  O  O271  1  0.63053704  0.49288452  0.25134131  1
  O  O272  1  0.63119285  0.49679967  0.74269918  1
  O  O273  1  0.61234758  0.98306868  0.23960864  1
  O  O274  1  0.63200903  0.98674186  0.75109455  1
  O  O275  1  0.36670549  -0.00526821  0.23595447  1
  O  O276  1  0.37562199  0.00384396  0.75982039  1
  O  O277  1  0.38107636  0.51228572  0.25967328  1
  O  O278  1  0.37398596  0.49421321  0.76097512  1
  O  O279  1  0.87956398  0.00729269  0.24923135  1
  O  O280  1  0.86898791  0.00465613  0.75132743  1
  O  O281  1  0.86384400  0.49751017  0.26276450  1
  O  O282  1  0.86872773  0.50254890  0.75559388  1
  O  O283  1  0.11776643  0.36917717  0.37188866  1
  O  O284  1  0.12190771  0.37032827  0.86706439  1
  O  O285  1  0.12128596  0.87207859  0.36557334  1
  O  O286  1  0.11926267  0.88262852  0.88644048  1
  O  O287  1  0.61559563  0.36691128  0.37035724  1
  O  O288  1  0.62041919  0.37209147  0.86999465  1
  O  O289  1  0.61898740  0.87800318  0.36067625  1
  O  O290  1  0.62762942  0.85982380  0.86980668  1
  O  O291  1  0.38189357  0.13687955  0.11941580  1
  O  O292  1  0.38234092  0.12459481  0.63377434  1
  O  O293  1  0.38098125  0.62846511  0.13308186  1
  O  O294  1  0.38897628  0.61769031  0.62236727  1
  O  O295  1  0.87863007  0.12476868  0.13923565  1
  O  O296  1  0.88171109  0.13245419  0.62933719  1
  O  O297  1  0.89027873  0.62415717  0.11763001  1
  O  O298  1  0.88438877  0.63772243  0.62649904  1
  O  O299  1  0.26284583  0.25864623  0.12387543  1
  O  O300  1  0.25317130  0.25541552  0.61163162  1
  O  O301  1  0.26410846  0.73904433  0.11712641  1
  O  O302  1  0.24722876  0.75819619  0.61640909  1
  O  O303  1  0.74544409  0.26504445  0.12618208  1
  O  O304  1  0.76252889  0.24427710  0.62288053  1
  O  O305  1  0.75455258  0.75311233  0.12142521  1
  O  O306  1  0.76616223  0.74505101  0.63579283  1
  O  O307  1  0.23864608  0.24548947  0.37804530  1
  O  O308  1  0.23717414  0.25283237  0.87347503  1
  O  O309  1  0.24879482  0.73529155  0.38472413  1
  O  O310  1  0.25731875  0.73047277  0.88346463  1
  O  O311  1  0.74161224  0.24582272  0.37629407  1
  O  O312  1  0.74578497  0.23936998  0.87539345  1
  O  O313  1  0.75487404  0.75425951  0.38643615  1
  O  O314  1  0.74329888  0.73752489  0.87356406  1
  O  O315  1  0.00037596  0.12258001  0.00754743  1
  O  O316  1  0.00283460  0.11914154  0.50552960  1
  O  O317  1  0.00880100  0.61786259  0.00362988  1
  O  O318  1  0.00688863  0.62620979  0.50802546  1
  O  O319  1  0.50779278  0.11900157  0.00269369  1
  O  O320  1  0.49589811  0.12400332  0.51924146  1
  O  O321  1  0.50599667  0.62469837  0.00773955  1
  O  O322  1  0.50584038  0.61817900  0.51004964  1
  O  O323  1  0.50015590  0.37900251  0.48865101  1
  O  O324  1  0.49294911  0.37879118  0.99182712  1
  O  O325  1  0.48178745  0.87769690  0.50306774  1
  O  O326  1  0.49461110  0.88107958  1.00262083  1
  O  O327  1  0.99319517  0.38334417  0.49487663  1
  O  O328  1  0.99555516  0.38101994  0.99834950  1
  O  O329  1  0.99800588  0.88185581  0.50033057  1
  O  O330  1  0.99863380  0.88198725  0.99360721  1
  O  O331  1  0.49373248  0.49004035  0.38148579  1
  O  O332  1  0.48758479  0.49692604  0.87382450  1
  O  O333  1  0.47820641  1.04087927  0.38005182  1
  O  O334  1  0.49351491  1.00399956  0.88540657  1
  O  O335  1  0.98945750  0.49859616  0.38219185  1
  O  O336  1  0.99646134  0.49541695  0.88265614  1
  O  O337  1  1.00405398  1.00368756  0.39161987  1
  O  O338  1  0.99893028  0.98883347  0.88035441  1
  O  O339  1  -0.00166692  0.01543342  0.11732220  1
  O  O340  1  0.00841122  0.00513073  0.62026518  1
  O  O341  1  -0.00254752  0.50534748  0.11690727  1
  O  O342  1  0.00016336  0.51503780  0.62129078  1
  O  O343  1  0.51054410  0.00648400  0.10998418  1
  O  O344  1  0.50132186  0.01043587  0.62979313  1
  O  O345  1  0.50133628  0.51371526  0.12561235  1
  O  O346  1  0.50412174  0.50611351  0.61903652  1
  O  O347  1  0.23875739  0.37175666  0.24279524  1
  O  O348  1  0.24225119  0.36641960  0.73134376  1
  O  O349  1  0.23583712  0.86681471  0.24851021  1
  O  O350  1  0.25622432  0.87467810  0.73844713  1
  O  O351  1  0.74399619  0.38337048  0.24541220  1
  O  O352  1  0.74528315  0.38875994  0.75707360  1
  O  O353  1  0.73444196  0.87193424  0.24846946  1
  O  O354  1  0.74179168  0.88280154  0.75778354  1
  O  O355  1  0.24033202  0.12645083  0.25650039  1
  O  O356  1  0.26249864  0.12297355  0.75212157  1
  O  O357  1  0.25856137  0.63009874  0.25945332  1
  O  O358  1  0.24239129  0.62422090  0.76415038  1
  O  O359  1  0.76358196  0.12447994  0.25527083  1
  O  O360  1  0.75568934  0.12001705  0.75792039  1
  O  O361  1  0.73991037  0.61490590  0.25434712  1
  O  O362  1  0.75061170  0.61357853  0.75792255  1
  O  O363  1  0.35045243  0.13188951  0.35886485  1
  O  O364  1  0.37521472  0.11719330  0.86786051  1
  O  O365  1  0.36887582  0.61540799  0.36978421  1
  O  O366  1  0.36452887  0.61035477  0.87824295  1
  O  O367  1  0.86453268  0.12675377  0.36075727  1
  O  O368  1  0.86858196  0.12491750  0.86795271  1
  O  O369  1  0.86944121  0.61441786  0.38598071  1
  O  O370  1  0.86794548  0.62067390  0.87511557  1
  O  O371  1  0.13450286  0.36928769  0.13567948  1
  O  O372  1  0.13203257  0.37497383  0.63018698  1
  O  O373  1  0.12128689  0.87318871  0.13806508  1
  O  O374  1  0.13604350  0.88488646  0.62053652  1
  O  O375  1  0.63067789  0.37902439  0.13159994  1
  O  O376  1  0.61872869  0.38784476  0.63012609  1
  O  O377  1  0.62512533  0.88077981  0.13068661  1
  O  O378  1  0.62406943  0.87274033  0.63594353  1
  O  O379  1  0.11253193  0.25721534  0.26137788  1
  O  O380  1  0.12069386  0.25706797  0.75434153  1
  O  O381  1  0.11340564  0.75554650  0.25048582  1
  O  O382  1  0.11533265  0.74962808  0.75045386  1
  O  O383  1  0.61837691  0.25614204  0.25796677  1
  O  O384  1  0.62154476  0.25674128  0.75508449  1
  O  O385  1  0.61001123  0.76012091  0.24638027  1
  O  O386  1  0.62014566  0.75302691  0.75466894  1
  O  O387  1  0.38168092  0.24977835  0.23842609  1
  O  O388  1  0.38285829  0.24086269  0.74973801  1
  O  O389  1  0.38204981  0.74305926  0.24456211  1
  O  O390  1  0.38809227  0.75203271  0.75764764  1
  O  O391  1  0.88461848  0.25119151  0.25620334  1
  O  O392  1  0.88010350  0.24799912  0.74229135  1
  O  O393  1  0.89211409  0.76034411  0.24589963  1
  O  O394  1  0.88683007  0.75091342  0.74202590  1
  O  O395  1  0.38822139  0.50260049  0.48974249  1
  O  O396  1  0.37722617  0.48969029  0.99346122  1
  O  O397  1  0.37156880  0.98944584  0.49647097  1
  O  O398  1  0.38708052  0.99199062  0.99307995  1
  O  O399  1  0.87784383  0.49531911  0.49874633  1
  O  O400  1  0.88444157  0.49077093  0.99429912  1
  O  O401  1  0.88651873  0.98289844  0.51339422  1
  O  O402  1  0.88710199  0.99574642  0.99630302  1
  O  O403  1  0.10799041  0.01671888  -0.00836878  1
  O  O404  1  0.11922389  0.00605834  0.51029093  1
  O  O405  1  0.11398500  0.50334052  -0.00214574  1
  O  O406  1  0.11716631  0.51255328  0.50163176  1
  O  O407  1  0.62119013  0.00323840  0.00162777  1
  O  O408  1  0.62393363  -0.00994342  0.50126316  1
  O  O409  1  0.62188784  0.51275176  0.00032362  1
  O  O410  1  0.61308504  0.50027316  0.50606958  1
  O  O411  1  0.37162930  0.37254816  0.11839751  1
  O  O412  1  0.36269624  0.36876675  0.62505845  1
  O  O413  1  0.37500351  0.86663360  0.11481526  1
  O  O414  1  0.36384257  0.87920266  0.61124160  1
  O  O415  1  0.86651581  0.38035900  0.11740588  1
  O  O416  1  0.88073010  0.36668240  0.61631088  1
  O  O417  1  0.87659699  0.87658376  0.11032186  1
  O  O418  1  0.88046037  0.86306119  0.62386400  1
  O  O419  1  0.13026853  0.13200418  0.37612176  1
  O  O420  1  0.12368703  0.13544345  0.88258657  1
  O  O421  1  0.13306466  0.62492748  0.38272421  1
  O  O422  1  0.13966191  0.61592390  0.88716765  1
  O  O423  1  0.64310200  0.13118423  0.36245799  1
  O  O424  1  0.63310521  0.12905248  0.87809147  1
  O  O425  1  0.62154332  0.62137450  0.39318003  1
  O  O426  1  0.63184330  0.62948405  0.88018357  1
