# generated using pymatgen
data_V85Zn86O256
_symmetry_space_group_name_H-M   'P 1'
_cell_length_a   16.94609198
_cell_length_b   16.94394277
_cell_length_c   16.93309783
_cell_angle_alpha   90.11215005
_cell_angle_beta   90.03581073
_cell_angle_gamma   90.12536785
_symmetry_Int_Tables_number   1
_chemical_formula_structural   V85Zn86O256
_chemical_formula_sum   'V85 Zn86 O256'
_cell_volume   4862.03963833
_cell_formula_units_Z   1
loop_
 _symmetry_equiv_pos_site_id
 _symmetry_equiv_pos_as_xyz
  1  'x, y, z'
loop_
 _atom_site_type_symbol
 _atom_site_label
 _atom_site_symmetry_multiplicity
 _atom_site_fract_x
 _atom_site_fract_y
 _atom_site_fract_z
 _atom_site_occupancy
  V  V0  1  0.50369132  0.62850121  0.11223884  1
  V  V1  1  0.87145792  0.75170213  0.12382478  1
  V  V2  1  -0.00155105  0.62970668  0.63236096  1
  V  V3  1  0.75326956  0.74781303  0.49595176  1
  V  V4  1  0.38649706  0.87702150  0.00277959  1
  V  V5  1  0.37667707  0.36638501  -0.00713639  1
  V  V6  1  0.87331960  0.11587621  0.24721353  1
  V  V7  1  0.61874306  0.50522259  0.62704240  1
  V  V8  1  0.12678477  0.25052968  0.37756769  1
  V  V9  1  0.86553069  0.49948519  0.37107008  1
  V  V10  1  0.62531803  0.25529046  0.37456426  1
  V  V11  1  0.25495324  0.49834639  0.74749617  1
  V  V12  1  0.25621627  0.00610827  0.25155961  1
  V  V13  1  0.75538831  0.50445410  0.75316567  1
  V  V14  1  0.49840740  0.12145686  0.62400399  1
  V  V15  1  0.11215045  0.87110928  0.75296588  1
  V  V16  1  0.62153741  0.37889318  0.25136293  1
  V  V17  1  0.87533226  0.24831366  0.12565013  1
  V  V18  1  0.36478546  0.24421265  0.12276551  1
  V  V19  1  0.87672660  0.38180748  0.00064399  1
  V  V20  1  -0.00363935  0.12093578  0.62441375  1
  V  V21  1  0.88737462  0.87749793  -0.00482135  1
  V  V22  1  0.24994311  0.87568887  0.62785169  1
  V  V23  1  0.25606214  0.36558204  0.61207445  1
  V  V24  1  -0.00013974  0.74728820  0.25050981  1
  V  V25  1  0.62164138  0.11172475  -0.00422325  1
  V  V26  1  0.50444261  0.75117822  0.73976058  1
  V  V27  1  0.62023020  0.62565731  0.49870511  1
  V  V28  1  0.37472964  0.75000890  0.62423215  1
  V  V29  1  0.00203876  0.88484130  0.37796255  1
  V  V30  1  0.62301032  0.74863793  0.88605789  1
  V  V31  1  0.12708366  0.49794148  0.62313232  1
  V  V32  1  0.75180232  0.37786314  0.62768543  1
  V  V33  1  0.37606570  0.00036958  0.87858386  1
  V  V34  1  0.75067719  0.12118470  0.37009244  1
  V  V35  1  0.38613828  0.49822267  0.87413541  1
  V  V36  1  0.87532757  0.37532838  0.49959876  1
  V  V37  1  0.24751726  0.00083718  0.75175320  1
  V  V38  1  0.24955513  0.74977696  -0.00532513  1
  V  V39  1  0.24918167  0.12876399  0.88347120  1
  V  V40  1  0.12653902  0.37102805  0.74926085  1
  V  V41  1  0.37188117  0.89223159  0.49037747  1
  V  V42  1  0.11966081  -0.00066891  0.62045984  1
  V  V43  1  0.10891538  0.75195001  0.87197364  1
  V  V44  1  -0.00177638  0.61623404  0.11982786  1
  V  V45  1  0.62368723  0.37704791  0.75896030  1
  V  V46  1  0.00120310  0.38200659  0.87900471  1
  V  V47  1  0.50201682  0.88179603  0.87532880  1
  V  V48  1  0.12515219  0.37439517  0.24494098  1
  V  V49  1  0.75345166  0.87747810  0.62723667  1
  V  V50  1  0.24997347  0.62357048  0.36929981  1
  V  V51  1  0.63112124  0.87735254  0.75069233  1
  V  V52  1  0.37730978  0.74390450  0.12379958  1
  V  V53  1  0.11752283  -0.00064862  0.11889449  1
  V  V54  1  0.85923397  0.12144921  0.75655266  1
  V  V55  1  0.62014702  -0.00030477  0.13839866  1
  V  V56  1  0.62547779  0.24808431  0.87823237  1
  V  V57  1  0.44114245  0.31433876  0.43310675  1
  V  V58  1  0.25192075  0.87555435  0.12438331  1
  V  V59  1  -0.00005532  0.50078692  0.49817175  1
  V  V60  1  0.25188705  0.12476725  0.37386140  1
  V  V61  1  0.37449514  0.12654265  0.75061377  1
  V  V62  1  0.12554744  0.62425539  0.49890126  1
  V  V63  1  0.12254838  0.61779126  -0.00333576  1
  V  V64  1  0.74621336  0.62635913  0.88437230  1
  V  V65  1  0.75057972  0.88794761  0.13233131  1
  V  V66  1  0.38279853  0.49343215  0.37463979  1
  V  V67  1  -0.00010011  0.37537821  0.37329135  1
  V  V68  1  0.62718880  0.00103871  0.62993365  1
  V  V69  1  0.62571003  0.50497480  0.12022233  1
  V  V70  1  0.38111895  0.62606347  0.74588889  1
  V  V71  1  0.88130290  0.88448790  0.50265862  1
  V  V72  1  0.49621922  0.24818706  0.24091246  1
  V  V73  1  0.86750395  0.62114053  0.24992447  1
  V  V74  1  0.43301662  0.68254391  0.29710075  1
  V  V75  1  0.25569640  0.50163782  0.24372880  1
  V  V76  1  0.87609381  0.25081546  0.62627827  1
  V  V77  1  0.62786037  0.12732767  0.50213508  1
  V  V78  1  0.87474903  0.00225399  0.87860383  1
  V  V79  1  0.49812060  0.25343043  0.75436573  1
  V  V80  1  0.12757274  0.25122292  0.88503110  1
  V  V81  1  0.12306078  0.12684884  0.49924240  1
  V  V82  1  0.12239869  0.74845384  0.37392533  1
  V  V83  1  0.74826257  0.37909441  0.13055257  1
  V  V84  1  0.74904353  0.24499950  -0.00269013  1
  Zn  Zn85  1  0.74465856  0.62796653  0.37167851  1
  Zn  Zn86  1  0.88017487  0.63690502  0.75913371  1
  Zn  Zn87  1  -0.00586722  0.11809898  0.11619341  1
  Zn  Zn88  1  0.75227242  0.25233558  0.49810539  1
  Zn  Zn89  1  0.24659589  0.37342594  0.11466472  1
  Zn  Zn90  1  0.12451832  0.49709008  0.11815790  1
  Zn  Zn91  1  0.87522789  0.00094180  0.37446090  1
  Zn  Zn92  1  -0.00032281  0.24550480  0.24842764  1
  Zn  Zn93  1  0.57807995  0.81498383  0.33645810  1
  Zn  Zn94  1  0.49124774  0.11570578  0.12340378  1
  Zn  Zn95  1  0.37615789  0.25037731  0.61307951  1
  Zn  Zn96  1  0.53252012  -0.03760855  0.45624619  1
  Zn  Zn97  1  -0.00176536  0.24954452  0.75257596  1
  Zn  Zn98  1  0.74405870  0.75234563  0.00378328  1
  Zn  Zn99  1  0.87959056  0.50481868  0.87959510  1
  Zn  Zn100  1  0.12445543  0.87597628  0.24965707  1
  Zn  Zn101  1  0.24958541  0.75057034  0.49883199  1
  Zn  Zn102  1  0.50466764  0.49767213  -0.00583195  1
  Zn  Zn103  1  0.88139399  0.75644511  0.63075595  1
  Zn  Zn104  1  0.25152317  0.62651112  0.87236312  1
  Zn  Zn105  1  0.49463437  0.49454764  0.50406568  1
  Zn  Zn106  1  0.11626381  0.11871895  -0.00494210  1
  Zn  Zn107  1  0.18358682  0.18512604  0.18540914  1
  Zn  Zn108  1  0.18802330  0.18827194  0.68932228  1
  Zn  Zn109  1  0.18719816  0.68519055  0.18513499  1
  Zn  Zn110  1  0.18756981  0.68743554  0.68926680  1
  Zn  Zn111  1  0.68729724  0.18702272  0.18585669  1
  Zn  Zn112  1  0.68755270  0.19290168  0.68714470  1
  Zn  Zn113  1  0.68485108  0.69084990  0.19209107  1
  Zn  Zn114  1  0.69293638  0.68952784  0.68726841  1
  Zn  Zn115  1  0.30578035  0.30765929  0.30298097  1
  Zn  Zn116  1  0.31255130  0.31255203  0.81262273  1
  Zn  Zn117  1  0.30446205  0.81793768  0.31408255  1
  Zn  Zn118  1  0.31076115  0.81398531  0.81212269  1
  Zn  Zn119  1  0.81041417  0.30787192  0.31021532  1
  Zn  Zn120  1  0.81240855  0.31167298  0.81425206  1
  Zn  Zn121  1  0.81330693  0.81236106  0.31318435  1
  Zn  Zn122  1  0.81532391  0.81127578  0.81418205  1
  Zn  Zn123  1  0.19095295  0.43912388  0.43213421  1
  Zn  Zn124  1  0.19615371  0.43773815  0.93364309  1
  Zn  Zn125  1  0.18691994  0.93967091  0.43852242  1
  Zn  Zn126  1  0.18753769  0.93385950  0.93609717  1
  Zn  Zn127  1  0.68621397  0.43808007  0.43959513  1
  Zn  Zn128  1  0.68958957  0.43579604  0.94024715  1
  Zn  Zn129  1  0.69722298  0.93774606  0.44100357  1
  Zn  Zn130  1  0.70026248  0.93497717  0.93761886  1
  Zn  Zn131  1  0.30961369  0.05926945  0.06156446  1
  Zn  Zn132  1  0.30549362  0.06856765  0.56322850  1
  Zn  Zn133  1  0.31375494  0.56177034  0.05914919  1
  Zn  Zn134  1  0.31298027  0.56174383  0.55961532  1
  Zn  Zn135  1  0.81264474  0.06238727  0.05500974  1
  Zn  Zn136  1  0.81064622  0.06129056  0.56311160  1
  Zn  Zn137  1  0.80744559  0.56266229  0.06407021  1
  Zn  Zn138  1  0.81190843  0.56251084  0.56282637  1
  Zn  Zn139  1  0.43830363  0.43421627  0.18123988  1
  Zn  Zn140  1  0.43750067  0.43204863  0.68582877  1
  Zn  Zn141  1  0.43772272  0.94649628  0.30106488  1
  Zn  Zn142  1  0.43828872  0.93875520  0.68747408  1
  Zn  Zn143  1  0.93728949  0.43708451  0.18773966  1
  Zn  Zn144  1  0.94023806  0.44100464  0.69001045  1
  Zn  Zn145  1  0.93712377  0.93352264  0.19057271  1
  Zn  Zn146  1  0.93587674  0.94279990  0.69479943  1
  Zn  Zn147  1  0.06447564  0.06313368  0.30256643  1
  Zn  Zn148  1  0.05643977  0.06205136  0.81080714  1
  Zn  Zn149  1  0.06037732  0.55969807  0.30774994  1
  Zn  Zn150  1  0.06725894  0.56064701  0.81301779  1
  Zn  Zn151  1  0.57106676  0.06924039  0.30360799  1
  Zn  Zn152  1  0.56606420  0.06372584  0.81282013  1
  Zn  Zn153  1  0.56818432  0.55709869  0.31219130  1
  Zn  Zn154  1  0.56407676  0.56764967  0.80911400  1
  Zn  Zn155  1  0.45393928  0.13000769  0.41583405  1
  Zn  Zn156  1  0.44246995  0.18634503  0.93912982  1
  Zn  Zn157  1  0.43432021  0.68150941  0.46325533  1
  Zn  Zn158  1  0.43962094  0.69029025  0.93352554  1
  Zn  Zn159  1  0.94016058  0.18694637  0.43755233  1
  Zn  Zn160  1  0.94051874  0.19006551  0.93723615  1
  Zn  Zn161  1  0.93600528  0.68898885  0.44118506  1
  Zn  Zn162  1  0.93424646  0.68747025  0.94031313  1
  Zn  Zn163  1  0.05915369  0.31107834  0.06085118  1
  Zn  Zn164  1  0.06241879  0.31051897  0.56175816  1
  Zn  Zn165  1  0.06380766  0.80700699  0.06293133  1
  Zn  Zn166  1  0.06410805  0.81190072  0.56097975  1
  Zn  Zn167  1  0.55796957  0.31405297  0.06102946  1
  Zn  Zn168  1  0.56806832  0.30940159  0.57112135  1
  Zn  Zn169  1  0.55820496  0.82343679  0.17424060  1
  Zn  Zn170  1  0.56787520  0.81891504  0.54492931  1
  O  O171  1  0.12448506  0.10946923  0.12111892  1
  O  O172  1  0.11836506  0.11988993  0.62055274  1
  O  O173  1  0.11525982  0.62531519  0.11476076  1
  O  O174  1  0.11922484  0.61795317  0.62112844  1
  O  O175  1  0.63060485  0.11286999  0.11362033  1
  O  O176  1  0.62237019  0.12108188  0.62189694  1
  O  O177  1  0.61691164  0.61619356  0.13047262  1
  O  O178  1  0.63418760  0.61362077  0.61692271  1
  O  O179  1  0.37388779  0.37294483  0.37775981  1
  O  O180  1  0.37421323  0.38137125  0.88239179  1
  O  O181  1  0.36979093  0.88037113  0.38636229  1
  O  O182  1  0.38217428  0.87967652  0.87898720  1
  O  O183  1  0.87851939  0.38066411  0.37682218  1
  O  O184  1  0.88334863  0.37547349  0.88264982  1
  O  O185  1  0.88417386  0.87671762  0.38320456  1
  O  O186  1  0.87311747  0.87858126  0.89007346  1
  O  O187  1  0.23881444  0.00674938  0.35978819  1
  O  O188  1  0.25340295  0.00630277  0.86794018  1
  O  O189  1  0.26205228  0.50429628  0.36717903  1
  O  O190  1  0.26215332  0.50131274  0.85932383  1
  O  O191  1  0.75201944  0.01570668  0.37984215  1
  O  O192  1  0.77111146  -0.00601066  0.87023981  1
  O  O193  1  0.76322633  0.50197600  0.37852315  1
  O  O194  1  0.74816531  0.50765539  0.86913534  1
  O  O195  1  0.24784857  0.49864927  0.13106296  1
  O  O196  1  0.24773539  0.49219362  0.63189316  1
  O  O197  1  0.24371649  0.99290489  0.13189983  1
  O  O198  1  0.24194918  0.99508688  0.63211447  1
  O  O199  1  0.74113184  0.49045393  0.12359979  1
  O  O200  1  0.74417214  0.49602262  0.63462041  1
  O  O201  1  0.74786045  0.99172954  0.12100607  1
  O  O202  1  0.74210715  0.98693032  0.62151450  1
  O  O203  1  0.01040506  0.37548401  0.25485266  1
  O  O204  1  0.01107623  0.37435294  0.75465002  1
  O  O205  1  0.00087945  0.86469777  0.25990306  1
  O  O206  1  0.01388937  0.87195351  0.73816253  1
  O  O207  1  0.50998055  0.36316008  0.24331185  1
  O  O208  1  0.50851829  0.36195289  0.74501201  1
  O  O209  1  0.50610833  0.87094864  0.26317466  1
  O  O210  1  0.50946508  0.87029966  0.75421387  1
  O  O211  1  0.50615366  0.14267583  0.24251906  1
  O  O212  1  0.49579120  0.13328975  0.74523008  1
  O  O213  1  0.49568220  0.62249993  0.24324958  1
  O  O214  1  0.48952654  0.63525386  0.74807554  1
  O  O215  1  0.99010160  0.12686135  0.24048454  1
  O  O216  1  0.99271741  0.13033717  0.73650025  1
  O  O217  1  0.99177905  0.62973483  0.24196809  1
  O  O218  1  1.00081713  0.61506802  0.73559126  1
  O  O219  1  0.37822879  0.25848982  0.00473603  1
  O  O220  1  0.39053118  0.25237651  0.49163611  1
  O  O221  1  0.36823515  0.75435582  0.00447878  1
  O  O222  1  0.36902520  0.76106113  0.50999881  1
  O  O223  1  0.86581919  0.25796566  0.00440693  1
  O  O224  1  0.87543842  0.25691552  0.50835250  1
  O  O225  1  0.87264046  0.75991182  0.00783773  1
  O  O226  1  0.86950716  0.75759841  0.50876965  1
  O  O227  1  0.12020645  0.24094711  0.49038629  1
  O  O228  1  0.12689010  0.25122625  0.98760103  1
  O  O229  1  0.12787666  0.74247905  0.49130935  1
  O  O230  1  0.13187190  0.74258914  0.99180023  1
  O  O231  1  0.62864567  0.24536145  0.49502060  1
  O  O232  1  0.62929305  0.24561042  0.99473314  1
  O  O233  1  0.63328014  0.73109192  0.50892756  1
  O  O234  1  0.62273080  0.75583554  0.98458053  1
  O  O235  1  0.48907268  0.24667257  0.12739966  1
  O  O236  1  0.50015380  0.23883974  0.63494670  1
  O  O237  1  0.48871302  0.74251001  0.12424057  1
  O  O238  1  0.49147884  0.76054682  0.63420823  1
  O  O239  1  0.98353733  0.25217630  0.12518503  1
  O  O240  1  0.98822597  0.24586981  0.62690424  1
  O  O241  1  0.98933140  0.74194577  0.13005102  1
  O  O242  1  1.00498125  0.73214030  0.62103813  1
  O  O243  1  0.00862694  0.25733241  0.37199502  1
  O  O244  1  0.00940396  0.26290252  0.87100899  1
  O  O245  1  0.00932818  0.75291789  0.37203895  1
  O  O246  1  0.01005810  0.74593431  0.87589067  1
  O  O247  1  0.49859848  0.24843528  0.37060141  1
  O  O248  1  0.51375209  0.24583530  0.86745922  1
  O  O249  1  0.48666746  0.73166769  0.36850762  1
  O  O250  1  0.50419554  0.76071196  0.86221369  1
  O  O251  1  0.23205531  0.12086403  0.49183332  1
  O  O252  1  0.24354398  0.12050661  0.98551686  1
  O  O253  1  0.24271333  0.62602900  0.49024442  1
  O  O254  1  0.24317801  0.63396712  0.99789973  1
  O  O255  1  0.74102665  0.12880756  0.49744274  1
  O  O256  1  0.74039315  0.13841253  1.00186283  1
  O  O257  1  0.74487323  0.63184635  0.49971572  1
  O  O258  1  0.75050027  0.62903959  0.98887109  1
  O  O259  1  0.26887718  0.37976306  -0.00105375  1
  O  O260  1  0.24354624  0.37807405  0.51449982  1
  O  O261  1  0.25714209  0.86652632  0.00512206  1
  O  O262  1  0.25745148  0.87516946  0.50847207  1
  O  O263  1  0.75434519  0.36439757  0.00962660  1
  O  O264  1  0.75805033  0.37593636  0.50921753  1
  O  O265  1  0.76164610  0.87125561  0.01412239  1
  O  O266  1  0.76226695  0.86806975  0.50790580  1
  O  O267  1  0.13430556  0.49132341  0.24847261  1
  O  O268  1  0.13624162  0.49042053  0.74569772  1
  O  O269  1  0.13250871  0.99517934  0.23526156  1
  O  O270  1  0.12886359  0.99355229  0.74074326  1
  O  O271  1  0.62153185  0.48643769  0.23952010  1
  O  O272  1  0.63226726  0.49455703  0.74592790  1
  O  O273  1  0.63526414  1.00449865  0.23727389  1
  O  O274  1  0.62287523  0.99366409  0.73901610  1
  O  O275  1  0.35565315  0.00286127  0.24456899  1
  O  O276  1  0.36904298  0.00623603  0.75666840  1
  O  O277  1  0.36276385  0.48738362  0.25519354  1
  O  O278  1  0.37344579  0.50643215  0.74994472  1
  O  O279  1  0.87740064  0.01188233  0.25133786  1
  O  O280  1  0.86908378  0.01718922  0.74950251  1
  O  O281  1  0.88086686  0.50842096  0.25895586  1
  O  O282  1  0.86323465  0.50136121  0.75288042  1
  O  O283  1  0.12189076  0.36891085  0.36771858  1
  O  O284  1  0.12288414  0.37083521  0.86898820  1
  O  O285  1  0.11944334  0.86574949  0.37621931  1
  O  O286  1  0.12789089  0.86561872  0.86522339  1
  O  O287  1  0.63223018  0.36975073  0.36413225  1
  O  O288  1  0.62688794  0.37015737  0.86466646  1
  O  O289  1  0.60499601  0.87279489  0.42979972  1
  O  O290  1  0.62041673  0.87255085  0.86733636  1
  O  O291  1  0.37497837  0.13951045  0.11203007  1
  O  O292  1  0.38194619  0.12925516  0.62801680  1
  O  O293  1  0.38075878  0.63637556  0.12067623  1
  O  O294  1  0.37020260  0.64065452  0.62828709  1
  O  O295  1  0.87055310  0.13157913  0.12985899  1
  O  O296  1  0.87831329  0.13123249  0.63001841  1
  O  O297  1  0.87899324  0.63061687  0.12914260  1
  O  O298  1  0.89225448  0.62120836  0.62427383  1
  O  O299  1  0.26115510  0.25055664  0.12759463  1
  O  O300  1  0.25213928  0.26128899  0.62507706  1
  O  O301  1  0.25285870  0.75478310  0.11568078  1
  O  O302  1  0.25537698  0.75979995  0.62518452  1
  O  O303  1  0.75799140  0.25607079  0.11813536  1
  O  O304  1  0.76182363  0.25789561  0.62424468  1
  O  O305  1  0.76207886  0.75420138  0.12428995  1
  O  O306  1  0.74899672  0.76347847  0.61550938  1
  O  O307  1  0.23332257  0.24283781  0.36645909  1
  O  O308  1  0.24040603  0.24048992  0.86633267  1
  O  O309  1  0.23752249  0.74395218  0.37338459  1
  O  O310  1  0.24889003  0.74925930  0.88587921  1
  O  O311  1  0.74480970  0.24005377  0.37828681  1
  O  O312  1  0.73640791  0.25678152  0.88302523  1
  O  O313  1  0.75465470  0.75002451  0.39040964  1
  O  O314  1  0.73946931  0.74371286  0.87640284  1
  O  O315  1  0.00308052  0.12755173  0.00315298  1
  O  O316  1  0.00794836  0.12829747  0.51308066  1
  O  O317  1  0.00852614  0.62951233  0.00812285  1
  O  O318  1  0.00648839  0.61902564  0.50772295  1
  O  O319  1  0.51796834  0.12584946  0.00379051  1
  O  O320  1  0.51613472  0.12933503  0.51090484  1
  O  O321  1  0.49787658  0.62328506  0.00883559  1
  O  O322  1  0.51598172  0.61757827  0.50628553  1
  O  O323  1  0.50184065  0.37113292  0.49476682  1
  O  O324  1  0.48315130  0.37977710  1.00198521  1
  O  O325  1  0.47345913  0.88171655  0.51604293  1
  O  O326  1  0.48735810  0.86983270  0.98885160  1
  O  O327  1  0.99509369  0.38072090  0.49429018  1
  O  O328  1  0.98948731  0.37207498  0.99178511  1
  O  O329  1  0.99252498  0.86832254  0.49167025  1
  O  O330  1  0.98579285  0.87014878  1.00647961  1
  O  O331  1  0.48579096  0.49981392  0.37164706  1
  O  O332  1  0.49004439  0.50380427  0.87046035  1
  O  O333  1  0.49044512  1.02548228  0.37288324  1
  O  O334  1  0.49612857  0.98797276  0.86842577  1
  O  O335  1  0.99284058  0.49387198  0.37995869  1
  O  O336  1  0.99989406  0.48690477  0.87044823  1
  O  O337  1  1.00332274  0.98721749  0.36995527  1
  O  O338  1  0.97680240  0.99543136  0.85588564  1
  O  O339  1  0.01518061  -0.00655516  0.12841446  1
  O  O340  1  0.00765385  0.00874255  0.62891385  1
  O  O341  1  0.00173817  0.51256588  0.12723741  1
  O  O342  1  0.00857748  0.50545292  0.61810796  1
  O  O343  1  0.52047665  0.00050079  0.12879749  1
  O  O344  1  0.50688267  0.01404693  0.63121819  1
  O  O345  1  0.50598187  0.51013205  0.12290207  1
  O  O346  1  0.51479267  0.49118595  0.62529065  1
  O  O347  1  0.23731313  0.38120266  0.24551466  1
  O  O348  1  0.24517838  0.38092806  0.74147675  1
  O  O349  1  0.24679389  0.88501371  0.24098820  1
  O  O350  1  0.24369348  0.88169601  0.74296504  1
  O  O351  1  0.74209000  0.36736397  0.23652428  1
  O  O352  1  0.74400730  0.38320843  0.74814626  1
  O  O353  1  0.76278860  0.87431288  0.23137693  1
  O  O354  1  0.73728989  0.87030134  0.74295390  1
  O  O355  1  0.23994166  0.11302810  0.25652379  1
  O  O356  1  0.25621734  0.11934166  0.75510112  1
  O  O357  1  0.24463291  0.61371247  0.25557427  1
  O  O358  1  0.26233785  0.61628513  0.74705243  1
  O  O359  1  0.75853718  0.13192821  0.25913398  1
  O  O360  1  0.76126049  0.13045454  0.74766762  1
  O  O361  1  0.76362116  0.62811033  0.25211603  1
  O  O362  1  0.75065922  0.61731014  0.75929023  1
  O  O363  1  0.35075176  0.13530474  0.37617648  1
  O  O364  1  0.36889493  0.12095602  0.87267700  1
  O  O365  1  0.37459754  0.62318664  0.36618480  1
  O  O366  1  0.37389390  0.61899454  0.86398973  1
  O  O367  1  0.86967774  0.12559953  0.36735122  1
  O  O368  1  0.87627077  0.12210151  0.86290144  1
  O  O369  1  0.87644628  0.61721382  0.36735901  1
  O  O370  1  0.86543723  0.62194958  0.87576443  1
  O  O371  1  0.12551824  0.37665664  0.12965866  1
  O  O372  1  0.13248123  0.37796681  0.63139545  1
  O  O373  1  0.13625516  0.87873265  0.12310559  1
  O  O374  1  0.13373684  0.87991730  0.62752421  1
  O  O375  1  0.63108534  0.37864342  0.13052153  1
  O  O376  1  0.63362777  0.37978543  0.63790989  1
  O  O377  1  0.63963056  0.89045590  0.11988668  1
  O  O378  1  0.62967807  0.88348463  0.62846751  1
  O  O379  1  0.12073004  0.25783915  0.25323797  1
  O  O380  1  0.12459496  0.26170616  0.75457266  1
  O  O381  1  0.11890111  0.75087004  0.25641637  1
  O  O382  1  0.13231603  0.75817312  0.76077212  1
  O  O383  1  0.61827860  0.25785375  0.25389426  1
  O  O384  1  0.62081333  0.25703547  0.75734647  1
  O  O385  1  0.62350365  0.76153657  0.24878208  1
  O  O386  1  0.61780221  0.75811421  0.75119879  1
  O  O387  1  0.38051976  0.25588420  0.23151195  1
  O  O388  1  0.38441181  0.24456518  0.75046625  1
  O  O389  1  0.36952359  0.74690965  0.24473129  1
  O  O390  1  0.38032032  0.74519721  0.74411581  1
  O  O391  1  0.87611479  0.24152766  0.24058532  1
  O  O392  1  0.87535670  0.24141026  0.74422444  1
  O  O393  1  0.88108944  0.74215319  0.24428501  1
  O  O394  1  0.87076568  0.74808689  0.74234641  1
  O  O395  1  0.37856006  0.50507216  0.48627571  1
  O  O396  1  0.37813908  0.49404519  0.98810919  1
  O  O397  1  0.36671882  0.99172730  0.50251833  1
  O  O398  1  0.36909938  0.98866808  0.99217358  1
  O  O399  1  0.88055911  0.49464348  0.49308324  1
  O  O400  1  0.86729592  0.48539310  1.00008183  1
  O  O401  1  0.87398605  0.98865340  0.49774058  1
  O  O402  1  0.87713642  0.98975936  0.99261517  1
  O  O403  1  0.13223143  -0.00356280  0.01463058  1
  O  O404  1  0.12600353  0.00527950  0.51380888  1
  O  O405  1  0.13279846  0.51397145  -0.00440480  1
  O  O406  1  0.12117481  0.50517880  0.50224028  1
  O  O407  1  0.63370045  0.01074790  -0.00088322  1
  O  O408  1  0.62568047  0.01078219  0.51344186  1
  O  O409  1  0.62193487  0.49194258  0.01427312  1
  O  O410  1  0.62508092  0.50660831  0.51048460  1
  O  O411  1  0.37152023  0.36358824  0.11217330  1
  O  O412  1  0.36126269  0.37044650  0.62460394  1
  O  O413  1  0.36276246  0.86175207  0.11632597  1
  O  O414  1  0.36208927  0.87075318  0.62627981  1
  O  O415  1  0.86780609  0.37001276  0.12083946  1
  O  O416  1  0.87307844  0.36913460  0.62309836  1
  O  O417  1  0.87073148  0.87042967  0.11792843  1
  O  O418  1  0.86931839  0.87904619  0.62083652  1
  O  O419  1  0.12304126  0.13132460  0.38141584  1
  O  O420  1  0.13041682  0.13340566  0.86997030  1
  O  O421  1  0.12650737  0.63008569  0.37792846  1
  O  O422  1  0.12926996  0.63270909  0.87859308  1
  O  O423  1  0.63169737  0.13328935  0.38329917  1
  O  O424  1  0.62529241  0.13092000  0.88683337  1
  O  O425  1  0.62872444  0.61384480  0.39252245  1
  O  O426  1  0.63198490  0.63660809  0.86891229  1
