# generated using pymatgen
data_V85Zn86O256
_symmetry_space_group_name_H-M   'P 1'
_cell_length_a   16.95372795
_cell_length_b   16.96430676
_cell_length_c   16.95871719
_cell_angle_alpha   89.93020279
_cell_angle_beta   89.98771620
_cell_angle_gamma   89.87307115
_symmetry_Int_Tables_number   1
_chemical_formula_structural   V85Zn86O256
_chemical_formula_sum   'V85 Zn86 O256'
_cell_volume   4877.45113215
_cell_formula_units_Z   1
loop_
 _symmetry_equiv_pos_site_id
 _symmetry_equiv_pos_as_xyz
  1  'x, y, z'
loop_
 _atom_site_type_symbol
 _atom_site_label
 _atom_site_symmetry_multiplicity
 _atom_site_fract_x
 _atom_site_fract_y
 _atom_site_fract_z
 _atom_site_occupancy
  V  V0  1  0.62694498  0.63031489  -0.00631336  1
  V  V1  1  0.87519132  0.87686651  -0.00318200  1
  V  V2  1  0.37964900  0.62413768  0.74523786  1
  V  V3  1  0.36983603  0.50522900  0.87335419  1
  V  V4  1  0.12521047  0.61623402  0.50747684  1
  V  V5  1  0.88194152  0.75227247  0.12675926  1
  V  V6  1  0.87490994  -0.00094173  0.87096287  1
  V  V7  1  0.87564771  0.37803802  -0.00034145  1
  V  V8  1  0.12354536  0.12549788  -0.00275345  1
  V  V9  1  0.62797003  0.86898542  0.75971158  1
  V  V10  1  0.37117524  0.37623761  0.49800687  1
  V  V11  1  0.00048421  0.37638149  0.87343667  1
  V  V12  1  0.55232517  0.32092119  0.42772050  1
  V  V13  1  0.75306781  0.87752484  0.62518576  1
  V  V14  1  0.75254443  0.62862091  0.37801092  1
  V  V15  1  0.12588940  0.62653615  -0.01638999  1
  V  V16  1  0.12535102  0.24891001  0.86515910  1
  V  V17  1  0.39075787  0.74700749  0.62404921  1
  V  V18  1  0.62759262  0.74647366  0.37440652  1
  V  V19  1  -0.01385010  0.61467604  0.62726859  1
  V  V20  1  0.38123514  0.50214602  0.37600790  1
  V  V21  1  0.62098004  0.12695039  0.00088034  1
  V  V22  1  0.50480142  0.74830931  0.76345126  1
  V  V23  1  0.61686094  0.49941082  0.63278356  1
  V  V24  1  0.24729805  0.87470010  0.12869245  1
  V  V25  1  0.25384079  -0.00293874  0.75586664  1
  V  V26  1  0.49433336  0.12606590  0.12862043  1
  V  V27  1  0.01915285  0.86885932  0.86793018  1
  V  V28  1  0.50491864  0.26139604  0.24964057  1
  V  V29  1  -0.00245275  0.12804987  0.12399452  1
  V  V30  1  0.00020028  -0.00654852  0.49920098  1
  V  V31  1  0.74949268  0.75467365  -0.00698041  1
  V  V32  1  0.49946677  0.49995667  -0.00258398  1
  V  V33  1  0.75341460  0.62881338  0.86712218  1
  V  V34  1  0.00488040  0.62748968  0.12682600  1
  V  V35  1  0.74993423  0.25221883  0.00126765  1
  V  V36  1  0.37239662  0.62651322  0.24983394  1
  V  V37  1  0.24739985  0.74520402  0.50035718  1
  V  V38  1  0.73348540  0.12843390  0.38210437  1
  V  V39  1  0.00208848  0.00141615  -0.00457898  1
  V  V40  1  0.75265906  0.74570402  0.51035838  1
  V  V41  1  0.11388381  0.86910870  0.25770022  1
  V  V42  1  0.88087563  0.63018144  0.25310571  1
  V  V43  1  0.00017970  0.75324519  0.73555499  1
  V  V44  1  0.87650782  0.12963446  0.74300210  1
  V  V45  1  0.74606062  -0.00163582  0.24933185  1
  V  V46  1  0.74955952  0.49257031  0.74901402  1
  V  V47  1  0.37058326  -0.00926873  0.36300624  1
  V  V48  1  0.87065912  0.12877571  0.25372056  1
  V  V49  1  0.87548507  -0.00791545  0.37589934  1
  V  V50  1  0.75186518  0.87400146  0.12550152  1
  V  V51  1  0.87474084  0.25205644  0.12745216  1
  V  V52  1  0.37481500  0.25786898  0.12145787  1
  V  V53  1  0.24078973  0.37946645  0.12338744  1
  V  V54  1  0.12628996  0.00005583  0.12779739  1
  V  V55  1  0.12391100  -0.00401772  0.63111563  1
  V  V56  1  0.50491955  0.25263048  0.75376440  1
  V  V57  1  0.37525455  0.87515433  0.50240792  1
  V  V58  1  0.25155019  0.37961965  0.62802009  1
  V  V59  1  0.75107954  0.50120118  0.25206267  1
  V  V60  1  0.25834949  0.11900337  0.87226695  1
  V  V61  1  0.00311568  0.48882382  0.49345650  1
  V  V62  1  0.62556920  0.50316904  0.12526663  1
  V  V63  1  0.50085875  0.87106716  0.37310849  1
  V  V64  1  0.36917682  0.75209262  0.11877987  1
  V  V65  1  0.24317456  0.75248700  -0.01178817  1
  V  V66  1  0.75062139  0.12461705  0.87652669  1
  V  V67  1  0.50873914  0.11516088  0.62210164  1
  V  V68  1  0.49948922  0.62706573  0.12309485  1
  V  V69  1  0.62640068  0.87170326  0.24699548  1
  V  V70  1  0.74366709  -0.00181308  0.74783985  1
  V  V71  1  0.74940611  0.37730343  0.12812537  1
  V  V72  1  0.87240720  0.36142081  0.50139576  1
  V  V73  1  0.37521352  0.24778391  0.62732116  1
  V  V74  1  -0.00013843  0.13139957  0.62136017  1
  V  V75  1  0.87631162  0.50534499  0.86918114  1
  V  V76  1  0.87853053  0.86508963  0.50134409  1
  V  V77  1  0.35789749  0.15699590  0.28184774  1
  V  V78  1  0.12450903  0.38068909  0.74422008  1
  V  V79  1  0.24484051  0.87152926  0.63167278  1
  V  V80  1  0.24801506  0.25403655  -0.00475770  1
  V  V81  1  0.24373528  0.51182576  0.75146579  1
  V  V82  1  0.24009373  0.50025083  0.25123782  1
  V  V83  1  0.00817373  0.26279474  0.26280737  1
  V  V84  1  0.61539022  0.62842059  0.50870575  1
  Zn  Zn85  1  0.75238882  0.36788158  0.62922854  1
  Zn  Zn86  1  0.87873783  0.49228998  0.37421270  1
  Zn  Zn87  1  0.37552965  0.11967466  0.74959359  1
  Zn  Zn88  1  0.12492217  0.11612590  0.47607018  1
  Zn  Zn89  1  0.37346166  0.37899526  -0.00667539  1
  Zn  Zn90  1  0.24611058  0.62525687  0.37666916  1
  Zn  Zn91  1  0.49921649  0.74928497  0.24499063  1
  Zn  Zn92  1  0.11992459  0.49903050  0.12762620  1
  Zn  Zn93  1  0.47152090  -0.00014401  -0.00473282  1
  Zn  Zn94  1  0.47463256  0.88224352  0.87937477  1
  Zn  Zn95  1  -0.00655767  0.25431459  0.74388714  1
  Zn  Zn96  1  0.62971868  0.25878267  0.87039703  1
  Zn  Zn97  1  0.20671509  0.05033275  0.30223609  1
  Zn  Zn98  1  0.50606450  0.38242634  0.86578892  1
  Zn  Zn99  1  0.62216182  0.37862371  0.25748618  1
  Zn  Zn100  1  0.00086110  0.50220346  0.00043426  1
  Zn  Zn101  1  0.21991044  0.23223610  0.43615738  1
  Zn  Zn102  1  0.74046614  0.24532701  0.50093188  1
  Zn  Zn103  1  0.10997848  0.74828069  0.37768725  1
  Zn  Zn104  1  0.50092942  0.50317398  0.50130817  1
  Zn  Zn105  1  0.61604662  -0.00078383  0.12536160  1
  Zn  Zn106  1  0.50943056  0.00969166  0.49717464  1
  Zn  Zn107  1  0.18511900  0.19358899  0.18609630  1
  Zn  Zn108  1  0.19338711  0.18770748  0.60229328  1
  Zn  Zn109  1  0.18571277  0.69089042  0.18996030  1
  Zn  Zn110  1  0.17973805  0.68893993  0.68678112  1
  Zn  Zn111  1  0.68394908  0.18945408  0.18987133  1
  Zn  Zn112  1  0.68739276  0.17744435  0.68750848  1
  Zn  Zn113  1  0.69251031  0.68845300  0.18459487  1
  Zn  Zn114  1  0.68591092  0.68738680  0.68777354  1
  Zn  Zn115  1  0.29617760  0.32524610  0.32050461  1
  Zn  Zn116  1  0.31512812  0.31570629  0.80976218  1
  Zn  Zn117  1  0.30479453  0.81129688  0.30968295  1
  Zn  Zn118  1  0.30735805  0.80507800  0.80809731  1
  Zn  Zn119  1  0.81269502  0.31216573  0.31910582  1
  Zn  Zn120  1  0.81249807  0.31292285  0.81341532  1
  Zn  Zn121  1  0.93505191  0.81178945  0.31344381  1
  Zn  Zn122  1  0.82175140  0.81046200  0.80940190  1
  Zn  Zn123  1  0.18855532  0.42867846  0.43280814  1
  Zn  Zn124  1  0.18556408  0.44208919  0.93539008  1
  Zn  Zn125  1  0.18625329  0.93175144  0.44380413  1
  Zn  Zn126  1  0.30007486  0.93564427  0.94198566  1
  Zn  Zn127  1  0.69375382  0.44439302  0.44607370  1
  Zn  Zn128  1  0.68628762  0.43904716  0.93533044  1
  Zn  Zn129  1  0.68843955  0.93771891  0.43575300  1
  Zn  Zn130  1  0.61700060  0.94163670  0.93731337  1
  Zn  Zn131  1  0.30556994  0.07194118  0.07311843  1
  Zn  Zn132  1  0.31495375  0.06084522  0.55689334  1
  Zn  Zn133  1  0.30796674  0.56648788  0.06105330  1
  Zn  Zn134  1  0.31372683  0.56108337  0.56669608  1
  Zn  Zn135  1  0.80987797  0.06255180  0.06237979  1
  Zn  Zn136  1  0.81210258  0.06018086  0.56178272  1
  Zn  Zn137  1  0.81486600  0.56521184  0.06081203  1
  Zn  Zn138  1  0.81377282  0.55426069  0.56155107  1
  Zn  Zn139  1  0.43288433  0.43904201  0.18604891  1
  Zn  Zn140  1  0.43943900  0.43727826  0.68731260  1
  Zn  Zn141  1  0.43643283  0.93408609  0.18159379  1
  Zn  Zn142  1  0.43791869  0.93294017  0.69190938  1
  Zn  Zn143  1  0.93814269  0.44033951  0.18866695  1
  Zn  Zn144  1  0.93427650  0.43715920  0.68343750  1
  Zn  Zn145  1  0.93707275  0.94325064  0.18474672  1
  Zn  Zn146  1  0.93632795  0.93576759  0.68645152  1
  Zn  Zn147  1  0.04894731  0.06748694  0.31369996  1
  Zn  Zn148  1  0.06662414  0.06054598  0.80759073  1
  Zn  Zn149  1  0.06251099  0.56687967  0.31852998  1
  Zn  Zn150  1  0.05784991  0.56459019  0.80663143  1
  Zn  Zn151  1  0.55165291  0.06239334  0.30792239  1
  Zn  Zn152  1  0.56175956  0.06714012  0.81113029  1
  Zn  Zn153  1  0.56243548  0.56496669  0.31259260  1
  Zn  Zn154  1  0.56306188  0.56723431  0.81304271  1
  Zn  Zn155  1  0.42040586  0.18604723  0.44331224  1
  Zn  Zn156  1  0.43678747  0.18767090  0.93868935  1
  Zn  Zn157  1  0.43594833  0.69044400  0.43465944  1
  Zn  Zn158  1  0.42973732  0.68657963  0.93508554  1
  Zn  Zn159  1  0.93519084  0.18244880  0.43639080  1
  Zn  Zn160  1  0.93661881  0.19025645  0.93383603  1
  Zn  Zn161  1  0.93883653  0.68015540  0.44358458  1
  Zn  Zn162  1  0.93968473  0.69082833  0.93439757  1
  Zn  Zn163  1  0.06042246  0.31151659  0.06180479  1
  Zn  Zn164  1  0.06551683  0.31144661  0.55867056  1
  Zn  Zn165  1  0.06361276  0.81483166  0.05727357  1
  Zn  Zn166  1  0.06229288  0.80828235  0.56218687  1
  Zn  Zn167  1  0.56428305  0.31708567  0.06176601  1
  Zn  Zn168  1  0.59628480  0.28924993  0.60113270  1
  Zn  Zn169  1  0.56030521  0.81136758  0.06013908  1
  Zn  Zn170  1  0.57862115  0.84545998  0.55226404  1
  O  O171  1  0.11926097  0.11903521  0.12107162  1
  O  O172  1  0.11276121  0.10852094  0.62757719  1
  O  O173  1  0.11113744  0.62716239  0.12802519  1
  O  O174  1  0.11416217  0.62556178  0.61139026  1
  O  O175  1  0.60833663  0.12869131  0.12447242  1
  O  O176  1  0.60802836  0.11781744  0.62662512  1
  O  O177  1  0.62168356  0.62192412  0.11607204  1
  O  O178  1  0.63088123  0.61560399  0.61670283  1
  O  O179  1  0.37049620  0.38742419  0.39007881  1
  O  O180  1  0.38169454  0.39032885  0.87395063  1
  O  O181  1  0.38059307  0.87561404  0.37737767  1
  O  O182  1  0.36377241  0.87458491  0.87285165  1
  O  O183  1  0.87022800  0.37698476  0.39290314  1
  O  O184  1  0.88128378  0.38204432  0.87980900  1
  O  O185  1  0.87135729  0.88595519  0.38144506  1
  O  O186  1  0.87797731  0.88836468  0.87882543  1
  O  O187  1  0.26618646  -0.01194419  0.37841820  1
  O  O188  1  0.24100623  0.00819424  0.86772023  1
  O  O189  1  0.26078288  0.50368304  0.36601808  1
  O  O190  1  0.25865996  0.49859771  0.86529850  1
  O  O191  1  0.75331812  0.00468476  0.36544216  1
  O  O192  1  0.76163037  0.00904099  0.86581148  1
  O  O193  1  0.75053832  0.51251030  0.36875188  1
  O  O194  1  0.75596762  0.50791901  0.86920311  1
  O  O195  1  0.24691887  0.49590348  0.13075269  1
  O  O196  1  0.25584771  0.48988295  0.63902534  1
  O  O197  1  0.23302009  0.99203799  0.12262940  1
  O  O198  1  0.24275994  0.99054475  0.62810819  1
  O  O199  1  0.74770528  0.49863976  0.13300050  1
  O  O200  1  0.74336188  0.50208972  0.63640060  1
  O  O201  1  0.75182825  0.99593565  0.13880294  1
  O  O202  1  0.75593163  0.99058237  0.63508759  1
  O  O203  1  -0.00784581  0.36223313  0.25078424  1
  O  O204  1  0.00672964  0.37570520  0.75283714  1
  O  O205  1  0.00874268  0.87774921  0.24747126  1
  O  O206  1  -0.00132176  0.86521207  0.75606531  1
  O  O207  1  0.50239922  0.37004559  0.24563193  1
  O  O208  1  0.49860916  0.35775160  0.74735372  1
  O  O209  1  0.50822094  0.87098987  0.25341169  1
  O  O210  1  0.51138386  0.86883878  0.75586553  1
  O  O211  1  0.48246773  0.13858599  0.24662024  1
  O  O212  1  0.49457845  0.13083938  0.74209692  1
  O  O213  1  0.49155188  0.62741164  0.24128837  1
  O  O214  1  0.49203313  0.63508000  0.75214430  1
  O  O215  1  0.98250898  0.12954922  0.24238140  1
  O  O216  1  0.99186442  0.12402154  0.74129811  1
  O  O217  1  0.98787632  0.61927162  0.24445772  1
  O  O218  1  1.00022091  0.62769462  0.73147341  1
  O  O219  1  0.36749197  0.25512850  0.00425106  1
  O  O220  1  0.37958325  0.26485310  0.51680910  1
  O  O221  1  0.35606811  0.73845359  0.00838365  1
  O  O222  1  0.36714360  0.75013561  0.50826737  1
  O  O223  1  0.86979947  0.25795631  0.00579111  1
  O  O224  1  0.87355735  0.25848640  0.49907590  1
  O  O225  1  0.86988082  0.75685384  0.00550605  1
  O  O226  1  0.86696676  0.75902740  0.49484715  1
  O  O227  1  0.12866884  0.23257785  0.51217428  1
  O  O228  1  0.12797013  0.24669011  0.98852079  1
  O  O229  1  0.13275605  0.74058145  0.50013533  1
  O  O230  1  0.13322129  0.73858796  1.00465744  1
  O  O231  1  0.61003044  0.26274815  0.48674134  1
  O  O232  1  0.63164397  0.24080253  1.00465264  1
  O  O233  1  0.63391483  0.74657662  0.49625330  1
  O  O234  1  0.63837607  0.74109598  1.00748501  1
  O  O235  1  0.49275613  0.24980601  0.12962958  1
  O  O236  1  0.49715848  0.23976686  0.63673198  1
  O  O237  1  0.48807037  0.74491678  0.12202699  1
  O  O238  1  0.48996421  0.76047133  0.63277308  1
  O  O239  1  0.99072358  0.24520068  0.12955704  1
  O  O240  1  1.00310413  0.23437954  0.62610097  1
  O  O241  1  0.98881037  0.74546587  0.11768864  1
  O  O242  1  0.99722406  0.74054035  0.62948625  1
  O  O243  1  -0.00436188  0.24319908  0.36106538  1
  O  O244  1  0.00684583  0.25856414  0.87114113  1
  O  O245  1  -0.00287930  0.75134267  0.38227369  1
  O  O246  1  0.00358135  0.76686996  0.87854188  1
  O  O247  1  0.49463092  0.25578591  0.36982381  1
  O  O248  1  0.49750157  0.24800328  0.86153035  1
  O  O249  1  0.50537662  0.75731813  0.36786231  1
  O  O250  1  0.49350583  0.75347215  0.86616000  1
  O  O251  1  0.24420059  0.13503816  0.50799516  1
  O  O252  1  0.23999511  0.13522223  0.99424107  1
  O  O253  1  0.24308382  0.62855744  0.50345188  1
  O  O254  1  0.23271895  0.63532077  1.00543307  1
  O  O255  1  0.74856612  0.12191165  0.48644487  1
  O  O256  1  0.74782766  0.13690484  0.99823191  1
  O  O257  1  0.74601352  0.62855758  0.49514551  1
  O  O258  1  0.74425035  0.63221523  0.99381165  1
  O  O259  1  0.25089049  0.37164879  0.00375883  1
  O  O260  1  0.26076643  0.38685030  0.51827703  1
  O  O261  1  0.24028454  0.85877572  0.01319755  1
  O  O262  1  0.25924628  0.86575517  0.50808886  1
  O  O263  1  0.75607919  0.37055615  0.00661627  1
  O  O264  1  0.76089895  0.37078672  0.50294618  1
  O  O265  1  0.75719348  0.86685996  0.00874973  1
  O  O266  1  0.75855953  0.86569288  0.50594779  1
  O  O267  1  0.13623197  0.50466004  0.25153699  1
  O  O268  1  0.13300039  0.49358049  0.75553081  1
  O  O269  1  0.12065315  0.99138093  0.24276774  1
  O  O270  1  0.13540732  0.99761589  0.73871034  1
  O  O271  1  0.63669972  0.50483481  0.24467964  1
  O  O272  1  0.63212328  0.50935936  0.73976145  1
  O  O273  1  0.62920015  0.99258790  0.24748352  1
  O  O274  1  0.63976599  0.99293837  0.75338269  1
  O  O275  1  0.37363708  -0.00967003  0.26242465  1
  O  O276  1  0.35831780  -0.00181904  0.74441981  1
  O  O277  1  0.36957783  0.51175827  0.25457103  1
  O  O278  1  0.37083758  0.50715760  0.75411732  1
  O  O279  1  0.86667074  0.00604379  0.25676487  1
  O  O280  1  0.87062539  0.00700355  0.75605021  1
  O  O281  1  0.86429403  0.50812546  0.25157489  1
  O  O282  1  0.86713322  0.49848024  0.76128147  1
  O  O283  1  0.19792653  0.33055162  0.38058024  1
  O  O284  1  0.11885601  0.37106424  0.86748963  1
  O  O285  1  0.12901909  0.87569518  0.35980413  1
  O  O286  1  0.11313039  0.88031197  0.87456344  1
  O  O287  1  0.61828056  0.38325809  0.37791097  1
  O  O288  1  0.61741456  0.37028076  0.88424108  1
  O  O289  1  0.61975207  0.86609552  0.36223877  1
  O  O290  1  0.64859108  0.86762754  0.85860660  1
  O  O291  1  0.38214822  0.14410253  0.12479523  1
  O  O292  1  0.37700462  0.13635889  0.62768797  1
  O  O293  1  0.37690673  0.63304158  0.13117476  1
  O  O294  1  0.37432678  0.63257693  0.63565339  1
  O  O295  1  0.87548882  0.13101954  0.13345946  1
  O  O296  1  0.88468139  0.11635884  0.63275217  1
  O  O297  1  0.88379839  0.63275918  0.13009130  1
  O  O298  1  0.88806998  0.62408271  0.61651205  1
  O  O299  1  0.25565640  0.25967736  0.11822172  1
  O  O300  1  0.26402122  0.26731946  0.63983771  1
  O  O301  1  0.25299688  0.75538229  0.12013885  1
  O  O302  1  0.25395869  0.75486842  0.61758906  1
  O  O303  1  0.75492062  0.25695132  0.12279513  1
  O  O304  1  0.71536936  0.25727084  0.61428670  1
  O  O305  1  0.76328316  0.75283276  0.11628942  1
  O  O306  1  0.75204645  0.75152994  0.61491246  1
  O  O307  1  0.31995400  0.21939387  0.36577627  1
  O  O308  1  0.24320257  0.24567679  0.87631318  1
  O  O309  1  0.24986124  0.74919807  0.39125073  1
  O  O310  1  0.24599283  0.74913730  0.88988623  1
  O  O311  1  0.74757216  0.23203361  0.37686532  1
  O  O312  1  0.75156544  0.24361042  0.88340432  1
  O  O313  1  0.74487158  0.73579456  0.38662627  1
  O  O314  1  0.76153448  0.74295336  0.88629280  1
  O  O315  1  0.00274306  0.12288816  0.00400894  1
  O  O316  1  -0.00337769  0.11021992  0.50616295  1
  O  O317  1  0.01151870  0.62739558  0.00695311  1
  O  O318  1  0.00499503  0.61027714  0.50838197  1
  O  O319  1  0.50632499  0.12511958  0.00878063  1
  O  O320  1  0.49280769  0.12478742  0.51632971  1
  O  O321  1  0.50735792  0.62008866  0.00173743  1
  O  O322  1  0.51287099  0.62925658  0.49611073  1
  O  O323  1  0.49462527  0.37759648  0.49322197  1
  O  O324  1  0.49678577  0.39300970  1.00408124  1
  O  O325  1  0.48167294  0.85704990  0.48792053  1
  O  O326  1  0.52297978  0.88922256  0.99085644  1
  O  O327  1  0.99283022  0.38328658  0.50658730  1
  O  O328  1  0.99322473  0.37833831  0.99317030  1
  O  O329  1  0.99146448  0.88412811  0.50721357  1
  O  O330  1  0.99510694  0.88310447  0.98952629  1
  O  O331  1  0.48564575  0.50732178  0.37533070  1
  O  O332  1  0.49376761  0.50362124  0.88242702  1
  O  O333  1  0.49475905  0.98164065  0.37406452  1
  O  O334  1  0.52032638  0.99466156  0.88535899  1
  O  O335  1  0.99784645  0.50104968  0.38960651  1
  O  O336  1  0.99161172  0.49588575  0.87556365  1
  O  O337  1  0.98678921  1.00204350  0.38531190  1
  O  O338  1  0.99475118  0.99319756  0.87537457  1
  O  O339  1  0.00531132  0.00851309  0.11806623  1
  O  O340  1  0.00664030  0.00188955  0.61954348  1
  O  O341  1  -0.00026700  0.51114373  0.12147536  1
  O  O342  1  -0.00217388  0.50866550  0.61598966  1
  O  O343  1  0.49679369  0.01345766  0.12574771  1
  O  O344  1  0.48905263  0.01291524  0.62647916  1
  O  O345  1  0.50285380  0.50910900  0.11785112  1
  O  O346  1  0.51278347  0.50300301  0.62555357  1
  O  O347  1  0.26147590  0.39100632  0.23326117  1
  O  O348  1  0.24286300  0.38640618  0.74818699  1
  O  O349  1  0.23567096  0.87111598  0.23628129  1
  O  O350  1  0.24894858  0.87604845  0.73628162  1
  O  O351  1  0.74771028  0.38501248  0.24894179  1
  O  O352  1  0.75181316  0.38825376  0.75079182  1
  O  O353  1  0.74068648  0.88469448  0.24412336  1
  O  O354  1  0.75537343  0.87991993  0.74298269  1
  O  O355  1  0.26710484  0.12574512  0.23743702  1
  O  O356  1  0.25097186  0.11238103  0.76125587  1
  O  O357  1  0.25623605  0.61900720  0.25005903  1
  O  O358  1  0.25472936  0.61639460  0.74269824  1
  O  O359  1  0.75495213  0.11970807  0.25557761  1
  O  O360  1  0.75703802  0.11612906  0.75340264  1
  O  O361  1  0.75976255  0.62142385  0.25617764  1
  O  O362  1  0.74668424  0.62070264  0.76410693  1
  O  O363  1  0.39447695  0.09587973  0.37187464  1
  O  O364  1  0.36128950  0.12789982  0.87470608  1
  O  O365  1  0.37077045  0.62199317  0.36627293  1
  O  O366  1  0.37506396  0.61530105  0.86079832  1
  O  O367  1  0.86441994  0.11336499  0.36816840  1
  O  O368  1  0.87300903  0.11562374  0.86883496  1
  O  O369  1  0.86812014  0.62170016  0.36768517  1
  O  O370  1  0.86701105  0.61454815  0.88519768  1
  O  O371  1  0.13636913  0.37789989  0.11827608  1
  O  O372  1  0.13354809  0.36994186  0.63824345  1
  O  O373  1  0.12519716  0.88176315  0.13284827  1
  O  O374  1  0.13414263  0.88236903  0.61592686  1
  O  O375  1  0.63368616  0.38591444  0.12688522  1
  O  O376  1  0.62870021  0.39795843  0.62187454  1
  O  O377  1  0.63059980  0.87434877  0.13481895  1
  O  O378  1  0.64680576  0.86522519  0.64251557  1
  O  O379  1  0.10610599  0.24874402  0.24346360  1
  O  O380  1  0.12206373  0.26082347  0.76194934  1
  O  O381  1  0.12258930  0.76483320  0.25328457  1
  O  O382  1  0.10219874  0.74209117  0.75134565  1
  O  O383  1  0.60968161  0.25428414  0.24875372  1
  O  O384  1  0.60972188  0.24237546  0.75115017  1
  O  O385  1  0.62671866  0.75557176  0.25347219  1
  O  O386  1  0.61401082  0.75340929  0.74860796  1
  O  O387  1  0.38344802  0.25875182  0.23772327  1
  O  O388  1  0.38503055  0.24867382  0.74270201  1
  O  O389  1  0.37140299  0.73897961  0.24296661  1
  O  O390  1  0.38028678  0.74156694  0.74238573  1
  O  O391  1  0.87563773  0.24291918  0.24647872  1
  O  O392  1  0.87396211  0.23448679  0.75401253  1
  O  O393  1  0.87432565  0.74224015  0.23979620  1
  O  O394  1  0.90133458  0.74336374  0.76472335  1
  O  O395  1  0.38035308  0.49700431  0.49493322  1
  O  O396  1  0.38134190  0.50708089  0.99120823  1
  O  O397  1  0.38088314  0.98673901  0.49071325  1
  O  O398  1  0.36138829  1.00071663  1.00954173  1
  O  O399  1  0.88690820  0.49112473  0.49670759  1
  O  O400  1  0.87428857  0.49278325  0.99034019  1
  O  O401  1  0.87857268  0.98886839  0.49340598  1
  O  O402  1  0.88087577  0.99792482  0.99203001  1
  O  O403  1  0.11335558  0.01062815  0.00979636  1
  O  O404  1  0.11519043  -0.00166069  0.50573324  1
  O  O405  1  0.12413543  0.51586072  0.00308444  1
  O  O406  1  0.11427446  0.49903319  0.49322024  1
  O  O407  1  0.64308747  0.02279557  0.01240528  1
  O  O408  1  0.60525492  -0.04873582  0.50586233  1
  O  O409  1  0.61864024  0.51013743  0.00618472  1
  O  O410  1  0.62357515  0.51225760  0.51110129  1
  O  O411  1  0.36678425  0.36970385  0.11701812  1
  O  O412  1  0.37143752  0.37235694  0.62004421  1
  O  O413  1  0.36383634  0.86058417  0.13090106  1
  O  O414  1  0.36839551  0.86674269  0.61780652  1
  O  O415  1  0.86854962  0.37255513  0.11961527  1
  O  O416  1  0.87020902  0.37743589  0.60971706  1
  O  O417  1  0.87227372  0.87001995  0.11975589  1
  O  O418  1  0.86621308  0.87512896  0.61458533  1
  O  O419  1  0.13644270  0.11700952  0.36218639  1
  O  O420  1  0.12927837  0.13376113  0.87712670  1
  O  O421  1  0.12730463  0.62824498  0.38988053  1
  O  O422  1  0.11941568  0.62384949  0.88575686  1
  O  O423  1  0.63571923  0.11457780  0.36949318  1
  O  O424  1  0.63322263  0.13219384  0.88526247  1
  O  O425  1  0.63200549  0.62927350  0.38255083  1
  O  O426  1  0.63531329  0.62243938  0.88753184  1
