# generated using pymatgen
data_V85Zn86O256
_symmetry_space_group_name_H-M   'P 1'
_cell_length_a   16.93675821
_cell_length_b   16.92756667
_cell_length_c   16.92941863
_cell_angle_alpha   90.10096297
_cell_angle_beta   89.98989290
_cell_angle_gamma   90.00033773
_symmetry_Int_Tables_number   1
_chemical_formula_structural   V85Zn86O256
_chemical_formula_sum   'V85 Zn86 O256'
_cell_volume   4853.62460626
_cell_formula_units_Z   1
loop_
 _symmetry_equiv_pos_site_id
 _symmetry_equiv_pos_as_xyz
  1  'x, y, z'
loop_
 _atom_site_type_symbol
 _atom_site_label
 _atom_site_symmetry_multiplicity
 _atom_site_fract_x
 _atom_site_fract_y
 _atom_site_fract_z
 _atom_site_occupancy
  V  V0  1  0.00453569  0.24309290  0.25142558  1
  V  V1  1  0.13347736  0.11407142  0.50378939  1
  V  V2  1  0.50045764  0.48830505  0.49342527  1
  V  V3  1  0.62600175  0.62055693  0.49684773  1
  V  V4  1  0.24487131  0.36902102  0.11672538  1
  V  V5  1  0.87723455  0.13797091  0.74804847  1
  V  V6  1  0.62744863  0.49643758  0.62276571  1
  V  V7  1  0.24157121  0.62219144  0.87683734  1
  V  V8  1  0.00006844  0.49749029  0.49652740  1
  V  V9  1  0.50007348  0.62127910  0.62425946  1
  V  V10  1  0.88024882  0.24079310  0.12910998  1
  V  V11  1  0.37591362  0.24778834  0.11914628  1
  V  V12  1  0.87590151  0.87704579  -0.00040199  1
  V  V13  1  0.62552841  0.74901447  0.87414645  1
  V  V14  1  0.75260542  0.00548219  0.75197954  1
  V  V15  1  0.87956286  0.74530348  0.63620582  1
  V  V16  1  -0.00221827  0.37031283  0.87278586  1
  V  V17  1  0.74936146  0.75095979  -0.00004905  1
  V  V18  1  0.38113880  0.87168602  0.49534703  1
  V  V19  1  0.24098810  0.74682101  -0.00058314  1
  V  V20  1  0.50267083  0.13531815  0.63640092  1
  V  V21  1  -0.01017305  0.00010759  0.50627242  1
  V  V22  1  0.00252613  0.51397830  0.00420009  1
  V  V23  1  0.50225407  0.00652083  0.00047322  1
  V  V24  1  0.24592231  -0.00005113  0.75023269  1
  V  V25  1  0.62196426  0.62416539  -0.00193348  1
  V  V26  1  0.74993705  0.50135335  0.24762247  1
  V  V27  1  -0.00058723  0.00872223  0.01287313  1
  V  V28  1  0.75446845  0.50172116  0.74597117  1
  V  V29  1  0.00463042  0.87516357  0.87376543  1
  V  V30  1  0.75377595  0.00702665  0.26808754  1
  V  V31  1  0.24448067  0.87836376  0.62467782  1
  V  V32  1  0.75523788  0.36041024  0.62254334  1
  V  V33  1  0.74947564  0.87792441  0.12795277  1
  V  V34  1  0.49837268  0.62196496  0.11965162  1
  V  V35  1  -0.00341559  0.13527314  0.62687870  1
  V  V36  1  0.49946399  0.74933425  0.74940579  1
  V  V37  1  0.88312975  0.74576470  0.12401052  1
  V  V38  1  0.12273296  0.87009890  0.75233407  1
  V  V39  1  0.62375439  0.87742555  0.25600070  1
  V  V40  1  0.38133190  0.50160359  0.88452965  1
  V  V41  1  0.12687075  0.89368787  0.24875227  1
  V  V42  1  0.87562107  0.37632954  0.00474598  1
  V  V43  1  0.37170477  0.87636823  -0.00055787  1
  V  V44  1  0.12328373  0.51435801  0.12399031  1
  V  V45  1  0.12286024  0.62535063  0.50122517  1
  V  V46  1  0.36910834  0.35979487  0.50518731  1
  V  V47  1  0.62747579  0.13005267  0.49568994  1
  V  V48  1  0.37407474  0.74874262  0.62522590  1
  V  V49  1  0.12407904  0.24951628  0.87763547  1
  V  V50  1  -0.00151726  0.62676630  0.63999291  1
  V  V51  1  0.25100204  0.13242261  0.88492239  1
  V  V52  1  0.37618368  0.00814092  0.86914081  1
  V  V53  1  0.37526211  0.48920964  0.37427952  1
  V  V54  1  0.13089199  0.25856406  0.38776092  1
  V  V55  1  0.62587190  0.87485724  0.74902489  1
  V  V56  1  0.87497189  0.00748347  0.87356078  1
  V  V57  1  0.12122702  0.37499945  0.25178631  1
  V  V58  1  0.50338161  0.37534914  0.88585147  1
  V  V59  1  0.87465330  0.36346588  0.50033994  1
  V  V60  1  0.75168958  0.62470014  0.87100188  1
  V  V61  1  0.24947867  0.74899861  0.50028656  1
  V  V62  1  0.12102298  0.37236360  0.74942638  1
  V  V63  1  0.37317307  0.75095999  0.12414844  1
  V  V64  1  0.37383457  0.62368282  0.25334846  1
  V  V65  1  0.37408087  0.62124702  0.75044619  1
  V  V66  1  0.49950678  0.87527638  0.87331004  1
  V  V67  1  0.12853666  0.49857959  0.62559788  1
  V  V68  1  0.62379976  0.49985981  0.11728203  1
  V  V69  1  0.61750978  0.37095291  0.74900892  1
  V  V70  1  0.32565003  0.18292061  0.69496598  1
  V  V71  1  0.12237386  0.75024809  0.37235798  1
  V  V72  1  0.37039292  0.00031873  0.37040242  1
  V  V73  1  0.87917988  0.49538334  0.37444220  1
  V  V74  1  -0.00779710  0.88011523  0.37577661  1
  V  V75  1  0.62301388  0.74963992  0.37602358  1
  V  V76  1  0.75238641  0.24091389  -0.00213020  1
  V  V77  1  0.61535203  0.37449684  0.25288156  1
  V  V78  1  0.87661786  0.50473899  0.87100245  1
  V  V79  1  0.88497864  0.62331848  0.24712446  1
  V  V80  1  0.49940807  0.75380236  0.25336115  1
  V  V81  1  0.50126829  -0.00161184  0.49935123  1
  V  V82  1  0.11962089  0.13069636  0.01380936  1
  V  V83  1  0.75291534  0.87300953  0.62455411  1
  V  V84  1  0.62625497  0.24253439  0.87357696  1
  Zn  Zn85  1  0.50557428  0.12797186  0.12940482  1
  Zn  Zn86  1  0.49339582  0.24747626  0.25694189  1
  Zn  Zn87  1  0.11658747  0.74475983  0.87650862  1
  Zn  Zn88  1  0.24848878  0.12335442  0.36779432  1
  Zn  Zn89  1  0.78309099  0.17204691  0.41748357  1
  Zn  Zn90  1  0.24897091  0.49831734  0.24989704  1
  Zn  Zn91  1  0.75267055  0.62536633  0.37440248  1
  Zn  Zn92  1  0.00303631  0.75044204  0.24715520  1
  Zn  Zn93  1  0.62512073  0.00442241  0.12825983  1
  Zn  Zn94  1  0.25257631  0.49601001  0.74989453  1
  Zn  Zn95  1  0.75334317  0.74699260  0.50005332  1
  Zn  Zn96  1  0.87280844  0.87082940  0.49773540  1
  Zn  Zn97  1  0.24999961  0.89009544  0.13744928  1
  Zn  Zn98  1  0.74950333  0.37366968  0.12436566  1
  Zn  Zn99  1  0.62332635  -0.00006534  0.62589925  1
  Zn  Zn100  1  0.37426996  0.37638912  -0.00001094  1
  Zn  Zn101  1  0.37175194  0.12194542  0.24512328  1
  Zn  Zn102  1  0.63164961  0.12187242  -0.00048466  1
  Zn  Zn103  1  0.62284934  0.25915015  0.38033216  1
  Zn  Zn104  1  0.25023561  0.62385000  0.37615850  1
  Zn  Zn105  1  0.25208402  0.35935468  0.62657586  1
  Zn  Zn106  1  0.87892425  0.11973032  0.26160582  1
  Zn  Zn107  1  0.19479758  0.18663319  0.19480197  1
  Zn  Zn108  1  0.16154453  0.18524313  0.69242400  1
  Zn  Zn109  1  0.19088188  0.69405749  0.18808229  1
  Zn  Zn110  1  0.18702384  0.68773297  0.69046718  1
  Zn  Zn111  1  0.68889848  0.18786493  0.18494978  1
  Zn  Zn112  1  0.68627347  0.18548319  0.68809787  1
  Zn  Zn113  1  0.69060233  0.68694718  0.18741358  1
  Zn  Zn114  1  0.68973086  0.68580989  0.68583270  1
  Zn  Zn115  1  0.30824667  0.31054307  0.30807994  1
  Zn  Zn116  1  0.30775346  0.31911992  0.81899722  1
  Zn  Zn117  1  0.30903412  0.81541295  0.31451191  1
  Zn  Zn118  1  0.31022289  0.81171170  0.81561287  1
  Zn  Zn119  1  0.81013328  0.31555801  0.31061571  1
  Zn  Zn120  1  0.80774784  0.31704774  0.81353769  1
  Zn  Zn121  1  0.81040163  0.80989480  0.31181445  1
  Zn  Zn122  1  0.81555708  0.81611124  0.81229372  1
  Zn  Zn123  1  0.19437862  0.43663567  0.43925922  1
  Zn  Zn124  1  0.18473150  0.44183516  0.93924479  1
  Zn  Zn125  1  0.18538295  0.93567908  0.43673390  1
  Zn  Zn126  1  0.19726949  0.95273418  0.96302948  1
  Zn  Zn127  1  0.69562400  0.43199994  0.43334222  1
  Zn  Zn128  1  0.69012117  0.43411175  0.93708321  1
  Zn  Zn129  1  0.68365031  0.93624148  0.44085532  1
  Zn  Zn130  1  0.68947476  0.93860725  0.93549083  1
  Zn  Zn131  1  0.30936668  0.06452923  0.06411489  1
  Zn  Zn132  1  0.31353604  0.05624226  0.55915603  1
  Zn  Zn133  1  0.30745279  0.56147879  0.06341884  1
  Zn  Zn134  1  0.31221018  0.55877615  0.55972572  1
  Zn  Zn135  1  0.81399809  0.06240864  0.06788657  1
  Zn  Zn136  1  0.81336576  0.06110378  0.56703771  1
  Zn  Zn137  1  0.81223201  0.56386909  0.06084136  1
  Zn  Zn138  1  0.81477818  0.56212651  0.56280202  1
  Zn  Zn139  1  0.43492524  0.43847793  0.18199054  1
  Zn  Zn140  1  0.43712568  0.43409299  0.68655971  1
  Zn  Zn141  1  0.44037333  0.93659667  0.18561239  1
  Zn  Zn142  1  0.43472414  0.94045126  0.68439859  1
  Zn  Zn143  1  0.94253137  0.43455267  0.18675063  1
  Zn  Zn144  1  0.93830474  0.43600052  0.68455628  1
  Zn  Zn145  1  0.93512924  0.93590662  0.19185253  1
  Zn  Zn146  1  0.93891992  0.93913520  0.68604596  1
  Zn  Zn147  1  0.05895986  0.06615365  0.32148005  1
  Zn  Zn148  1  0.06202054  0.06013146  0.81376963  1
  Zn  Zn149  1  0.06332392  0.56178105  0.31283481  1
  Zn  Zn150  1  0.06245598  0.55689370  0.81345022  1
  Zn  Zn151  1  0.55589445  0.06380974  0.31508560  1
  Zn  Zn152  1  0.56502918  0.06275953  0.81230130  1
  Zn  Zn153  1  0.56016583  0.56021207  0.31063391  1
  Zn  Zn154  1  0.56318046  0.55849219  0.81098805  1
  Zn  Zn155  1  0.44709036  0.18432618  0.43301826  1
  Zn  Zn156  1  0.43801702  0.19269460  0.93579909  1
  Zn  Zn157  1  0.44027208  0.68292636  0.43630878  1
  Zn  Zn158  1  0.43480284  0.68730041  0.93746960  1
  Zn  Zn159  1  0.95275447  0.18847565  0.43186662  1
  Zn  Zn160  1  0.93654654  0.18849027  0.93679308  1
  Zn  Zn161  1  0.93710148  0.68683769  0.44101199  1
  Zn  Zn162  1  0.93573362  0.68947971  0.93370595  1
  Zn  Zn163  1  0.05944151  0.31509388  0.06328294  1
  Zn  Zn164  1  0.05975366  0.31428243  0.56103343  1
  Zn  Zn165  1  0.06259391  0.81936862  0.06359235  1
  Zn  Zn166  1  0.06079613  0.81334370  0.56409640  1
  Zn  Zn167  1  0.56320682  0.31048024  0.06380500  1
  Zn  Zn168  1  0.55908210  0.30953498  0.56490133  1
  Zn  Zn169  1  0.56104748  0.81439804  0.06441959  1
  Zn  Zn170  1  0.56366473  0.81094940  0.56276598  1
  O  O171  1  0.12890292  0.13800319  0.11204730  1
  O  O172  1  0.11209569  0.12313265  0.61302242  1
  O  O173  1  0.13122750  0.61345760  0.13129603  1
  O  O174  1  0.11865605  0.62000797  0.62162405  1
  O  O175  1  0.62365747  0.12218733  0.11771771  1
  O  O176  1  0.61484904  0.12168891  0.62106837  1
  O  O177  1  0.61817629  0.62124139  0.11997123  1
  O  O178  1  0.62031181  0.61817183  0.61698510  1
  O  O179  1  0.36725751  0.38396034  0.38378865  1
  O  O180  1  0.38397288  0.38335770  0.87686582  1
  O  O181  1  0.37197911  0.87926630  0.38907064  1
  O  O182  1  0.38368260  0.88129159  0.87769105  1
  O  O183  1  0.87122240  0.38965924  0.38207909  1
  O  O184  1  0.88032853  0.38513594  0.88020877  1
  O  O185  1  0.88829374  0.86601510  0.37626650  1
  O  O186  1  0.88102973  0.88434888  0.88158789  1
  O  O187  1  0.26668067  -0.00145519  0.38522802  1
  O  O188  1  0.25753749  0.01127226  0.87104237  1
  O  O189  1  0.25952393  0.50464932  0.37159005  1
  O  O190  1  0.25790472  0.50683636  0.87425858  1
  O  O191  1  0.75000587  -0.00532170  0.36653987  1
  O  O192  1  0.76216225  -0.00600596  0.86511812  1
  O  O193  1  0.75890227  0.50402836  0.36463418  1
  O  O194  1  0.75781252  0.50255693  0.86782470  1
  O  O195  1  0.24057225  0.49111158  0.12699292  1
  O  O196  1  0.23612274  0.50096167  0.62538317  1
  O  O197  1  0.24130821  0.97920425  0.07095844  1
  O  O198  1  0.25787371  0.98974146  0.63654963  1
  O  O199  1  0.74171790  0.50113522  0.12994658  1
  O  O200  1  0.74520038  0.49688997  0.63156322  1
  O  O201  1  0.74761376  0.98660110  0.12629921  1
  O  O202  1  0.74997935  0.98898971  0.63419099  1
  O  O203  1  0.01553769  0.36816339  0.24719592  1
  O  O204  1  0.01082423  0.38351458  0.75828601  1
  O  O205  1  0.00786192  0.87429082  0.25921260  1
  O  O206  1  0.01184986  0.88521838  0.75807178  1
  O  O207  1  0.51383445  0.38093765  0.24335536  1
  O  O208  1  0.51379241  0.37968471  0.75546073  1
  O  O209  1  0.50847736  0.86134520  0.24467648  1
  O  O210  1  0.50475476  0.87016887  0.75240121  1
  O  O211  1  0.49029870  0.12476010  0.24619491  1
  O  O212  1  0.50006230  0.11656734  0.73506743  1
  O  O213  1  0.49139817  0.63392745  0.24368349  1
  O  O214  1  0.49456323  0.62863418  0.74428054  1
  O  O215  1  1.00057521  0.13804995  0.25322553  1
  O  O216  1  0.99551541  0.11728139  0.73488940  1
  O  O217  1  0.98823383  0.62695869  0.25099787  1
  O  O218  1  1.00413715  0.62213028  0.73963059  1
  O  O219  1  0.37773294  0.25701327  0.01253788  1
  O  O220  1  0.38067675  0.26257486  0.49492369  1
  O  O221  1  0.37157891  0.75711057  0.00616833  1
  O  O222  1  0.37266619  0.75371987  0.50394355  1
  O  O223  1  0.87226595  0.25693342  0.00693679  1
  O  O224  1  0.88452569  0.26402713  0.49205724  1
  O  O225  1  0.86795878  0.75480103  0.00585730  1
  O  O226  1  0.87141304  0.75103568  0.51114099  1
  O  O227  1  0.12119480  0.24369695  0.49180307  1
  O  O228  1  0.11288542  0.24469122  0.98695621  1
  O  O229  1  0.12792816  0.74695014  0.49189173  1
  O  O230  1  0.13749390  0.75842734  0.99844099  1
  O  O231  1  0.62018112  0.23371755  0.50335198  1
  O  O232  1  0.63632555  0.25119554  0.99386360  1
  O  O233  1  0.62408312  0.73970731  0.49267919  1
  O  O234  1  0.62997719  0.74719500  0.99401185  1
  O  O235  1  0.48878007  0.25074942  0.12807274  1
  O  O236  1  0.49904441  0.23498917  0.62890393  1
  O  O237  1  0.49485524  0.74119505  0.13233665  1
  O  O238  1  0.49418184  0.74192988  0.63000895  1
  O  O239  1  0.99122482  0.25640831  0.13513545  1
  O  O240  1  1.00245877  0.23462875  0.62317136  1
  O  O241  1  0.98666312  0.75564964  0.12445087  1
  O  O242  1  0.98904127  0.74234257  0.62299192  1
  O  O243  1  0.02034307  0.25397711  0.36605860  1
  O  O244  1  0.00097264  0.26526050  0.87731238  1
  O  O245  1  0.00816316  0.75726967  0.37661726  1
  O  O246  1  -0.00073494  0.76799501  0.88175838  1
  O  O247  1  0.51013658  0.25001621  0.36951716  1
  O  O248  1  0.51226607  0.26137421  0.87852009  1
  O  O249  1  0.51170031  0.74373719  0.36647754  1
  O  O250  1  0.50428729  0.75455767  0.86807144  1
  O  O251  1  0.23527280  0.12007437  0.50370104  1
  O  O252  1  0.23741605  0.12697687  0.98837774  1
  O  O253  1  0.24174342  0.63203555  0.50127264  1
  O  O254  1  0.25684852  0.63520653  0.99048426  1
  O  O255  1  0.73367517  0.11938980  0.50852278  1
  O  O256  1  0.75544337  0.13700155  0.99968289  1
  O  O257  1  0.73628360  0.62260307  0.49955772  1
  O  O258  1  0.74315289  0.63200857  0.99217035  1
  O  O259  1  0.24832386  0.37891915  0.01328589  1
  O  O260  1  0.26353668  0.37308001  0.50727101  1
  O  O261  1  0.26787063  0.85924219  -0.02256863  1
  O  O262  1  0.25442086  0.86925460  0.50863923  1
  O  O263  1  0.76430414  0.37046981  0.00043592  1
  O  O264  1  0.76137395  0.38251360  0.51173902  1
  O  O265  1  0.75557142  0.87047480  0.00685298  1
  O  O266  1  0.74914371  0.87255153  0.51360547  1
  O  O267  1  0.12478711  0.49369825  0.24259060  1
  O  O268  1  0.12766372  0.49234304  0.74183106  1
  O  O269  1  0.12036996  0.99216335  0.25539993  1
  O  O270  1  0.14017139  0.99259424  0.75659180  1
  O  O271  1  0.63095360  0.49888320  0.23866836  1
  O  O272  1  0.63272632  0.49168798  0.74332574  1
  O  O273  1  0.63238239  0.99146658  0.25274128  1
  O  O274  1  0.63536180  0.99335679  0.75040546  1
  O  O275  1  0.38165309  -0.01050208  0.26869885  1
  O  O276  1  0.36503534  -0.00596428  0.76280949  1
  O  O277  1  0.37566644  0.50683562  0.25703920  1
  O  O278  1  0.37402165  0.50613731  0.75683199  1
  O  O279  1  0.85767794  -0.00035250  0.24737917  1
  O  O280  1  0.87024582  0.00538791  0.75648922  1
  O  O281  1  0.87125724  0.50362247  0.25338341  1
  O  O282  1  0.86685369  0.49407494  0.75854454  1
  O  O283  1  0.13228624  0.36601482  0.37025510  1
  O  O284  1  0.11797108  0.37209021  0.87060199  1
  O  O285  1  0.11657745  0.86934926  0.36770770  1
  O  O286  1  0.11755222  0.87793270  0.86993978  1
  O  O287  1  0.62430855  0.38665955  0.35552854  1
  O  O288  1  0.61941187  0.37198175  0.86813752  1
  O  O289  1  0.62746819  0.86537762  0.36464385  1
  O  O290  1  0.61984782  0.86810779  0.86877671  1
  O  O291  1  0.37536086  0.13571651  0.12025201  1
  O  O292  1  0.38150970  0.12561636  0.62718019  1
  O  O293  1  0.38133504  0.62809221  0.13128465  1
  O  O294  1  0.37966509  0.62723229  0.62988287  1
  O  O295  1  0.87175141  0.13799909  0.13387738  1
  O  O296  1  0.88767606  0.12228018  0.63177533  1
  O  O297  1  0.86836830  0.63460866  0.13259807  1
  O  O298  1  0.88288043  0.63547834  0.62384918  1
  O  O299  1  0.25595555  0.26399731  0.12534412  1
  O  O300  1  0.25673492  0.23759603  0.64171409  1
  O  O301  1  0.25674705  0.75677799  0.11601612  1
  O  O302  1  0.25626763  0.75535320  0.62077842  1
  O  O303  1  0.75960992  0.25452201  0.11659211  1
  O  O304  1  0.74951300  0.26167297  0.62907914  1
  O  O305  1  0.75612969  0.76064833  0.12172411  1
  O  O306  1  0.76011387  0.75428351  0.62507984  1
  O  O307  1  0.23425644  0.24565743  0.37153500  1
  O  O308  1  0.23842084  0.24350434  0.87250489  1
  O  O309  1  0.24173787  0.74825409  0.38326015  1
  O  O310  1  0.25056721  0.73709908  0.88129626  1
  O  O311  1  0.73670159  0.26342236  0.37702153  1
  O  O312  1  0.74006576  0.25927213  0.88655261  1
  O  O313  1  0.73726863  0.74558838  0.37659045  1
  O  O314  1  0.74666426  0.74566746  0.87802042  1
  O  O315  1  0.00190532  0.11667188  -0.00025382  1
  O  O316  1  0.00551710  0.11498707  0.50859223  1
  O  O317  1  -0.00471371  0.61317082  -0.00488252  1
  O  O318  1  0.00598973  0.61486982  0.50857440  1
  O  O319  1  0.49991820  0.11266735  -0.00252878  1
  O  O320  1  0.50800835  0.11655892  0.51145242  1
  O  O321  1  0.50746699  0.63213401  0.00889584  1
  O  O322  1  0.50978240  0.61508011  0.50445907  1
  O  O323  1  0.49163026  0.38411662  0.50579418  1
  O  O324  1  0.50209402  0.37823156  0.98891519  1
  O  O325  1  0.49031548  0.88075929  0.50856643  1
  O  O326  1  0.49058919  0.87968130  0.99420566  1
  O  O327  1  0.99159401  0.39054832  0.50848463  1
  O  O328  1  0.98929311  0.38293996  0.99291361  1
  O  O329  1  1.00132238  0.88621383  0.49599886  1
  O  O330  1  0.99530806  0.88829273  0.99515793  1
  O  O331  1  0.49061318  0.50394594  0.38390047  1
  O  O332  1  0.49203771  0.49157077  0.87064580  1
  O  O333  1  0.48884805  1.00046733  0.39133516  1
  O  O334  1  0.49448064  0.99566838  0.87811204  1
  O  O335  1  0.99317927  0.50383471  0.38465247  1
  O  O336  1  0.99369612  0.49235833  0.88171068  1
  O  O337  1  1.00325390  0.99168317  0.39065783  1
  O  O338  1  0.99095347  0.99250620  0.88096355  1
  O  O339  1  -0.00798212  -0.00278240  0.11122231  1
  O  O340  1  0.00065065  0.00464218  0.61108160  1
  O  O341  1  0.01106453  0.49716487  0.11692483  1
  O  O342  1  0.01031817  0.50744695  0.62079086  1
  O  O343  1  0.50288007  -0.00123465  0.11314503  1
  O  O344  1  0.49833595  0.00683742  0.61556653  1
  O  O345  1  0.50708255  0.51437178  0.12786792  1
  O  O346  1  0.50733321  0.50370275  0.61732973  1
  O  O347  1  0.23842835  0.37722410  0.23877811  1
  O  O348  1  0.23666194  0.37658396  0.74706734  1
  O  O349  1  0.23343446  0.87643520  0.25309099  1
  O  O350  1  0.24611350  0.88184124  0.74549996  1
  O  O351  1  0.74264794  0.39035958  0.24441871  1
  O  O352  1  0.74287812  0.38569958  0.74298542  1
  O  O353  1  0.74341120  0.88123632  0.24507436  1
  O  O354  1  0.74707651  0.88145515  0.74165265  1
  O  O355  1  0.25829641  0.11879868  0.25343632  1
  O  O356  1  0.25392413  0.12199772  0.75119310  1
  O  O357  1  0.26508831  0.62644594  0.24997095  1
  O  O358  1  0.25827258  0.62295037  0.75777087  1
  O  O359  1  0.74654051  0.10959281  0.25104799  1
  O  O360  1  0.75989352  0.11234098  0.74143195  1
  O  O361  1  0.75805507  0.61447878  0.24956323  1
  O  O362  1  0.74358657  0.61041571  0.75546506  1
  O  O363  1  0.37258808  0.10838704  0.38197436  1
  O  O364  1  0.36582493  0.11958918  0.88015013  1
  O  O365  1  0.37481412  0.61627552  0.36761666  1
  O  O366  1  0.37079952  0.61825451  0.86853083  1
  O  O367  1  0.87595422  0.13007230  0.37552445  1
  O  O368  1  0.88331221  0.11443820  0.86524628  1
  O  O369  1  0.87388202  0.61635617  0.36676017  1
  O  O370  1  0.86912599  0.61259604  0.87712155  1
  O  O371  1  0.13313858  0.37914213  0.13006336  1
  O  O372  1  0.12626452  0.37984676  0.63179012  1
  O  O373  1  0.12256019  0.87155899  0.14658669  1
  O  O374  1  0.13733435  0.86974389  0.63285494  1
  O  O375  1  0.62665088  0.38630638  0.12954848  1
  O  O376  1  0.63100859  0.37781647  0.63049161  1
  O  O377  1  0.63224526  0.87317277  0.13787867  1
  O  O378  1  0.63388248  0.87306326  0.63279716  1
  O  O379  1  0.12102900  0.25685275  0.25638778  1
  O  O380  1  0.11789412  0.25939872  0.76458907  1
  O  O381  1  0.12300010  0.74980577  0.26319781  1
  O  O382  1  0.13201672  0.76524779  0.75674855  1
  O  O383  1  0.62622125  0.26963101  0.24211277  1
  O  O384  1  0.63414115  0.25979161  0.76046882  1
  O  O385  1  0.61923402  0.75303470  0.25614676  1
  O  O386  1  0.62011904  0.75350279  0.75461924  1
  O  O387  1  0.37467129  0.25365618  0.23392142  1
  O  O388  1  0.37413737  0.24557933  0.75422980  1
  O  O389  1  0.38165003  0.74635352  0.24766318  1
  O  O390  1  0.37963714  0.74258220  0.74551556  1
  O  O391  1  0.88534596  0.25597714  0.24366804  1
  O  O392  1  0.86937758  0.23696758  0.75905870  1
  O  O393  1  0.87479047  0.74096260  0.24184014  1
  O  O394  1  0.87267095  0.75095267  0.73606600  1
  O  O395  1  0.38287690  0.49511873  0.49186679  1
  O  O396  1  0.37371661  0.50083068  0.98814326  1
  O  O397  1  0.38177346  0.98898133  0.49592829  1
  O  O398  1  0.38446887  0.99284785  0.98673126  1
  O  O399  1  0.88290213  0.49965668  0.49169400  1
  O  O400  1  0.87927113  0.49404090  0.99400915  1
  O  O401  1  0.88630954  0.99410041  0.50391854  1
  O  O402  1  0.88184840  0.99989813  0.99336435  1
  O  O403  1  0.10435035  0.01560429  -0.00878588  1
  O  O404  1  0.11763380  0.01054965  0.49772343  1
  O  O405  1  0.11511133  0.49852242  0.01129059  1
  O  O406  1  0.11954905  0.50261003  0.50562214  1
  O  O407  1  0.61579168  -0.00122515  -0.00210094  1
  O  O408  1  0.61651108  0.00446288  0.50486107  1
  O  O409  1  0.63165126  0.50588273  0.01009999  1
  O  O410  1  0.61895866  0.50193377  0.50060096  1
  O  O411  1  0.36154630  0.37353216  0.12172925  1
  O  O412  1  0.37208584  0.37640661  0.61156439  1
  O  O413  1  0.37194147  0.87089608  0.11557422  1
  O  O414  1  0.36529459  0.86800509  0.61791078  1
  O  O415  1  0.87420158  0.37019922  0.11691230  1
  O  O416  1  0.86683940  0.37932124  0.61531708  1
  O  O417  1  0.86754520  0.86816561  0.11998376  1
  O  O418  1  0.87000440  0.86397517  0.62540516  1
  O  O419  1  0.12561709  0.13308249  0.39153356  1
  O  O420  1  0.12967042  0.13415767  0.87617627  1
  O  O421  1  0.12561874  0.63266128  0.38232337  1
  O  O422  1  0.13708424  0.62451838  0.87084201  1
  O  O423  1  0.62212698  0.12085879  0.39340292  1
  O  O424  1  0.62311039  0.13825766  0.87713441  1
  O  O425  1  0.62544175  0.62886164  0.38121189  1
  O  O426  1  0.62963892  0.62930674  0.87849210  1
