# generated using pymatgen
data_V85Zn86O256
_symmetry_space_group_name_H-M   'P 1'
_cell_length_a   16.93418526
_cell_length_b   16.92948445
_cell_length_c   16.93165914
_cell_angle_alpha   89.97201353
_cell_angle_beta   89.98098775
_cell_angle_gamma   89.98974704
_symmetry_Int_Tables_number   1
_chemical_formula_structural   V85Zn86O256
_chemical_formula_sum   'V85 Zn86 O256'
_cell_volume   4854.08608125
_cell_formula_units_Z   1
loop_
 _symmetry_equiv_pos_site_id
 _symmetry_equiv_pos_as_xyz
  1  'x, y, z'
loop_
 _atom_site_type_symbol
 _atom_site_label
 _atom_site_symmetry_multiplicity
 _atom_site_fract_x
 _atom_site_fract_y
 _atom_site_fract_z
 _atom_site_occupancy
  V  V0  1  0.50032662  0.24445910  0.75203807  1
  V  V1  1  0.62897325  0.74999219  0.37530806  1
  V  V2  1  0.11945164  0.12266575  0.50661875  1
  V  V3  1  0.61493259  0.51467722  0.12171887  1
  V  V4  1  0.00001645  0.49834356  0.49090964  1
  V  V5  1  0.61729732  0.11681886  0.49941561  1
  V  V6  1  0.76997862  0.50262987  0.75197878  1
  V  V7  1  0.75414511  0.62534136  0.87841713  1
  V  V8  1  0.87595053  -0.00481037  0.87545968  1
  V  V9  1  0.62505306  0.00403519  0.12066614  1
  V  V10  1  0.11911518  0.37666019  0.25267762  1
  V  V11  1  0.75728658  0.87583133  0.11288496  1
  V  V12  1  0.49527916  0.74981781  0.24569749  1
  V  V13  1  0.37330144  0.86839923  0.50167592  1
  V  V14  1  0.75149236  0.37759494  0.61993778  1
  V  V15  1  0.00090288  0.87227093  0.88376522  1
  V  V16  1  0.49480996  0.25409733  0.24677279  1
  V  V17  1  0.24978068  0.00125359  0.25239325  1
  V  V18  1  0.74774891  0.12529762  0.37385063  1
  V  V19  1  0.37453583  0.37507468  0.00332371  1
  V  V20  1  0.12679685  0.13044423  -0.00199501  1
  V  V21  1  0.62585923  0.62597546  0.50273864  1
  V  V22  1  0.95045701  0.70696714  0.68341214  1
  V  V23  1  0.36563247  0.74266418  0.64367229  1
  V  V24  1  0.74740700  0.37323212  0.11606367  1
  V  V25  1  0.49896555  0.37976151  0.87436401  1
  V  V26  1  0.12465307  0.88208089  0.75327027  1
  V  V27  1  0.25992779  0.74556909  0.00615718  1
  V  V28  1  0.37240261  0.13079104  0.25013250  1
  V  V29  1  0.88093044  0.24565492  0.62179640  1
  V  V30  1  0.88097606  0.12095156  0.74595084  1
  V  V31  1  0.49281879  0.38613003  0.37394454  1
  V  V32  1  0.52265690  0.74627876  0.75616906  1
  V  V33  1  0.49385727  0.13020377  0.12248574  1
  V  V34  1  0.00432890  0.37994090  0.86847434  1
  V  V35  1  0.11862275  0.62514880  0.50273794  1
  V  V36  1  0.24985917  0.36849131  0.12525075  1
  V  V37  1  -0.00585475  0.25648554  0.25337837  1
  V  V38  1  0.37481373  0.62748588  0.24575049  1
  V  V39  1  0.25781397  0.87102433  0.12757309  1
  V  V40  1  0.25324918  0.49905758  0.25249452  1
  V  V41  1  0.88181320  0.74344760  0.10838307  1
  V  V42  1  0.50538216  0.87474225  0.87407685  1
  V  V43  1  0.11754626  0.50408275  0.12525764  1
  V  V44  1  0.37165417  0.38400681  0.49746322  1
  V  V45  1  -0.00902235  -0.00325075  0.50954893  1
  V  V46  1  0.49961909  0.88048307  0.37705760  1
  V  V47  1  0.24520579  0.37343372  0.63519248  1
  V  V48  1  0.75030891  0.50490845  0.25014539  1
  V  V49  1  0.49551553  0.12243700  0.62085440  1
  V  V50  1  0.87880428  0.37649656  0.48985649  1
  V  V51  1  0.75964719  0.76345406  0.51742419  1
  V  V52  1  0.87289979  0.12525390  0.24857619  1
  V  V53  1  0.37666074  0.00382442  0.38421593  1
  V  V54  1  0.25170702  0.50632273  0.74834890  1
  V  V55  1  -0.00335029  0.74360188  0.24619839  1
  V  V56  1  0.73170274  0.74247642  -0.00057535  1
  V  V57  1  -0.00952787  0.87470970  0.37832614  1
  V  V58  1  0.75410342  0.12633658  0.87904715  1
  V  V59  1  0.37477879  0.25016494  0.62929022  1
  V  V60  1  0.12380013  0.87556224  0.25179612  1
  V  V61  1  0.12445824  0.75072306  0.37887681  1
  V  V62  1  0.25527536  0.62219293  0.37609301  1
  V  V63  1  0.62559819  0.87587309  0.24650819  1
  V  V64  1  0.62523385  0.50203232  0.62673346  1
  V  V65  1  0.62725818  0.37446709  0.74828338  1
  V  V66  1  0.62782631  0.13127111  -0.00014159  1
  V  V67  1  0.62357940  0.37748863  0.24803039  1
  V  V68  1  0.00663604  0.25074227  0.74725926  1
  V  V69  1  0.74647553  0.25065725  0.50128729  1
  V  V70  1  0.11473921  0.62725974  0.00223054  1
  V  V71  1  0.75012125  -0.00028336  0.24655391  1
  V  V72  1  0.12520448  0.00087661  0.12683585  1
  V  V73  1  0.63643519  0.25653766  0.87733209  1
  V  V74  1  0.25957790  0.12764353  0.87347970  1
  V  V75  1  0.11893922  0.25317378  0.37666348  1
  V  V76  1  0.11850044  0.49607801  0.62837533  1
  V  V77  1  -0.00159224  0.12721116  0.12694245  1
  V  V78  1  -0.00467156  0.00089045  0.00257165  1
  V  V79  1  0.87162314  0.36933099  -0.00833769  1
  V  V80  1  0.24806248  0.25032161  0.50003005  1
  V  V81  1  0.25074784  0.62626030  0.86885580  1
  V  V82  1  -0.00875556  0.50353715  -0.00472810  1
  V  V83  1  0.12573800  0.75277089  0.87606773  1
  V  V84  1  0.26315392  0.00489533  0.74670776  1
  Zn  Zn85  1  0.25293444  0.25084975  0.00038189  1
  Zn  Zn86  1  0.37738879  -0.00012374  0.87699844  1
  Zn  Zn87  1  0.87131155  -0.00507698  0.37675392  1
  Zn  Zn88  1  0.49830293  0.50865741  -0.00123072  1
  Zn  Zn89  1  0.37514339  0.50335316  0.87103451  1
  Zn  Zn90  1  0.24565782  0.87516168  0.62468399  1
  Zn  Zn91  1  0.24704457  0.12521481  0.37701739  1
  Zn  Zn92  1  0.37550842  0.87697429  0.00282707  1
  Zn  Zn93  1  0.46487793  0.66130511  0.09089187  1
  Zn  Zn94  1  0.49554470  0.50567325  0.50067944  1
  Zn  Zn95  1  0.49236470  0.62026298  0.63802018  1
  Zn  Zn96  1  0.63722778  -0.02827947  0.62140135  1
  Zn  Zn97  1  0.12868186  0.25377734  0.86770563  1
  Zn  Zn98  1  0.87657603  0.62512732  0.24698393  1
  Zn  Zn99  1  0.24929743  0.74835652  0.50369374  1
  Zn  Zn100  1  0.75555284  0.62738449  0.37804624  1
  Zn  Zn101  1  0.87976992  0.50105140  0.36840008  1
  Zn  Zn102  1  0.62081987  0.25259392  0.37539631  1
  Zn  Zn103  1  0.86726913  0.24945407  0.12007640  1
  Zn  Zn104  1  0.75239079  -0.02675212  0.73672946  1
  Zn  Zn105  1  0.49684217  0.00141718  -0.00315369  1
  Zn  Zn106  1  0.11962293  0.00229999  0.62942298  1
  Zn  Zn107  1  0.18438533  0.18856318  0.18933693  1
  Zn  Zn108  1  0.18895994  0.18215346  0.68600150  1
  Zn  Zn109  1  0.18473776  0.68689582  0.18817735  1
  Zn  Zn110  1  0.16262318  0.69258554  0.68362857  1
  Zn  Zn111  1  0.68381769  0.19294111  0.18735508  1
  Zn  Zn112  1  0.68920588  0.11660039  0.68709528  1
  Zn  Zn113  1  0.68894866  0.68993444  0.18632839  1
  Zn  Zn114  1  0.69596247  0.68167143  0.68751283  1
  Zn  Zn115  1  0.30896357  0.31332242  0.31509088  1
  Zn  Zn116  1  0.31421528  0.31319022  0.81363311  1
  Zn  Zn117  1  0.31186220  0.81152796  0.31415261  1
  Zn  Zn118  1  0.31078454  0.82035246  0.81895324  1
  Zn  Zn119  1  0.80842563  0.31439965  0.31111940  1
  Zn  Zn120  1  0.81724794  0.31576180  0.80821093  1
  Zn  Zn121  1  0.81181061  0.81025833  0.30719693  1
  Zn  Zn122  1  0.81321309  0.80332754  0.80391340  1
  Zn  Zn123  1  0.18643041  0.43648648  0.43735783  1
  Zn  Zn124  1  0.18367079  0.43883567  0.93712880  1
  Zn  Zn125  1  0.18562261  0.93772842  0.43988171  1
  Zn  Zn126  1  0.19177174  0.94167696  0.94098674  1
  Zn  Zn127  1  0.68501390  0.43956749  0.43479201  1
  Zn  Zn128  1  0.68617333  0.45526138  0.93373647  1
  Zn  Zn129  1  0.68802595  0.93689002  0.43785059  1
  Zn  Zn130  1  0.71108632  0.90901748  0.90143567  1
  Zn  Zn131  1  0.31334946  0.06237640  0.06243469  1
  Zn  Zn132  1  0.31173633  0.06367059  0.56334509  1
  Zn  Zn133  1  0.30676438  0.55677299  0.06032975  1
  Zn  Zn134  1  0.30669251  0.56420377  0.56453699  1
  Zn  Zn135  1  0.81156250  0.06617656  0.05772359  1
  Zn  Zn136  1  0.81532480  0.06338577  0.55911323  1
  Zn  Zn137  1  0.81218232  0.56302523  0.06374527  1
  Zn  Zn138  1  0.82029780  0.57522631  0.56789429  1
  Zn  Zn139  1  0.43312447  0.44190353  0.18616460  1
  Zn  Zn140  1  0.43625045  0.43682127  0.68781584  1
  Zn  Zn141  1  0.43784484  0.94378558  0.19038959  1
  Zn  Zn142  1  0.46733058  0.91732394  0.67074145  1
  Zn  Zn143  1  0.93432511  0.43696703  0.18131960  1
  Zn  Zn144  1  0.94220078  0.43143310  0.67845333  1
  Zn  Zn145  1  0.93555472  0.93362346  0.18826904  1
  Zn  Zn146  1  0.93690747  0.91863699  0.69165171  1
  Zn  Zn147  1  0.05962918  0.06391750  0.31805801  1
  Zn  Zn148  1  0.06476705  0.06442835  0.81454902  1
  Zn  Zn149  1  0.06407426  0.56440137  0.31412570  1
  Zn  Zn150  1  0.06527758  0.56244752  0.80703486  1
  Zn  Zn151  1  0.56160212  0.06325081  0.31102827  1
  Zn  Zn152  1  0.56466108  0.05797294  0.81111336  1
  Zn  Zn153  1  0.56306011  0.56603302  0.31150411  1
  Zn  Zn154  1  0.57254395  0.56569349  0.81701302  1
  Zn  Zn155  1  0.43567600  0.19583532  0.43645892  1
  Zn  Zn156  1  0.43728469  0.19492009  0.93856116  1
  Zn  Zn157  1  0.43923171  0.68795285  0.43531707  1
  Zn  Zn158  1  0.43592287  0.68651025  0.92301204  1
  Zn  Zn159  1  0.93663607  0.18307892  0.43646532  1
  Zn  Zn160  1  0.94026623  0.19073375  0.93443048  1
  Zn  Zn161  1  0.93405165  0.68560568  0.43702464  1
  Zn  Zn162  1  0.94026539  0.67497897  0.85839876  1
  Zn  Zn163  1  0.05878750  0.31530132  0.06306773  1
  Zn  Zn164  1  0.06008867  0.31480649  0.56102029  1
  Zn  Zn165  1  0.06605014  0.81318238  0.06260167  1
  Zn  Zn166  1  0.03763091  0.81623187  0.58001833  1
  Zn  Zn167  1  0.56005920  0.31588032  0.06147845  1
  Zn  Zn168  1  0.56157441  0.31150965  0.56103188  1
  Zn  Zn169  1  0.56331062  0.81993989  0.05899660  1
  Zn  Zn170  1  0.55704250  0.80158038  0.56155436  1
  O  O171  1  0.11902709  0.11949367  0.12078334  1
  O  O172  1  0.12297121  0.12356066  0.61098940  1
  O  O173  1  0.12794342  0.61612414  0.11631537  1
  O  O174  1  0.14362783  0.60559278  0.60826549  1
  O  O175  1  0.61664431  0.12730136  0.11928289  1
  O  O176  1  0.60989311  0.13927068  0.60988738  1
  O  O177  1  0.62326100  0.61412837  0.12923300  1
  O  O178  1  0.62272441  0.61785955  0.61991778  1
  O  O179  1  0.38014006  0.37324719  0.38377908  1
  O  O180  1  0.38307967  0.37928993  0.88039011  1
  O  O181  1  0.37984268  0.88303169  0.37859120  1
  O  O182  1  0.38419288  0.87728093  0.88245500  1
  O  O183  1  0.86796836  0.37942918  0.38620843  1
  O  O184  1  0.88839963  0.37093082  0.88139538  1
  O  O185  1  0.88729834  0.87426540  0.36808811  1
  O  O186  1  0.88815230  0.88851842  0.87571100  1
  O  O187  1  0.25695721  0.00209637  0.36891451  1
  O  O188  1  0.25166135  0.00924506  0.86600407  1
  O  O189  1  0.24049933  0.50898979  0.36413223  1
  O  O190  1  0.24321822  0.50802854  0.86479880  1
  O  O191  1  0.74954370  0.00757779  0.36756344  1
  O  O192  1  0.76474407  0.01333878  0.88625883  1
  O  O193  1  0.74693181  0.50094721  0.35953912  1
  O  O194  1  0.76365602  0.48321331  0.85203441  1
  O  O195  1  0.23704298  0.49186560  0.13280598  1
  O  O196  1  0.24380008  0.49034174  0.62981851  1
  O  O197  1  0.24355654  0.99529914  0.13310119  1
  O  O198  1  0.24836765  0.99938317  0.63685483  1
  O  O199  1  0.73948965  0.49377649  0.13329921  1
  O  O200  1  0.74591578  0.50082361  0.63047116  1
  O  O201  1  0.74616098  0.99379970  0.12343626  1
  O  O202  1  0.74347530  1.01565501  0.62978492  1
  O  O203  1  0.00296575  0.36579033  0.24510862  1
  O  O204  1  -0.00481464  0.36538874  0.75638131  1
  O  O205  1  0.00610718  0.86779902  0.25703038  1
  O  O206  1  0.01679721  0.88762073  0.77252953  1
  O  O207  1  0.50074268  0.37216005  0.25350182  1
  O  O208  1  0.50660357  0.36953598  0.75549828  1
  O  O209  1  0.50312788  0.87047627  0.25783549  1
  O  O210  1  0.49311291  0.85820107  0.76610305  1
  O  O211  1  0.49358005  0.13503675  0.24531880  1
  O  O212  1  0.50440371  0.14079031  0.74411948  1
  O  O213  1  0.48781889  0.63431893  0.25608231  1
  O  O214  1  0.50654672  0.63896041  0.75788081  1
  O  O215  1  0.99200810  0.13089065  0.24654299  1
  O  O216  1  0.98770685  0.13154956  0.75653605  1
  O  O217  1  1.00328064  0.64047042  0.25116383  1
  O  O218  1  0.99786610  0.64004039  0.76105569  1
  O  O219  1  0.37150200  0.26828750  -0.00220888  1
  O  O220  1  0.36750506  0.26259951  0.50573892  1
  O  O221  1  0.36292450  0.74640162  0.00328267  1
  O  O222  1  0.37119659  0.75633345  0.50094093  1
  O  O223  1  0.88071040  0.26440005  0.00179405  1
  O  O224  1  0.87160135  0.25528140  0.50220258  1
  O  O225  1  0.87388128  0.74896901  0.01129053  1
  O  O226  1  0.85656472  0.74912398  0.49297075  1
  O  O227  1  0.12419212  0.24376251  0.49381379  1
  O  O228  1  0.12385960  0.23823227  1.00263495  1
  O  O229  1  0.12458124  0.74314923  0.48861090  1
  O  O230  1  0.13265895  0.74359808  0.99607649  1
  O  O231  1  0.63330845  0.24709029  0.49450743  1
  O  O232  1  0.61701878  0.24306597  0.99009500  1
  O  O233  1  0.63001216  0.74396458  0.49406002  1
  O  O234  1  0.63375083  0.74348307  1.00819320  1
  O  O235  1  0.50171834  0.24634430  0.13827412  1
  O  O236  1  0.49153942  0.25029841  0.63249410  1
  O  O237  1  0.50454775  0.75639638  0.13999710  1
  O  O238  1  0.48557784  0.74366997  0.64493310  1
  O  O239  1  0.99859347  0.24375778  0.13692291  1
  O  O240  1  0.98832037  0.25530101  0.62905050  1
  O  O241  1  0.98865721  0.76015371  0.13016788  1
  O  O242  1  1.04818323  0.71776148  0.63831686  1
  O  O243  1  0.00392748  0.24516557  0.36342939  1
  O  O244  1  0.00352361  0.25697543  0.86359360  1
  O  O245  1  0.00570471  0.75630667  0.36883161  1
  O  O246  1  0.01174422  0.76324726  0.89098259  1
  O  O247  1  0.49924790  0.26222534  0.36224733  1
  O  O248  1  0.50605529  0.26129178  0.86857354  1
  O  O249  1  0.51039592  0.75680817  0.36553209  1
  O  O250  1  0.50003285  0.75745824  0.86321677  1
  O  O251  1  0.23972203  0.13215449  0.49889041  1
  O  O252  1  0.24330873  0.12851986  0.99467191  1
  O  O253  1  0.24135249  0.62486970  0.48947286  1
  O  O254  1  0.23964917  0.62976415  0.99474526  1
  O  O255  1  0.74302675  0.13233821  0.49061578  1
  O  O256  1  0.74340678  0.13247470  0.99035919  1
  O  O257  1  0.73958539  0.63420100  0.50106341  1
  O  O258  1  0.75095996  0.63655296  0.99943925  1
  O  O259  1  0.25308640  0.37601791  0.00861522  1
  O  O260  1  0.25504076  0.37014905  0.50685541  1
  O  O261  1  0.24964446  0.86610270  0.01107758  1
  O  O262  1  0.26027010  0.87329422  0.50150614  1
  O  O263  1  0.75911686  0.38817991  0.00455552  1
  O  O264  1  0.75358857  0.36925197  0.50079677  1
  O  O265  1  0.74697863  0.85675365  0.00150411  1
  O  O266  1  0.74320905  0.86306552  0.50299964  1
  O  O267  1  0.12902736  0.49677794  0.24368651  1
  O  O268  1  0.13238068  0.49919513  0.73660482  1
  O  O269  1  0.12921634  0.99684938  0.24819703  1
  O  O270  1  0.13302502  0.99797417  0.74949054  1
  O  O271  1  0.62827541  0.49572061  0.24139762  1
  O  O272  1  0.63369106  0.49448501  0.73785015  1
  O  O273  1  0.63093114  0.99649038  0.24184751  1
  O  O274  1  0.63912682  1.02200635  0.73713816  1
  O  O275  1  0.37050254  0.01267042  0.26002450  1
  O  O276  1  0.36201030  -0.00382048  0.75076345  1
  O  O277  1  0.35977058  0.50663773  0.24959889  1
  O  O278  1  0.35732390  0.49714975  0.74858844  1
  O  O279  1  0.86741398  0.00722641  0.25015802  1
  O  O280  1  0.87528868  0.00256790  0.75507299  1
  O  O281  1  0.86502434  0.50107280  0.24643199  1
  O  O282  1  0.86723505  0.49941129  0.73355155  1
  O  O283  1  0.12672362  0.36141152  0.36960797  1
  O  O284  1  0.11001155  0.37012615  0.88091179  1
  O  O285  1  0.11861504  0.86732374  0.37087703  1
  O  O286  1  0.12279672  0.87140247  0.87753102  1
  O  O287  1  0.61655608  0.37648309  0.36206258  1
  O  O288  1  0.62016560  0.37278978  0.87189333  1
  O  O289  1  0.61647374  0.87189974  0.36914059  1
  O  O290  1  0.60346495  0.87550524  0.88848729  1
  O  O291  1  0.38573564  0.12275381  0.13486071  1
  O  O292  1  0.37744989  0.14405232  0.61525497  1
  O  O293  1  0.36747336  0.62154081  0.13956199  1
  O  O294  1  0.37373939  0.63966672  0.62056034  1
  O  O295  1  0.87840565  0.12944598  0.13030389  1
  O  O296  1  0.87244398  0.13439053  0.63272384  1
  O  O297  1  0.87401909  0.63999458  0.12646564  1
  O  O298  1  0.89510714  0.64478360  0.62698943  1
  O  O299  1  0.24346566  0.26480988  0.12623565  1
  O  O300  1  0.25433062  0.25617059  0.62191756  1
  O  O301  1  0.24220507  0.75979087  0.11933849  1
  O  O302  1  0.25552324  0.75257432  0.62510895  1
  O  O303  1  0.74604272  0.26827826  0.12708819  1
  O  O304  1  0.76094679  0.25416027  0.60873656  1
  O  O305  1  0.75679753  0.75537423  0.11464278  1
  O  O306  1  0.75181806  0.75164461  0.61780873  1
  O  O307  1  0.23901549  0.24828222  0.38231707  1
  O  O308  1  0.24617848  0.24358777  0.87520110  1
  O  O309  1  0.23969534  0.74256987  0.37489320  1
  O  O310  1  0.24457405  0.74575127  0.88665629  1
  O  O311  1  0.74779256  0.24330644  0.38294233  1
  O  O312  1  0.74093482  0.25031417  0.87199919  1
  O  O313  1  0.73630689  0.75331650  0.37460389  1
  O  O314  1  0.74740206  0.73332131  0.88733355  1
  O  O315  1  0.00675201  0.12081969  0.00587696  1
  O  O316  1  0.00476973  0.10759887  0.49327797  1
  O  O317  1  0.01222768  0.61752096  -0.00967795  1
  O  O318  1  0.01195907  0.61791457  0.49291033  1
  O  O319  1  0.50354608  0.13059847  0.00975297  1
  O  O320  1  0.50717507  0.13592111  0.50470401  1
  O  O321  1  0.49364839  0.62210687  -0.00646544  1
  O  O322  1  0.51323714  0.62536515  0.50055880  1
  O  O323  1  0.49109516  0.37577152  0.49049643  1
  O  O324  1  0.49224924  0.37975721  0.99238963  1
  O  O325  1  0.48660828  0.86611543  0.48312531  1
  O  O326  1  0.49324754  0.87630197  0.99182044  1
  O  O327  1  0.98971577  0.38314368  0.50002272  1
  O  O328  1  0.99237784  0.38283968  0.99299013  1
  O  O329  1  1.00674599  0.88703799  0.49163107  1
  O  O330  1  1.00981622  0.89032738  0.99580835  1
  O  O331  1  0.50274964  0.48972929  0.37652433  1
  O  O332  1  0.50010429  0.48839066  0.87042162  1
  O  O333  1  0.49044699  0.99187824  0.36873968  1
  O  O334  1  0.49712652  0.99002337  0.87229462  1
  O  O335  1  1.00108543  0.49949150  0.38540312  1
  O  O336  1  1.00635316  0.49296800  0.88281141  1
  O  O337  1  0.99748667  0.98987584  0.38229734  1
  O  O338  1  0.99600116  0.99872565  0.88587305  1
  O  O339  1  0.00334717  0.00499266  0.12062843  1
  O  O340  1  -0.00518110  -0.00909460  0.61253555  1
  O  O341  1  0.01128043  0.49559438  0.11596652  1
  O  O342  1  0.01281722  0.49448954  0.61260668  1
  O  O343  1  0.50776487  0.01280272  0.12733232  1
  O  O344  1  0.48120748  0.02432407  0.62847735  1
  O  O345  1  0.51022801  0.50333388  0.12832570  1
  O  O346  1  0.50874473  0.50268652  0.62457350  1
  O  O347  1  0.24286038  0.38216728  0.24566544  1
  O  O348  1  0.24971539  0.37889211  0.73923036  1
  O  O349  1  0.24360392  0.87972979  0.24659293  1
  O  O350  1  0.24135997  0.89048787  0.75355753  1
  O  O351  1  0.73937244  0.38188454  0.24332152  1
  O  O352  1  0.74831683  0.38133479  0.73763031  1
  O  O353  1  0.74427807  0.88082995  0.23906164  1
  O  O354  1  0.73989520  0.88014257  0.79362977  1
  O  O355  1  0.25716132  0.12184111  0.25145950  1
  O  O356  1  0.24801046  0.11374225  0.75734262  1
  O  O357  1  0.25273109  0.61897794  0.25591375  1
  O  O358  1  0.23438244  0.61792014  0.75730068  1
  O  O359  1  0.75120031  0.12213834  0.25470876  1
  O  O360  1  0.76883467  0.13392394  0.76711123  1
  O  O361  1  0.75036339  0.61759521  0.25102579  1
  O  O362  1  0.75031776  0.61227007  0.76326219  1
  O  O363  1  0.37406180  0.11964865  0.37035263  1
  O  O364  1  0.36316726  0.12690007  0.87983383  1
  O  O365  1  0.36154972  0.62891189  0.36683133  1
  O  O366  1  0.35487102  0.62198215  0.87328477  1
  O  O367  1  0.86053252  0.12316544  0.36888974  1
  O  O368  1  0.87274689  0.11812912  0.87174615  1
  O  O369  1  0.87202128  0.61961284  0.36735497  1
  O  O370  1  0.85332221  0.60731017  0.88975831  1
  O  O371  1  0.12914448  0.38223420  0.13194075  1
  O  O372  1  0.13562035  0.38238926  0.61626031  1
  O  O373  1  0.13310727  0.88249504  0.13271437  1
  O  O374  1  0.12434529  0.87863017  0.64036384  1
  O  O375  1  0.62639028  0.38100055  0.13510157  1
  O  O376  1  0.63164115  0.38174444  0.62631624  1
  O  O377  1  0.63575914  0.88272140  0.12693815  1
  O  O378  1  0.57162502  0.88588223  0.62926392  1
  O  O379  1  0.11540812  0.25393504  0.25828438  1
  O  O380  1  0.11027621  0.24248015  0.74453472  1
  O  O381  1  0.11852581  0.75547661  0.25855135  1
  O  O382  1  0.13659529  0.76549182  0.77039049  1
  O  O383  1  0.61450016  0.26071464  0.25277265  1
  O  O384  1  0.61724059  0.26036933  0.76178139  1
  O  O385  1  0.62014827  0.75712602  0.25610896  1
  O  O386  1  0.62041165  0.74844683  0.74716435  1
  O  O387  1  0.37840039  0.23901564  0.25547370  1
  O  O388  1  0.38536552  0.25782810  0.74051538  1
  O  O389  1  0.38332364  0.74216356  0.25506898  1
  O  O390  1  0.36420628  0.74917528  0.74303252  1
  O  O391  1  0.87903848  0.24535615  0.24857984  1
  O  O392  1  0.88326817  0.24403299  0.73944503  1
  O  O393  1  0.88307145  0.75016394  0.23909380  1
  O  O394  1  0.88914933  0.73474859  0.77082754  1
  O  O395  1  0.37476872  0.48833791  0.50707379  1
  O  O396  1  0.37406305  0.48962091  0.99440881  1
  O  O397  1  0.36984236  0.99319229  0.48902264  1
  O  O398  1  0.37878246  0.99824508  0.99797182  1
  O  O399  1  0.88309897  0.49522860  0.50237775  1
  O  O400  1  0.88814417  0.49221940  1.01005129  1
  O  O401  1  0.88661156  1.00041560  0.49552989  1
  O  O402  1  0.88851641  1.00668034  0.99418136  1
  O  O403  1  0.11922375  0.01288327  0.00612835  1
  O  O404  1  0.11541957  0.00677526  0.50235684  1
  O  O405  1  0.11754277  0.50697036  0.00768007  1
  O  O406  1  0.11784746  0.50419915  0.50247359  1
  O  O407  1  0.61852360  0.02179543  0.00592549  1
  O  O408  1  0.62625795  0.01377544  0.50112747  1
  O  O409  1  0.61967758  0.49209375  0.02048606  1
  O  O410  1  0.62599984  0.50681614  0.51060401  1
  O  O411  1  0.36216628  0.38272346  0.11810126  1
  O  O412  1  0.36691113  0.36750677  0.61848955  1
  O  O413  1  0.36102701  0.88123696  0.12977039  1
  O  O414  1  0.37522156  0.86009137  0.61669513  1
  O  O415  1  0.86319341  0.37299040  0.11503441  1
  O  O416  1  0.86864663  0.36672768  0.61141523  1
  O  O417  1  0.86169819  0.86732374  0.12638718  1
  O  O418  1  0.93642083  0.81367951  0.64545971  1
  O  O419  1  0.12453778  0.13608135  0.38386306  1
  O  O420  1  0.13487740  0.12829940  0.88412433  1
  O  O421  1  0.13328833  0.63272502  0.37976476  1
  O  O422  1  0.13131950  0.63499262  0.88240753  1
  O  O423  1  0.63255737  0.12763306  0.37844549  1
  O  O424  1  0.63427298  0.13453810  0.88123931  1
  O  O425  1  0.62783367  0.63420255  0.38239055  1
  O  O426  1  0.65825996  0.58252623  0.89084248  1
