# generated using pymatgen
data_V85Zn86O256
_symmetry_space_group_name_H-M   'P 1'
_cell_length_a   16.93613795
_cell_length_b   16.92441881
_cell_length_c   16.94348864
_cell_angle_alpha   89.96957163
_cell_angle_beta   89.98670457
_cell_angle_gamma   90.01866087
_symmetry_Int_Tables_number   1
_chemical_formula_structural   V85Zn86O256
_chemical_formula_sum   'V85 Zn86 O256'
_cell_volume   4856.58379110
_cell_formula_units_Z   1
loop_
 _symmetry_equiv_pos_site_id
 _symmetry_equiv_pos_as_xyz
  1  'x, y, z'
loop_
 _atom_site_type_symbol
 _atom_site_label
 _atom_site_symmetry_multiplicity
 _atom_site_fract_x
 _atom_site_fract_y
 _atom_site_fract_z
 _atom_site_occupancy
  V  V0  1  0.88597146  0.12748215  0.24681191  1
  V  V1  1  0.37256350  -0.00102571  0.87897178  1
  V  V2  1  0.24470746  0.37677997  0.63696329  1
  V  V3  1  0.48688359  0.74508032  0.24988072  1
  V  V4  1  0.37538469  0.25009950  0.62337469  1
  V  V5  1  0.62344139  0.87773841  0.25208802  1
  V  V6  1  0.62420546  0.62304409  0.00193709  1
  V  V7  1  0.00018621  0.63907388  0.62584666  1
  V  V8  1  0.50050936  0.87724018  0.38387391  1
  V  V9  1  0.24839254  -0.00962032  0.25228336  1
  V  V10  1  0.74822422  0.88240398  0.62419657  1
  V  V11  1  -0.00861344  0.86828951  0.87289914  1
  V  V12  1  0.67148461  -0.05335281  0.08326555  1
  V  V13  1  0.00990821  0.87407562  0.37714817  1
  V  V14  1  0.75068398  0.49877051  0.74884181  1
  V  V15  1  0.25359651  0.26286338  0.00445595  1
  V  V16  1  0.62475526  0.49726012  0.62680717  1
  V  V17  1  0.11986728  -0.00007741  0.13185789  1
  V  V18  1  0.37162577  0.50044479  0.36344022  1
  V  V19  1  -0.00190437  0.62900809  0.12738909  1
  V  V20  1  0.62507857  0.74695658  0.87305790  1
  V  V21  1  0.12485834  0.25366511  0.87415959  1
  V  V22  1  0.49329078  0.73987348  0.74944406  1
  V  V23  1  0.49305844  0.37580689  0.88392722  1
  V  V24  1  0.50515641  0.24817098  0.25655559  1
  V  V25  1  0.75186355  0.62618130  0.37503941  1
  V  V26  1  0.87765269  0.50141059  0.37195181  1
  V  V27  1  0.87788342  0.49906174  0.87302767  1
  V  V28  1  0.50480004  0.25702080  0.74701311  1
  V  V29  1  0.62548975  0.74772259  0.37701849  1
  V  V30  1  0.00711917  0.24987624  0.74275696  1
  V  V31  1  0.75323127  0.24694382  0.00186971  1
  V  V32  1  0.62249508  0.11309588  0.50331295  1
  V  V33  1  0.00132527  0.01634184  0.50483715  1
  V  V34  1  0.87924020  0.12502590  0.74612459  1
  V  V35  1  0.75236486  0.50243356  0.24536798  1
  V  V36  1  0.74120856  0.13196824  0.37266039  1
  V  V37  1  0.62379912  0.49811019  0.12662697  1
  V  V38  1  0.37268421  0.26169084  0.12319700  1
  V  V39  1  0.88488216  0.63561137  0.74742588  1
  V  V40  1  0.00170677  0.37762004  0.86913484  1
  V  V41  1  0.13681112  0.49817098  0.12699861  1
  V  V42  1  0.37707478  0.12533969  0.75054332  1
  V  V43  1  0.13029313  0.75241822  0.86790429  1
  V  V44  1  0.49995357  0.12175664  0.12571715  1
  V  V45  1  0.87481971  0.00245408  0.37994476  1
  V  V46  1  0.14155663  0.37470175  0.24343368  1
  V  V47  1  0.75083934  0.37456820  0.62822881  1
  V  V48  1  0.74734468  -0.00326428  0.25281902  1
  V  V49  1  0.88985052  0.24290936  0.12429771  1
  V  V50  1  0.74083383  0.25310187  0.49661370  1
  V  V51  1  0.37557764  0.87337277  0.50681202  1
  V  V52  1  0.49606639  0.87270135  0.87557330  1
  V  V53  1  0.87708633  0.37824119  0.00085735  1
  V  V54  1  0.12888966  0.62064174  0.49741019  1
  V  V55  1  0.24806745  0.12516405  0.88033359  1
  V  V56  1  0.62188808  0.88049211  0.74341337  1
  V  V57  1  0.37872545  0.00208480  0.38330971  1
  V  V58  1  0.48577032  0.62457297  0.12845846  1
  V  V59  1  0.37178364  0.37617249  0.50051464  1
  V  V60  1  0.87936191  0.24730874  0.62060186  1
  V  V61  1  0.12026177  0.01375563  0.62277875  1
  V  V62  1  0.75390742  0.74857293  0.50772597  1
  V  V63  1  0.50485540  0.11351122  0.62391918  1
  V  V64  1  0.24130846  0.24958335  0.49960691  1
  V  V65  1  0.12658733  0.62654501  -0.00117737  1
  V  V66  1  0.75309594  0.62556419  0.87410679  1
  V  V67  1  0.25246988  0.62239264  0.36014422  1
  V  V68  1  0.11808303  0.24753981  0.36806746  1
  V  V69  1  0.24579057  0.12518793  0.37848208  1
  V  V70  1  0.87949754  0.87207829  0.50697554  1
  V  V71  1  0.00428635  0.00284638  -0.00134968  1
  V  V72  1  0.24630457  -0.00383252  0.75031801  1
  V  V73  1  0.25125125  0.74687529  0.00783800  1
  V  V74  1  0.35743521  0.50392887  0.87424687  1
  V  V75  1  0.87582409  0.00135159  0.87582479  1
  V  V76  1  0.37273401  0.86979265  0.01228034  1
  V  V77  1  0.12077287  0.49145191  0.63566515  1
  V  V78  1  0.62752683  0.37091925  0.25951057  1
  V  V79  1  0.62713508  0.25892203  0.87170854  1
  V  V80  1  0.37552015  0.12436191  0.24983798  1
  V  V81  1  0.49793106  0.50021905  0.50073784  1
  V  V82  1  0.00031859  0.37473876  0.36230234  1
  V  V83  1  0.62543301  0.12933862  0.00238025  1
  V  V84  1  0.49755754  -0.00057841  0.00525881  1
  Zn  Zn85  1  0.12913684  0.75054545  0.37003312  1
  Zn  Zn86  1  0.85830641  0.79517838  0.12554247  1
  Zn  Zn87  1  0.00021055  0.49775480  0.49718805  1
  Zn  Zn88  1  0.25154419  0.74705558  0.49985615  1
  Zn  Zn89  1  0.36970753  0.74055720  0.62771926  1
  Zn  Zn90  1  0.24470022  0.86855429  0.13289441  1
  Zn  Zn91  1  0.62362145  0.62402821  0.50297299  1
  Zn  Zn92  1  0.87648379  0.64042321  0.24886884  1
  Zn  Zn93  1  0.33210584  0.60432204  0.74665922  1
  Zn  Zn94  1  0.50239657  0.37125301  0.37820596  1
  Zn  Zn95  1  0.74896033  0.77892833  0.00144906  1
  Zn  Zn96  1  0.12181023  0.12962616  0.00956519  1
  Zn  Zn97  1  0.24435657  0.87543908  0.62142554  1
  Zn  Zn98  1  0.11361657  0.87477539  0.74301927  1
  Zn  Zn99  1  0.49372964  0.49525096  0.00277851  1
  Zn  Zn100  1  0.00245629  0.49964333  0.00095027  1
  Zn  Zn101  1  0.75407610  0.37194663  0.12710217  1
  Zn  Zn102  1  0.00485197  0.76196252  0.24256590  1
  Zn  Zn103  1  0.87741372  0.37408563  0.49565824  1
  Zn  Zn104  1  0.49141216  0.61939999  0.62964139  1
  Zn  Zn105  1  0.75008697  0.12791056  0.86994675  1
  Zn  Zn106  1  0.74615712  0.00681970  0.74379548  1
  Zn  Zn107  1  0.18830655  0.18531608  0.18968754  1
  Zn  Zn108  1  0.19005907  0.18847781  0.69067592  1
  Zn  Zn109  1  0.18047106  0.69117831  0.18943775  1
  Zn  Zn110  1  0.18634512  0.69339097  0.67981973  1
  Zn  Zn111  1  0.69118500  0.18637886  0.18372736  1
  Zn  Zn112  1  0.68770151  0.18835750  0.68526080  1
  Zn  Zn113  1  0.68211955  0.68910795  0.18950675  1
  Zn  Zn114  1  0.68614733  0.68584729  0.68750536  1
  Zn  Zn115  1  0.31587688  0.31107109  0.31321110  1
  Zn  Zn116  1  0.31605853  0.31251854  0.81528438  1
  Zn  Zn117  1  0.31252891  0.81112786  0.32035097  1
  Zn  Zn118  1  0.31079716  0.81124482  0.81543324  1
  Zn  Zn119  1  0.81407113  0.31145174  0.30951267  1
  Zn  Zn120  1  0.81526435  0.31119763  0.80971808  1
  Zn  Zn121  1  0.81855791  0.81430255  0.31451046  1
  Zn  Zn122  1  0.81140437  0.81416788  0.81057310  1
  Zn  Zn123  1  0.18706706  0.43766715  0.43672915  1
  Zn  Zn124  1  0.18288039  0.43650757  0.93893132  1
  Zn  Zn125  1  0.18913418  0.94346957  0.44578221  1
  Zn  Zn126  1  0.18364926  0.93341125  0.94139260  1
  Zn  Zn127  1  0.68923087  0.43921679  0.43834754  1
  Zn  Zn128  1  0.68825623  0.43670407  0.93948443  1
  Zn  Zn129  1  0.68923259  0.93721676  0.43856126  1
  Zn  Zn130  1  0.68318379  0.94412507  0.91542036  1
  Zn  Zn131  1  0.30936916  0.06310265  0.06653789  1
  Zn  Zn132  1  0.31135978  0.06357869  0.56337878  1
  Zn  Zn133  1  0.31016378  0.55733180  0.05272505  1
  Zn  Zn134  1  0.30828678  0.56035514  0.56409275  1
  Zn  Zn135  1  0.84251941  0.01463124  0.08647133  1
  Zn  Zn136  1  0.81160392  0.06518676  0.56165083  1
  Zn  Zn137  1  0.81064006  0.64517054  0.06537406  1
  Zn  Zn138  1  0.81780865  0.56382782  0.56153232  1
  Zn  Zn139  1  0.44085707  0.43523524  0.18816704  1
  Zn  Zn140  1  0.43555299  0.43548661  0.69113991  1
  Zn  Zn141  1  0.43869635  0.93738975  0.19216406  1
  Zn  Zn142  1  0.43686748  0.93578830  0.69198253  1
  Zn  Zn143  1  0.94258221  0.44065205  0.18422810  1
  Zn  Zn144  1  0.93888467  0.43793767  0.68660839  1
  Zn  Zn145  1  0.94471177  0.94275810  0.19540193  1
  Zn  Zn146  1  0.93810051  0.93759623  0.68689120  1
  Zn  Zn147  1  0.06456904  0.05846240  0.31624041  1
  Zn  Zn148  1  0.06136757  0.06532853  0.81169493  1
  Zn  Zn149  1  0.06648270  0.56121808  0.30643776  1
  Zn  Zn150  1  0.11927510  0.58371898  0.79226131  1
  Zn  Zn151  1  0.56339085  0.06188151  0.31625450  1
  Zn  Zn152  1  0.56055984  0.06559410  0.81508896  1
  Zn  Zn153  1  0.56011027  0.56198848  0.31340970  1
  Zn  Zn154  1  0.56488697  0.55674826  0.81201425  1
  Zn  Zn155  1  0.43807483  0.18658104  0.44059553  1
  Zn  Zn156  1  0.43668385  0.18981070  0.93901372  1
  Zn  Zn157  1  0.43570270  0.68483232  0.43854905  1
  Zn  Zn158  1  0.43261699  0.68016159  0.93533884  1
  Zn  Zn159  1  0.93199150  0.19205449  0.43189346  1
  Zn  Zn160  1  0.93904353  0.18501813  0.93579189  1
  Zn  Zn161  1  0.93867976  0.68728532  0.44064266  1
  Zn  Zn162  1  0.93690092  0.69108376  0.94343250  1
  Zn  Zn163  1  0.06528227  0.31290965  0.06109336  1
  Zn  Zn164  1  0.05984942  0.31434375  0.55448370  1
  Zn  Zn165  1  0.06206997  0.81766612  0.05915761  1
  Zn  Zn166  1  0.06981504  0.81541550  0.55732318  1
  Zn  Zn167  1  0.56247844  0.31108107  0.06797983  1
  Zn  Zn168  1  0.56430528  0.31405616  0.56356163  1
  Zn  Zn169  1  0.55390215  0.80130091  0.05996274  1
  Zn  Zn170  1  0.56105202  0.80941141  0.56528264  1
  O  O171  1  0.13467511  0.10743460  0.12448104  1
  O  O172  1  0.12825713  0.11316672  0.62938128  1
  O  O173  1  0.11777324  0.61813545  0.11900510  1
  O  O174  1  0.11484519  0.61289024  0.61736232  1
  O  O175  1  0.61712774  0.13344353  0.11009101  1
  O  O176  1  0.61711339  0.12776881  0.61706530  1
  O  O177  1  0.61967272  0.61362671  0.11899929  1
  O  O178  1  0.62540587  0.60995597  0.62287132  1
  O  O179  1  0.37554321  0.38477657  0.38194045  1
  O  O180  1  0.38804860  0.38036020  0.87428943  1
  O  O181  1  0.38237954  0.88169365  0.38542071  1
  O  O182  1  0.37966517  0.88142753  0.88311815  1
  O  O183  1  0.88269510  0.38132408  0.37100502  1
  O  O184  1  0.88128607  0.37652360  0.88050816  1
  O  O185  1  0.88046001  0.88431433  0.38888717  1
  O  O186  1  0.88300842  0.88253277  0.87287445  1
  O  O187  1  0.25431376  0.00732105  0.37133107  1
  O  O188  1  0.25026464  0.00650289  0.87056662  1
  O  O189  1  0.26331800  0.50641397  0.37738129  1
  O  O190  1  0.25820872  0.49259870  0.87440845  1
  O  O191  1  0.75432177  0.00864160  0.37024964  1
  O  O192  1  0.76112638  0.00638998  0.86544626  1
  O  O193  1  0.75555876  0.50518494  0.36586549  1
  O  O194  1  0.75576570  0.50153336  0.86570982  1
  O  O195  1  0.23664308  0.50215475  0.11982348  1
  O  O196  1  0.23275665  0.48974204  0.62136150  1
  O  O197  1  0.24540034  0.99610765  0.13752417  1
  O  O198  1  0.24065896  1.00144307  0.63303815  1
  O  O199  1  0.74201470  0.49833808  0.13908477  1
  O  O200  1  0.74819201  0.49397706  0.62840964  1
  O  O201  1  0.73592358  1.01200660  0.13645533  1
  O  O202  1  0.75154964  0.98762236  0.62507161  1
  O  O203  1  0.00737888  0.37543654  0.25835475  1
  O  O204  1  -0.00912226  0.36400125  0.76164768  1
  O  O205  1  -0.00005235  0.88356332  0.27357672  1
  O  O206  1  -0.00228776  0.87951056  0.76750409  1
  O  O207  1  0.50971332  0.36563654  0.25228600  1
  O  O208  1  0.49870682  0.36185272  0.75975333  1
  O  O209  1  0.50625234  0.86834620  0.26133256  1
  O  O210  1  0.50483738  0.86515935  0.75521122  1
  O  O211  1  0.49811162  0.12930387  0.24559902  1
  O  O212  1  0.49644619  0.13460801  0.74530311  1
  O  O213  1  0.50510839  0.63316118  0.24174328  1
  O  O214  1  0.50868271  0.63609368  0.75108328  1
  O  O215  1  0.98386947  0.11980281  0.25867933  1
  O  O216  1  0.98883128  0.13563423  0.75155172  1
  O  O217  1  1.00127479  0.62689835  0.23711017  1
  O  O218  1  0.99983690  0.62058495  0.73272548  1
  O  O219  1  0.36671505  0.24455712  0.01084088  1
  O  O220  1  0.36620864  0.25732869  0.50293074  1
  O  O221  1  0.36425504  0.75718303  -0.00977108  1
  O  O222  1  0.37632785  0.75943417  0.50276738  1
  O  O223  1  0.86964637  0.25309899  0.00356236  1
  O  O224  1  0.86405465  0.25099480  0.50588826  1
  O  O225  1  0.86082988  0.74068386  0.01110394  1
  O  O226  1  0.86545090  0.75955508  0.49637168  1
  O  O227  1  0.13623510  0.25397649  0.48865245  1
  O  O228  1  0.13349068  0.24670939  0.99270654  1
  O  O229  1  0.12561000  0.73446908  0.49207548  1
  O  O230  1  0.13136965  0.74651780  0.99401912  1
  O  O231  1  0.63715253  0.24470347  0.50444162  1
  O  O232  1  0.63166303  0.24738484  0.99527294  1
  O  O233  1  0.63066342  0.74882055  0.48992989  1
  O  O234  1  0.62666168  0.74133376  0.99077432  1
  O  O235  1  0.49268104  0.24208929  0.13365568  1
  O  O236  1  0.49526381  0.24787399  0.63258321  1
  O  O237  1  0.50311992  0.73717640  0.13751457  1
  O  O238  1  0.49550340  0.74467786  0.63533341  1
  O  O239  1  0.98907113  0.24342717  0.11483248  1
  O  O240  1  0.99280429  0.25737235  0.63067522  1
  O  O241  1  1.00317334  0.73723033  0.12083096  1
  O  O242  1  1.00713435  0.73770929  0.62132926  1
  O  O243  1  0.01197327  0.25539149  0.37645162  1
  O  O244  1  0.00827106  0.25361445  0.86729002  1
  O  O245  1  -0.00286969  0.76797005  0.38002162  1
  O  O246  1  0.00497157  0.76506149  0.88361995  1
  O  O247  1  0.49433521  0.24979835  0.36066953  1
  O  O248  1  0.50424190  0.25869344  0.86995981  1
  O  O249  1  0.50818999  0.75356456  0.37147929  1
  O  O250  1  0.50817511  0.75162862  0.87052645  1
  O  O251  1  0.25643446  0.13360553  0.48685693  1
  O  O252  1  0.25019750  0.12806447  0.98777207  1
  O  O253  1  0.24191182  0.62341108  0.49286712  1
  O  O254  1  0.23579839  0.63203992  0.99962605  1
  O  O255  1  0.74307639  0.13237167  0.49316600  1
  O  O256  1  0.74110322  0.13889857  0.99437974  1
  O  O257  1  0.75054235  0.63282256  0.49446293  1
  O  O258  1  0.73379624  0.61294206  0.98798265  1
  O  O259  1  0.24842779  0.36179040  -0.00253819  1
  O  O260  1  0.25463466  0.36694859  0.50458762  1
  O  O261  1  0.25807767  0.86772592  0.00301298  1
  O  O262  1  0.26156888  0.87249319  0.49795582  1
  O  O263  1  0.75786735  0.36424487  0.00148975  1
  O  O264  1  0.75203942  0.36960781  0.50797832  1
  O  O265  1  0.72825610  0.89338516  0.01025771  1
  O  O266  1  0.75616316  0.86947591  0.50600248  1
  O  O267  1  0.12556294  0.48425796  0.24235081  1
  O  O268  1  0.11321853  0.48643313  0.73460900  1
  O  O269  1  0.13272893  1.00203958  0.24176215  1
  O  O270  1  0.13009505  1.00070216  0.74183466  1
  O  O271  1  0.63032574  0.49372045  0.24572219  1
  O  O272  1  0.64168353  0.50217287  0.74298986  1
  O  O273  1  0.62908695  0.98669290  0.25468571  1
  O  O274  1  0.62478374  0.98514984  0.76078999  1
  O  O275  1  0.36858453  0.00407697  0.26177117  1
  O  O276  1  0.36742683  0.00548061  0.75800607  1
  O  O277  1  0.38071672  0.49548962  0.26532105  1
  O  O278  1  0.37776843  0.49546804  0.76745313  1
  O  O279  1  0.86551426  0.01138508  0.25938552  1
  O  O280  1  0.87651196  0.00962244  0.75546411  1
  O  O281  1  0.86683724  0.49827171  0.25778457  1
  O  O282  1  0.86671168  0.50703664  0.75224415  1
  O  O283  1  0.12199204  0.36948114  0.36289815  1
  O  O284  1  0.11689350  0.36251244  0.87705957  1
  O  O285  1  0.11208938  0.87680461  0.38882529  1
  O  O286  1  0.11422171  0.86637667  0.87355248  1
  O  O287  1  0.62363095  0.37911096  0.36337983  1
  O  O288  1  0.61660692  0.36389015  0.87827157  1
  O  O289  1  0.61873146  0.86924711  0.37198823  1
  O  O290  1  0.61568022  0.86456399  0.86781917  1
  O  O291  1  0.38164113  0.12817137  0.13322067  1
  O  O292  1  0.38120557  0.13206827  0.62945355  1
  O  O293  1  0.38758540  0.61642669  0.11607577  1
  O  O294  1  0.37256538  0.62037530  0.63692234  1
  O  O295  1  0.87149265  0.12360527  0.14054872  1
  O  O296  1  0.87087601  0.13898385  0.62916826  1
  O  O297  1  0.89410204  0.61030137  0.13153810  1
  O  O298  1  0.89156722  0.61999552  0.63098645  1
  O  O299  1  0.26043436  0.24155469  0.11614932  1
  O  O300  1  0.25341545  0.25244821  0.61553258  1
  O  O301  1  0.24616828  0.75094185  0.11284479  1
  O  O302  1  0.25295658  0.75830915  0.61872967  1
  O  O303  1  0.76058645  0.25078171  0.11552956  1
  O  O304  1  0.75598865  0.25860394  0.61898900  1
  O  O305  1  0.75226514  0.73730701  0.11631551  1
  O  O306  1  0.74281817  0.75734671  0.61211166  1
  O  O307  1  0.24320059  0.24380683  0.37949856  1
  O  O308  1  0.24523207  0.24415389  0.88005869  1
  O  O309  1  0.25224822  0.73315503  0.37837490  1
  O  O310  1  0.23401914  0.75802854  0.88484053  1
  O  O311  1  0.75385203  0.24362112  0.38316210  1
  O  O312  1  0.74249017  0.25170618  0.87963717  1
  O  O313  1  0.74411637  0.74754602  0.38287720  1
  O  O314  1  0.73806163  0.74875210  0.87789043  1
  O  O315  1  0.00612321  0.10989201  -0.01030917  1
  O  O316  1  -0.00839635  0.11506606  0.49367501  1
  O  O317  1  0.00874827  0.62386001  0.01068597  1
  O  O318  1  0.00502881  0.62100244  0.50899269  1
  O  O319  1  0.50580590  0.12004822  0.00418163  1
  O  O320  1  0.51024525  0.13243916  0.51096238  1
  O  O321  1  0.51067542  0.62388285  0.00585464  1
  O  O322  1  0.49971344  0.61111928  0.50421933  1
  O  O323  1  0.49343196  0.38256654  0.49880467  1
  O  O324  1  0.50206725  0.37061878  0.98701231  1
  O  O325  1  0.49639829  0.87111963  0.48958949  1
  O  O326  1  0.49306543  0.87755263  0.99580591  1
  O  O327  1  0.99782090  0.37714545  0.48054173  1
  O  O328  1  0.99341314  0.37077944  0.98782644  1
  O  O329  1  0.99331833  0.88419310  0.49676776  1
  O  O330  1  1.00349014  0.88980818  0.98536091  1
  O  O331  1  0.48946992  0.49880603  0.38353102  1
  O  O332  1  0.50583518  0.48207183  0.87587338  1
  O  O333  1  0.49052792  0.98994254  0.37060377  1
  O  O334  1  0.49393608  0.99466623  0.88412240  1
  O  O335  1  0.99238149  0.49490138  0.37099969  1
  O  O336  1  0.99302305  0.48770098  0.87805441  1
  O  O337  1  0.99651209  0.99327654  0.38643938  1
  O  O338  1  0.99599386  0.99264562  0.87770237  1
  O  O339  1  0.01274022  0.00167958  0.11801772  1
  O  O340  1  0.01106790  0.00150305  0.62027231  1
  O  O341  1  0.01250824  0.50883357  0.12171362  1
  O  O342  1  0.01003306  0.49764667  0.61761672  1
  O  O343  1  0.49749766  0.00754506  0.11941979  1
  O  O344  1  0.49653998  0.01465633  0.63329846  1
  O  O345  1  0.50738958  0.50500029  0.12467910  1
  O  O346  1  0.50836177  0.49608435  0.62102468  1
  O  O347  1  0.24018491  0.37247848  0.25092423  1
  O  O348  1  0.25055037  0.36195796  0.73539203  1
  O  O349  1  0.25598725  0.88660954  0.25432872  1
  O  O350  1  0.24963990  0.88982915  0.75171857  1
  O  O351  1  0.74382293  0.38139176  0.24808374  1
  O  O352  1  0.75751937  0.38200751  0.73649999  1
  O  O353  1  0.74227598  0.88840824  0.25789783  1
  O  O354  1  0.74137624  0.87501287  0.74030038  1
  O  O355  1  0.25752736  0.11769182  0.26211226  1
  O  O356  1  0.25576952  0.11729493  0.76077904  1
  O  O357  1  0.24861000  0.62389574  0.26173028  1
  O  O358  1  0.22185028  0.62184322  0.75612939  1
  O  O359  1  0.74799451  0.11604572  0.25780920  1
  O  O360  1  0.76226908  0.12683530  0.74860784  1
  O  O361  1  0.75163635  0.61834969  0.25699678  1
  O  O362  1  0.75847826  0.61889241  0.75470076  1
  O  O363  1  0.37097367  0.11825196  0.37118060  1
  O  O364  1  0.36881923  0.11976785  0.87105002  1
  O  O365  1  0.36469915  0.61127493  0.37914486  1
  O  O366  1  0.37451694  0.60810430  0.86681433  1
  O  O367  1  0.86219729  0.12366800  0.36540243  1
  O  O368  1  0.87381457  0.12050734  0.86342572  1
  O  O369  1  0.87137350  0.61943558  0.36967356  1
  O  O370  1  0.87342361  0.61770584  0.86948264  1
  O  O371  1  0.12183456  0.37949481  0.13633553  1
  O  O372  1  0.13001696  0.38411189  0.61638736  1
  O  O373  1  0.12839189  0.89282874  0.12006033  1
  O  O374  1  0.12584806  0.88829465  0.62677114  1
  O  O375  1  0.62600751  0.38552860  0.13298809  1
  O  O376  1  0.63544218  0.38687009  0.62207765  1
  O  O377  1  0.61573230  0.87243542  0.13490891  1
  O  O378  1  0.63162642  0.87166866  0.63321731  1
  O  O379  1  0.12893800  0.26090085  0.25547156  1
  O  O380  1  0.11413629  0.24658220  0.75545125  1
  O  O381  1  0.11822443  0.75274299  0.25764491  1
  O  O382  1  0.12419617  0.75637088  0.76473412  1
  O  O383  1  0.61808242  0.25853961  0.24183874  1
  O  O384  1  0.61736869  0.24422379  0.75972849  1
  O  O385  1  0.62231276  0.76016888  0.26231393  1
  O  O386  1  0.61977647  0.75747403  0.75668143  1
  O  O387  1  0.38176686  0.24337173  0.24403291  1
  O  O388  1  0.38290035  0.24319398  0.74517174  1
  O  O389  1  0.38818421  0.75355421  0.25654876  1
  O  O390  1  0.38386689  0.75097914  0.75184155  1
  O  O391  1  0.86961955  0.23573636  0.24008579  1
  O  O392  1  0.88371131  0.24451892  0.74093565  1
  O  O393  1  0.88316706  0.75795880  0.23919570  1
  O  O394  1  0.87283421  0.73458082  0.75503443  1
  O  O395  1  0.38106838  0.49213204  0.49725157  1
  O  O396  1  0.37905496  0.49969312  0.98125178  1
  O  O397  1  0.37099821  0.99551667  0.48888327  1
  O  O398  1  0.37728072  0.99245833  0.99681091  1
  O  O399  1  0.87391695  0.49791163  0.48307906  1
  O  O400  1  0.87604975  0.48257190  0.99471235  1
  O  O401  1  0.88110928  0.99561358  0.49801213  1
  O  O402  1  0.88489475  1.01033203  0.98142123  1
  O  O403  1  0.12091518  0.00454633  0.00861507  1
  O  O404  1  0.11797187  0.00435762  0.51386142  1
  O  O405  1  0.12294086  0.50909814  0.00435533  1
  O  O406  1  0.12214845  0.50846794  0.50229589  1
  O  O407  1  0.62043839  0.00782254  0.00199278  1
  O  O408  1  0.62781139  0.01330750  0.49742053  1
  O  O409  1  0.62074198  0.50297245  0.00971710  1
  O  O410  1  0.61592949  0.49963571  0.50612882  1
  O  O411  1  0.37969845  0.36128697  0.12766884  1
  O  O412  1  0.36654266  0.36992154  0.61940845  1
  O  O413  1  0.37464647  0.87701913  0.11479397  1
  O  O414  1  0.37590824  0.88044701  0.61254484  1
  O  O415  1  0.87834443  0.36491002  0.11720837  1
  O  O416  1  0.86930582  0.36548245  0.62071897  1
  O  O417  1  0.87007648  0.90722522  0.12201351  1
  O  O418  1  0.86809797  0.87764380  0.61469882  1
  O  O419  1  0.13406119  0.13408240  0.36850149  1
  O  O420  1  0.13340925  0.13679685  0.87335355  1
  O  O421  1  0.13874092  0.61745365  0.37920283  1
  O  O422  1  0.10786341  0.64566554  0.88599547  1
  O  O423  1  0.63463988  0.12491889  0.38210320  1
  O  O424  1  0.62244014  0.13684264  0.88654364  1
  O  O425  1  0.63140957  0.63259600  0.37764870  1
  O  O426  1  0.62904873  0.63000667  0.88032071  1
