# generated using pymatgen
data_V85Zn86O256
_symmetry_space_group_name_H-M   'P 1'
_cell_length_a   16.93445142
_cell_length_b   16.95353557
_cell_length_c   16.94565071
_cell_angle_alpha   90.04211610
_cell_angle_beta   90.05214128
_cell_angle_gamma   89.89307906
_symmetry_Int_Tables_number   1
_chemical_formula_structural   V85Zn86O256
_chemical_formula_sum   'V85 Zn86 O256'
_cell_volume   4865.06460679
_cell_formula_units_Z   1
loop_
 _symmetry_equiv_pos_site_id
 _symmetry_equiv_pos_as_xyz
  1  'x, y, z'
loop_
 _atom_site_type_symbol
 _atom_site_label
 _atom_site_symmetry_multiplicity
 _atom_site_fract_x
 _atom_site_fract_y
 _atom_site_fract_z
 _atom_site_occupancy
  V  V0  1  0.12637334  0.62415937  0.48678650  1
  V  V1  1  0.62639658  -0.00214849  0.62468686  1
  V  V2  1  0.49729241  0.62453901  0.61573443  1
  V  V3  1  0.61799065  0.50538020  0.12682533  1
  V  V4  1  0.37793748  0.74425934  0.12308932  1
  V  V5  1  0.49245979  0.37765137  0.38254032  1
  V  V6  1  0.11163625  0.28323610  0.40197410  1
  V  V7  1  0.37554356  0.00191079  0.37775274  1
  V  V8  1  0.25172667  0.12881179  0.87665174  1
  V  V9  1  0.48870729  0.25215020  0.24827646  1
  V  V10  1  0.12421593  -0.00071082  0.12111732  1
  V  V11  1  0.24837051  0.00031037  0.24949849  1
  V  V12  1  0.11307231  0.00152456  0.62635174  1
  V  V13  1  -0.00708926  0.24731162  0.74611238  1
  V  V14  1  0.61926931  0.49697697  0.62570038  1
  V  V15  1  0.61723843  0.37898284  0.24782320  1
  V  V16  1  0.49481807  0.12898309  0.12584714  1
  V  V17  1  0.62522070  0.25170487  0.37649136  1
  V  V18  1  0.86397591  0.63020940  0.26491610  1
  V  V19  1  0.62650512  0.87334804  0.24888346  1
  V  V20  1  0.87676435  -0.00476610  0.39103536  1
  V  V21  1  0.25198006  0.62139312  0.87538933  1
  V  V22  1  0.24930069  0.74993921  -0.00181782  1
  V  V23  1  0.50156180  0.37459005  0.86193938  1
  V  V24  1  0.75756218  0.74048671  -0.00010586  1
  V  V25  1  0.75924787  -0.00407224  0.75726632  1
  V  V26  1  0.00724222  0.60754301  0.62679227  1
  V  V27  1  0.62208245  0.62207477  -0.00102788  1
  V  V28  1  0.12532004  0.87556900  0.74894873  1
  V  V29  1  0.62728900  0.87193243  0.75097993  1
  V  V30  1  0.87887743  0.74468223  0.62061076  1
  V  V31  1  0.37642915  0.61959597  0.75298673  1
  V  V32  1  0.75468689  -0.00063412  0.24984114  1
  V  V33  1  -0.00562551  0.50202590  -0.00003585  1
  V  V34  1  -0.00038638  0.87522620  0.38728900  1
  V  V35  1  0.74808724  0.49208055  0.75646820  1
  V  V36  1  0.62402717  0.12557135  0.49879399  1
  V  V37  1  0.37595689  0.35697756  -0.00398380  1
  V  V38  1  0.36873196  0.50218348  0.38582817  1
  V  V39  1  0.00282920  0.24935256  0.24623250  1
  V  V40  1  0.12073426  0.75158176  0.87460154  1
  V  V41  1  0.62333949  0.24841619  0.85562951  1
  V  V42  1  0.75673909  0.87233654  0.61891365  1
  V  V43  1  0.50134448  0.87505244  0.37569464  1
  V  V44  1  0.37117052  0.12903332  0.24812770  1
  V  V45  1  0.86729582  0.61820005  0.75689546  1
  V  V46  1  -0.00176403  0.12497703  0.12212518  1
  V  V47  1  0.10775847  0.11450108  0.50402567  1
  V  V48  1  0.49062734  0.50029492  -0.00300340  1
  V  V49  1  0.12774060  0.13066475  -0.00133632  1
  V  V50  1  0.74642065  0.25127830  0.00027172  1
  V  V51  1  0.75745636  0.86807557  0.12451787  1
  V  V52  1  0.24226619  0.12674735  0.38146744  1
  V  V53  1  0.62540818  0.00068471  0.12513827  1
  V  V54  1  0.87367317  0.87984790  -0.00867030  1
  V  V55  1  0.74795205  0.38112688  0.12036818  1
  V  V56  1  0.37557442  0.87485505  -0.00051907  1
  V  V57  1  0.79178358  0.45170929  0.29892433  1
  V  V58  1  0.76060836  0.12162849  0.87734163  1
  V  V59  1  0.25568609  0.35888667  0.11428076  1
  V  V60  1  0.12248786  0.37987423  0.74819172  1
  V  V61  1  0.87300634  0.37760653  -0.00134827  1
  V  V62  1  0.63078235  0.74141000  0.87380025  1
  V  V63  1  0.37634971  0.62082443  0.24576070  1
  V  V64  1  0.24740849  0.50203159  0.74746585  1
  V  V65  1  0.37519327  -0.00170513  0.87355070  1
  V  V66  1  0.50040175  0.74713770  0.24507554  1
  V  V67  1  0.13007157  0.25276796  0.87485466  1
  V  V68  1  0.12865367  0.50449921  0.11984332  1
  V  V69  1  0.38397513  0.12990442  0.75081540  1
  V  V70  1  -0.01198475  0.62592198  0.12603677  1
  V  V71  1  0.75094235  0.12973048  0.37558927  1
  V  V72  1  -0.00275711  0.75070754  0.24963707  1
  V  V73  1  0.75255662  0.74780225  0.49214983  1
  V  V74  1  0.62468519  0.12752715  0.00105342  1
  V  V75  1  0.24931063  0.37665330  0.62269361  1
  V  V76  1  0.49895614  0.74860755  0.75013249  1
  V  V77  1  -0.00437691  0.38047752  0.87247696  1
  V  V78  1  0.74543216  0.36914972  0.61195187  1
  V  V79  1  0.38247693  0.25036156  0.62793418  1
  V  V80  1  0.50075491  -0.00020627  0.00050557  1
  V  V81  1  0.62431285  0.62531631  0.49345515  1
  V  V82  1  0.12334957  0.86829720  0.25325758  1
  V  V83  1  0.12891342  0.37210903  0.24084167  1
  V  V84  1  0.24936741  0.87522859  0.12427995  1
  Zn  Zn85  1  0.87249486  0.25226715  0.12819013  1
  Zn  Zn86  1  0.12087496  0.62725011  -0.00037308  1
  Zn  Zn87  1  0.25150905  0.87715420  0.62081544  1
  Zn  Zn88  1  0.50231181  0.87355468  0.87580205  1
  Zn  Zn89  1  0.25185622  0.24433400  0.50561373  1
  Zn  Zn90  1  0.24962462  0.00082627  0.74741407  1
  Zn  Zn91  1  0.37408484  0.37618882  0.50396949  1
  Zn  Zn92  1  0.88090761  0.12011694  0.74239644  1
  Zn  Zn93  1  0.87784048  0.12446695  0.24857950  1
  Zn  Zn94  1  0.37009339  0.75400340  0.62286729  1
  Zn  Zn95  1  -0.00749006  0.00544853  -0.00810806  1
  Zn  Zn96  1  0.24677601  0.63347987  0.36872901  1
  Zn  Zn97  1  0.37224467  0.87184550  0.50207356  1
  Zn  Zn98  1  0.97490242  0.50971341  0.47178407  1
  Zn  Zn99  1  0.88476625  0.24379783  0.59631309  1
  Zn  Zn100  1  0.50009708  -0.00094575  0.50283102  1
  Zn  Zn101  1  0.25246667  0.49780088  0.24583455  1
  Zn  Zn102  1  0.50811367  0.12983615  0.63197192  1
  Zn  Zn103  1  -0.00638147  0.88034672  0.86943024  1
  Zn  Zn104  1  0.62906786  0.74424293  0.37044033  1
  Zn  Zn105  1  0.24633042  0.75446286  0.49516343  1
  Zn  Zn106  1  -0.00281965  0.74670089  0.75059858  1
  Zn  Zn107  1  0.18868521  0.18734995  0.18546779  1
  Zn  Zn108  1  0.18947780  0.18702367  0.68834075  1
  Zn  Zn109  1  0.18802812  0.68756077  0.18687434  1
  Zn  Zn110  1  0.18813352  0.69286038  0.68471872  1
  Zn  Zn111  1  0.68447864  0.19150970  0.19060468  1
  Zn  Zn112  1  0.71497930  0.17721746  0.67656957  1
  Zn  Zn113  1  0.68706523  0.68460857  0.18382470  1
  Zn  Zn114  1  0.68894106  0.68379842  0.68315814  1
  Zn  Zn115  1  0.30059503  0.31366975  0.31550702  1
  Zn  Zn116  1  0.31487570  0.31404033  0.81155841  1
  Zn  Zn117  1  0.31218720  0.81194563  0.31668190  1
  Zn  Zn118  1  0.31080830  0.81053690  0.80960666  1
  Zn  Zn119  1  0.81033070  0.31482356  0.43482701  1
  Zn  Zn120  1  0.80912640  0.31896935  0.81188372  1
  Zn  Zn121  1  0.81768808  0.81212732  0.31278447  1
  Zn  Zn122  1  0.81052111  0.80424810  0.81079298  1
  Zn  Zn123  1  0.16887165  0.44341513  0.44253111  1
  Zn  Zn124  1  0.18905953  0.43969931  0.93646895  1
  Zn  Zn125  1  0.18575517  0.93642695  0.43767675  1
  Zn  Zn126  1  0.18516910  0.94021959  0.93464813  1
  Zn  Zn127  1  0.67062789  0.44162188  0.44173001  1
  Zn  Zn128  1  0.67988391  0.43612400  0.93391409  1
  Zn  Zn129  1  0.68849812  0.93555744  0.43763933  1
  Zn  Zn130  1  0.68800112  0.93391023  0.93713430  1
  Zn  Zn131  1  0.31179578  0.06701834  0.06047993  1
  Zn  Zn132  1  0.31062099  0.05685148  0.56701721  1
  Zn  Zn133  1  0.31287229  0.56207285  0.05943254  1
  Zn  Zn134  1  0.30677935  0.56737102  0.56500931  1
  Zn  Zn135  1  0.81246306  0.06198378  0.06421711  1
  Zn  Zn136  1  0.80961305  0.06691366  0.56395625  1
  Zn  Zn137  1  0.81103001  0.56072595  0.06514187  1
  Zn  Zn138  1  0.80786080  0.56335166  0.55718613  1
  Zn  Zn139  1  0.43498921  0.43693728  0.18213987  1
  Zn  Zn140  1  0.43366860  0.44206053  0.68697834  1
  Zn  Zn141  1  0.43608159  0.93771875  0.18904383  1
  Zn  Zn142  1  0.43968738  0.93731021  0.68859465  1
  Zn  Zn143  1  0.95142741  0.43079246  0.30029615  1
  Zn  Zn144  1  0.90651754  0.45119048  0.63949957  1
  Zn  Zn145  1  0.93734978  0.93704344  0.18357089  1
  Zn  Zn146  1  0.93925453  0.93259323  0.68542938  1
  Zn  Zn147  1  0.06178138  0.05758205  0.31246727  1
  Zn  Zn148  1  0.05844622  0.06056776  0.81320112  1
  Zn  Zn149  1  0.06562969  0.56379570  0.30525738  1
  Zn  Zn150  1  0.06007147  0.56319032  0.81065101  1
  Zn  Zn151  1  0.56243843  0.06280873  0.31044326  1
  Zn  Zn152  1  0.56750793  0.06134361  0.81310713  1
  Zn  Zn153  1  0.55478874  0.56102380  0.31275258  1
  Zn  Zn154  1  0.56401664  0.56003494  0.81145470  1
  Zn  Zn155  1  0.43673801  0.18858207  0.44034874  1
  Zn  Zn156  1  0.44423041  0.18764000  0.93137373  1
  Zn  Zn157  1  0.43274142  0.69066889  0.43371900  1
  Zn  Zn158  1  0.43968678  0.68512301  0.93522885  1
  Zn  Zn159  1  0.94278196  0.18250016  0.42599298  1
  Zn  Zn160  1  0.93869845  0.19444148  0.93731056  1
  Zn  Zn161  1  0.94346876  0.69251525  0.43842822  1
  Zn  Zn162  1  0.93508588  0.68764634  0.93451090  1
  Zn  Zn163  1  0.06255953  0.31331491  0.06183006  1
  Zn  Zn164  1  0.06656804  0.30844658  0.56932199  1
  Zn  Zn165  1  0.05860191  0.80954019  0.06394919  1
  Zn  Zn166  1  0.06567179  0.80752912  0.56718971  1
  Zn  Zn167  1  0.55902913  0.31300568  0.06138630  1
  Zn  Zn168  1  0.56461499  0.30955342  0.56379228  1
  Zn  Zn169  1  0.56531698  0.81154695  0.06191480  1
  Zn  Zn170  1  0.56295628  0.81060769  0.56198942  1
  O  O171  1  0.12113748  0.12077413  0.11529926  1
  O  O172  1  0.13002905  0.11731661  0.61276467  1
  O  O173  1  0.11883368  0.61862369  0.12240004  1
  O  O174  1  0.10676856  0.62825476  0.63274711  1
  O  O175  1  0.61798746  0.11952742  0.12212583  1
  O  O176  1  0.63076759  0.11674487  0.61488369  1
  O  O177  1  0.62450512  0.61357326  0.11720045  1
  O  O178  1  0.61648227  0.61956212  0.61726675  1
  O  O179  1  0.37369935  0.38479746  0.37741204  1
  O  O180  1  0.38978586  0.36798089  0.88337356  1
  O  O181  1  0.38538881  0.88675589  0.37013791  1
  O  O182  1  0.37583122  0.88251394  0.87965623  1
  O  O183  1  0.85300563  0.38943749  0.35378378  1
  O  O184  1  0.88234892  0.37191427  0.88708814  1
  O  O185  1  0.88135252  0.88836093  0.37295524  1
  O  O186  1  0.87125048  0.86864878  0.88804391  1
  O  O187  1  0.25736146  0.00637973  0.36780836  1
  O  O188  1  0.25933853  0.00895520  0.87385646  1
  O  O189  1  0.26133901  0.50396662  0.36974057  1
  O  O190  1  0.24547262  0.51450943  0.86702789  1
  O  O191  1  0.75898202  0.00228890  0.36830347  1
  O  O192  1  0.74473754  0.00727052  0.86837654  1
  O  O193  1  0.73384165  0.50024732  0.36327595  1
  O  O194  1  0.74140634  0.49414357  0.85600346  1
  O  O195  1  0.23891068  0.49474896  0.11665022  1
  O  O196  1  0.25519893  0.49343129  0.63962525  1
  O  O197  1  0.24592824  0.99560556  0.12960248  1
  O  O198  1  0.23806178  0.99746062  0.63069511  1
  O  O199  1  0.73666376  0.48837346  0.11761654  1
  O  O200  1  0.73639339  0.48831445  0.62783872  1
  O  O201  1  0.74449819  0.99377728  0.13208983  1
  O  O202  1  0.74255375  0.99041862  0.63077847  1
  O  O203  1  0.01566302  0.36300574  0.23771577  1
  O  O204  1  0.00823770  0.36671330  0.76028721  1
  O  O205  1  0.00495709  0.86830914  0.24875818  1
  O  O206  1  0.01070906  0.86909490  0.75158175  1
  O  O207  1  0.49741987  0.36719985  0.25531617  1
  O  O208  1  0.49492257  0.37954810  0.76353929  1
  O  O209  1  0.50573298  0.87050524  0.25645496  1
  O  O210  1  0.50871490  0.86498029  0.75248960  1
  O  O211  1  0.49240183  0.13269045  0.24685610  1
  O  O212  1  0.48864035  0.12054842  0.75201887  1
  O  O213  1  0.48743291  0.63492006  0.25010552  1
  O  O214  1  0.49309528  0.62932417  0.74632983  1
  O  O215  1  1.00550052  0.12813044  0.23752735  1
  O  O216  1  0.99793579  0.14221368  0.75580280  1
  O  O217  1  0.99322363  0.63256495  0.24401641  1
  O  O218  1  0.98776906  0.62341495  0.74179374  1
  O  O219  1  0.38069512  0.25844520  -0.00173518  1
  O  O220  1  0.36997936  0.25301745  0.50939015  1
  O  O221  1  0.37357088  0.75427261  0.00603729  1
  O  O222  1  0.37441571  0.75304422  0.50440536  1
  O  O223  1  0.86486879  0.25849825  0.00218246  1
  O  O224  1  0.88998581  0.25849269  0.48592335  1
  O  O225  1  0.86192623  0.75443467  -0.00221943  1
  O  O226  1  0.86603106  0.74197584  0.50906722  1
  O  O227  1  0.13073016  0.22704112  0.50269527  1
  O  O228  1  0.12096324  0.23888734  0.99113079  1
  O  O229  1  0.12166624  0.72830682  0.50810429  1
  O  O230  1  0.13029984  0.75010212  0.99280835  1
  O  O231  1  0.61701834  0.24159551  0.48442430  1
  O  O232  1  0.62984253  0.24305963  0.99786806  1
  O  O233  1  0.63245889  0.74258248  0.49809392  1
  O  O234  1  0.62900841  0.74117372  0.99320102  1
  O  O235  1  0.50432195  0.24323353  0.13814392  1
  O  O236  1  0.48824250  0.24804499  0.62311491  1
  O  O237  1  0.49267875  0.75786961  0.13591963  1
  O  O238  1  0.50355578  0.74198071  0.63810251  1
  O  O239  1  1.00124373  0.23885001  0.12696648  1
  O  O240  1  0.99603704  0.25608538  0.64118121  1
  O  O241  1  1.00342804  0.73888026  0.13682548  1
  O  O242  1  0.98724964  0.74533374  0.62819745  1
  O  O243  1  0.02295017  0.24123425  0.36193655  1
  O  O244  1  0.01070642  0.26110610  0.87148384  1
  O  O245  1  -0.00443383  0.76197648  0.36084960  1
  O  O246  1  0.00765578  0.75392161  0.87333068  1
  O  O247  1  0.50221721  0.25534839  0.36572152  1
  O  O248  1  0.51420253  0.25769752  0.87316808  1
  O  O249  1  0.49965457  0.75898236  0.36082352  1
  O  O250  1  0.50757148  0.74971762  0.86398310  1
  O  O251  1  0.25198303  0.12125112  0.48718640  1
  O  O252  1  0.24407298  0.12482206  0.98647105  1
  O  O253  1  0.23587062  0.62497705  0.49755211  1
  O  O254  1  0.24782445  0.63131564  0.99109386  1
  O  O255  1  0.73767438  0.11890221  0.48357615  1
  O  O256  1  0.74459319  0.12940511  0.99594366  1
  O  O257  1  0.73755550  0.63494840  0.50440684  1
  O  O258  1  0.73879065  0.63071943  1.00571614  1
  O  O259  1  0.26856255  0.37896163  -0.00322432  1
  O  O260  1  0.24598797  0.37868169  0.51623420  1
  O  O261  1  0.25635417  0.87041151  0.00396455  1
  O  O262  1  0.25277184  0.87490803  0.50042278  1
  O  O263  1  0.75227767  0.37220936  0.00131039  1
  O  O264  1  0.74182348  0.37766943  0.50591119  1
  O  O265  1  0.75728749  0.86699515  0.00555552  1
  O  O266  1  0.74399399  0.86649595  0.51250590  1
  O  O267  1  0.12983371  0.49248900  0.23476686  1
  O  O268  1  0.13383205  0.49033296  0.75744554  1
  O  O269  1  0.12965196  0.99306567  0.23949662  1
  O  O270  1  0.12605590  0.99374498  0.74439617  1
  O  O271  1  0.61068583  0.49337379  0.23836355  1
  O  O272  1  0.63704170  0.51165378  0.73538722  1
  O  O273  1  0.63629164  0.99461699  0.24666816  1
  O  O274  1  0.63480341  0.99327925  0.74394662  1
  O  O275  1  0.36910434  0.00694257  0.25891848  1
  O  O276  1  0.37613404  0.00544914  0.76294007  1
  O  O277  1  0.37408843  0.50813544  0.25052431  1
  O  O278  1  0.36726384  0.51266808  0.75268866  1
  O  O279  1  0.86280731  0.00053386  0.24953412  1
  O  O280  1  0.86290364  0.00123619  0.74261994  1
  O  O281  1  0.86535899  0.50867605  0.25186379  1
  O  O282  1  0.85911682  0.50671053  0.73825189  1
  O  O283  1  0.15264075  0.37475011  0.34684662  1
  O  O284  1  0.12140039  0.36860985  0.86974596  1
  O  O285  1  0.11195088  0.89021835  0.36051114  1
  O  O286  1  0.12616952  0.86380133  0.87079776  1
  O  O287  1  0.61243591  0.36965467  0.36895906  1
  O  O288  1  0.61511306  0.35858491  0.87493168  1
  O  O289  1  0.61851090  0.87395543  0.36550261  1
  O  O290  1  0.62453969  0.86172889  0.86987224  1
  O  O291  1  0.38117163  0.12001753  0.13565046  1
  O  O292  1  0.37663673  0.13064462  0.63435542  1
  O  O293  1  0.37304634  0.63734856  0.12764551  1
  O  O294  1  0.38291920  0.62518039  0.63339990  1
  O  O295  1  0.88342899  0.12858464  0.12646168  1
  O  O296  1  0.83315259  0.14967040  0.63698099  1
  O  O297  1  0.88523198  0.61768240  0.13524676  1
  O  O298  1  0.88408699  0.62891629  0.63081761  1
  O  O299  1  0.24717932  0.25944650  0.11731631  1
  O  O300  1  0.26021698  0.25898269  0.62758322  1
  O  O301  1  0.25776979  0.75546341  0.11780678  1
  O  O302  1  0.25188854  0.75638014  0.62009245  1
  O  O303  1  0.74609184  0.26238811  0.12079027  1
  O  O304  1  0.71152143  0.27536961  0.62064199  1
  O  O305  1  0.74098753  0.75898267  0.11318690  1
  O  O306  1  0.75674123  0.75528453  0.61769081  1
  O  O307  1  0.22930167  0.24367775  0.38129000  1
  O  O308  1  0.23827437  0.24543182  0.86985000  1
  O  O309  1  0.25135547  0.74605674  0.37818085  1
  O  O310  1  0.24328847  0.74141206  0.87926018  1
  O  O311  1  0.73889780  0.24170527  0.37106393  1
  O  O312  1  0.73935971  0.24448121  0.87914196  1
  O  O313  1  0.74886764  0.75863789  0.38824142  1
  O  O314  1  0.74080692  0.74958257  0.88528131  1
  O  O315  1  0.00670138  0.12659944  0.00587731  1
  O  O316  1  0.00956918  0.12014574  0.49881927  1
  O  O317  1  -0.00315168  0.61943066  0.00591899  1
  O  O318  1  0.00365769  0.62278041  0.51174091  1
  O  O319  1  0.50411432  0.11977226  0.00581884  1
  O  O320  1  0.51313246  0.12096627  0.50002698  1
  O  O321  1  0.51181898  0.61584505  -0.00664378  1
  O  O322  1  0.50397601  0.63335960  0.51206925  1
  O  O323  1  0.49679568  0.37015542  0.48536366  1
  O  O324  1  0.49035021  0.37885926  0.99269721  1
  O  O325  1  0.50300095  0.87651820  0.48515456  1
  O  O326  1  0.49359337  0.88111080  0.99958613  1
  O  O327  1  1.07467005  0.35980957  0.46922846  1
  O  O328  1  0.99176705  0.38121773  0.99591675  1
  O  O329  1  1.00775003  0.86776159  0.48590925  1
  O  O330  1  0.97951097  0.87068908  1.00463388  1
  O  O331  1  0.48148627  0.48913218  0.36868988  1
  O  O332  1  0.51278478  0.48209201  0.88203622  1
  O  O333  1  0.49293073  0.99344135  0.37222830  1
  O  O334  1  0.49406075  0.99831612  0.88235807  1
  O  O335  1  1.01127277  0.49111753  0.37040264  1
  O  O336  1  1.00518721  0.48763629  0.88237059  1
  O  O337  1  0.98285688  0.99304609  0.36919841  1
  O  O338  1  1.00440049  0.99261886  0.88124463  1
  O  O339  1  0.00431095  0.00972253  0.11806348  1
  O  O340  1  0.01211764  0.00157789  0.63063858  1
  O  O341  1  0.01351654  0.51040670  0.11349360  1
  O  O342  1  0.00659628  0.50842325  0.63647480  1
  O  O343  1  0.50504727  0.00607079  0.12137873  1
  O  O344  1  0.51624077  0.00265646  0.62641524  1
  O  O345  1  0.50807695  0.49307046  0.11079823  1
  O  O346  1  0.50949507  0.51089688  0.63346217  1
  O  O347  1  0.25100610  0.37621626  0.22900020  1
  O  O348  1  0.24528095  0.38389101  0.74718874  1
  O  O349  1  0.24213328  0.88026278  0.24408892  1
  O  O350  1  0.23607403  0.87718311  0.75267780  1
  O  O351  1  0.73781479  0.38321530  0.23821266  1
  O  O352  1  0.74658714  0.38734319  0.74134306  1
  O  O353  1  0.74744816  0.87870692  0.24237413  1
  O  O354  1  0.74589316  0.87801519  0.74380859  1
  O  O355  1  0.25104133  0.12202167  0.26046348  1
  O  O356  1  0.25939893  0.12388167  0.76236081  1
  O  O357  1  0.26349990  0.62337120  0.24682383  1
  O  O358  1  0.25511834  0.62017248  0.75412806  1
  O  O359  1  0.74870110  0.11744200  0.25923678  1
  O  O360  1  0.74688983  0.11129931  0.76444647  1
  O  O361  1  0.76442905  0.63346388  0.25097975  1
  O  O362  1  0.76076915  0.61405902  0.74178462  1
  O  O363  1  0.36768547  0.12061516  0.36871468  1
  O  O364  1  0.37038462  0.12016495  0.87174579  1
  O  O365  1  0.37677696  0.61305896  0.36573636  1
  O  O366  1  0.36406893  0.63180017  0.86627038  1
  O  O367  1  0.86773691  0.11198909  0.36940505  1
  O  O368  1  0.86253569  0.13032046  0.87559277  1
  O  O369  1  0.88002775  0.62498901  0.36364171  1
  O  O370  1  0.87777752  0.62359680  0.85593229  1
  O  O371  1  0.13502822  0.38114598  0.12336197  1
  O  O372  1  0.13448289  0.36889308  0.64189887  1
  O  O373  1  0.12938049  0.88055035  0.12854551  1
  O  O374  1  0.12376625  0.88273462  0.63378200  1
  O  O375  1  0.62741655  0.38189559  0.12781913  1
  O  O376  1  0.61960000  0.39356205  0.61966559  1
  O  O377  1  0.63401666  0.88163623  0.12891467  1
  O  O378  1  0.63211798  0.87950346  0.63109549  1
  O  O379  1  0.12008579  0.25832837  0.24309490  1
  O  O380  1  0.11682431  0.25504120  0.75727788  1
  O  O381  1  0.11912445  0.76285399  0.24441581  1
  O  O382  1  0.12252129  0.75690432  0.75882987  1
  O  O383  1  0.61389582  0.25667600  0.25993242  1
  O  O384  1  0.63132603  0.23798423  0.75934037  1
  O  O385  1  0.61738752  0.75318861  0.24916223  1
  O  O386  1  0.62198025  0.74941283  0.75656149  1
  O  O387  1  0.37994230  0.24476596  0.25802807  1
  O  O388  1  0.37236870  0.24068344  0.74325404  1
  O  O389  1  0.38149824  0.74564469  0.24066152  1
  O  O390  1  0.38411912  0.74076853  0.74949531  1
  O  O391  1  0.89793984  0.24558719  0.24869109  1
  O  O392  1  0.89078507  0.25223844  0.76177989  1
  O  O393  1  0.88169885  0.73907919  0.25013439  1
  O  O394  1  0.87111337  0.73447083  0.74121442  1
  O  O395  1  0.37086819  0.50083635  0.48860894  1
  O  O396  1  0.38839240  0.50013191  0.99741965  1
  O  O397  1  0.37969096  1.00147654  0.48696293  1
  O  O398  1  0.37921901  0.99687994  0.99043812  1
  O  O399  1  0.88390306  0.48641290  0.52972764  1
  O  O400  1  0.88594386  0.49422665  1.00407259  1
  O  O401  1  0.86936168  1.00231292  0.48967252  1
  O  O402  1  0.87034624  0.98338264  1.00158320  1
  O  O403  1  0.12673647  0.01246196  0.00578662  1
  O  O404  1  0.12594657  0.00857099  0.50994797  1
  O  O405  1  0.11427067  0.50169514  0.00185473  1
  O  O406  1  0.11766043  0.52208832  0.50688828  1
  O  O407  1  0.62078837  0.00575854  0.00483291  1
  O  O408  1  0.62505083  0.00543126  0.50724804  1
  O  O409  1  0.61761841  0.50582299  0.00414078  1
  O  O410  1  0.62096859  0.51235084  0.51471557  1
  O  O411  1  0.36949576  0.37736280  0.10562374  1
  O  O412  1  0.36856788  0.36901196  0.62597730  1
  O  O413  1  0.36922081  0.86663179  0.12096361  1
  O  O414  1  0.37451650  0.87560957  0.62282897  1
  O  O415  1  0.86114514  0.37300287  0.11022677  1
  O  O416  1  0.84730783  0.35320866  0.62984291  1
  O  O417  1  0.86190028  0.87608968  0.11676523  1
  O  O418  1  0.86527699  0.86244187  0.63078416  1
  O  O419  1  0.13012677  0.11228982  0.38961221  1
  O  O420  1  0.13271611  0.13209234  0.87912284  1
  O  O421  1  0.12539547  0.62484972  0.38241883  1
  O  O422  1  0.13007189  0.63662235  0.87430814  1
  O  O423  1  0.63030717  0.13139310  0.37693278  1
  O  O424  1  0.62942236  0.13475625  0.88199459  1
  O  O425  1  0.61211703  0.62545694  0.38906638  1
  O  O426  1  0.62255424  0.63384186  0.88143254  1
