# generated using pymatgen
data_V85Zn86O256
_symmetry_space_group_name_H-M   'P 1'
_cell_length_a   16.95277044
_cell_length_b   16.95393374
_cell_length_c   16.93354861
_cell_angle_alpha   89.98793304
_cell_angle_beta   90.02095759
_cell_angle_gamma   90.01282624
_symmetry_Int_Tables_number   1
_chemical_formula_structural   V85Zn86O256
_chemical_formula_sum   'V85 Zn86 O256'
_cell_volume   4866.97473848
_cell_formula_units_Z   1
loop_
 _symmetry_equiv_pos_site_id
 _symmetry_equiv_pos_as_xyz
  1  'x, y, z'
loop_
 _atom_site_type_symbol
 _atom_site_label
 _atom_site_symmetry_multiplicity
 _atom_site_fract_x
 _atom_site_fract_y
 _atom_site_fract_z
 _atom_site_occupancy
  V  V0  1  0.84121675  -0.02577444  0.85946823  1
  V  V1  1  0.50391070  0.49196546  0.50027160  1
  V  V2  1  0.37407414  0.63134391  0.23981881  1
  V  V3  1  0.24769484  0.36555235  0.12069370  1
  V  V4  1  0.87676775  0.37537819  0.00079264  1
  V  V5  1  0.49754258  0.00785440  0.49846167  1
  V  V6  1  0.25925000  -0.00140807  0.25914437  1
  V  V7  1  0.74726553  0.37629585  0.12801605  1
  V  V8  1  0.50154089  0.37795588  0.87333524  1
  V  V9  1  0.87641849  0.87098061  0.00647236  1
  V  V10  1  0.86939885  0.24304107  0.61785410  1
  V  V11  1  0.61100261  0.14037904  0.01518255  1
  V  V12  1  0.24993290  0.00961403  0.75010040  1
  V  V13  1  0.86225190  0.85558535  0.51196314  1
  V  V14  1  0.74669294  0.63368073  0.37449380  1
  V  V15  1  0.36945427  -0.00633316  0.87485258  1
  V  V16  1  0.24948955  0.75023218  0.49838553  1
  V  V17  1  -0.00396286  0.86838024  0.37644279  1
  V  V18  1  0.11874182  0.13141992  0.49706933  1
  V  V19  1  0.87179173  0.12021615  0.74886111  1
  V  V20  1  -0.00245046  0.24437106  0.74082926  1
  V  V21  1  0.00555563  0.24904446  0.25248107  1
  V  V22  1  0.24911700  0.62338065  0.87547344  1
  V  V23  1  0.62618027  0.63066170  0.50367916  1
  V  V24  1  0.50302909  0.74920699  0.75294188  1
  V  V25  1  0.87118698  0.12306842  0.25568912  1
  V  V26  1  -0.00430704  0.12264325  0.12579069  1
  V  V27  1  0.11922181  0.87045707  0.25206761  1
  V  V28  1  0.12369179  0.62740890  0.49856709  1
  V  V29  1  0.75677697  0.25199755  0.00015691  1
  V  V30  1  0.12485382  0.62023076  0.00724532  1
  V  V31  1  0.87159587  0.49358689  0.37249108  1
  V  V32  1  0.75029636  0.12854482  0.87534149  1
  V  V33  1  0.62463544  0.62930262  -0.00372863  1
  V  V34  1  0.74824267  0.24084345  0.49540755  1
  V  V35  1  0.63505224  -0.00348894  0.63271255  1
  V  V36  1  0.50434184  0.75654900  0.24370982  1
  V  V37  1  0.87510452  0.49971318  0.87597414  1
  V  V38  1  0.50890428  0.87650820  0.37450009  1
  V  V39  1  0.00306552  0.75031305  0.74553088  1
  V  V40  1  0.50503170  0.37278598  0.34727381  1
  V  V41  1  0.00102010  0.37284889  0.87682959  1
  V  V42  1  0.37641368  0.86776605  0.00700834  1
  V  V43  1  0.00028100  0.49129332  0.50103826  1
  V  V44  1  0.12599302  0.37265630  0.74970671  1
  V  V45  1  0.62514753  -0.00601374  0.12646115  1
  V  V46  1  -0.00335959  0.63836024  0.12837753  1
  V  V47  1  0.25349721  0.36848845  0.61362954  1
  V  V48  1  0.62075869  0.50155035  0.12947477  1
  V  V49  1  0.00258919  0.49810688  0.01290952  1
  V  V50  1  0.37329092  0.62275771  0.74779365  1
  V  V51  1  0.75048012  0.86963436  0.13101449  1
  V  V52  1  0.29663611  0.17857870  0.93047885  1
  V  V53  1  0.25339384  0.74741917  0.01135846  1
  V  V54  1  0.37600556  0.87845937  0.49043014  1
  V  V55  1  0.00042815  0.62749695  0.62302733  1
  V  V56  1  0.38532246  0.13629425  0.23711883  1
  V  V57  1  0.12826496  0.74936129  0.87708855  1
  V  V58  1  0.26122222  0.13270274  0.37973499  1
  V  V59  1  0.00331413  0.87492233  0.87640490  1
  V  V60  1  0.62598187  0.24622689  0.35979556  1
  V  V61  1  0.62980362  0.25516552  0.86786748  1
  V  V62  1  0.12862638  0.87595996  0.74942867  1
  V  V63  1  0.87221784  0.00045056  0.38170475  1
  V  V64  1  0.50641686  0.86964652  0.86798724  1
  V  V65  1  0.25328830  0.62182819  0.37521761  1
  V  V66  1  0.12593796  -0.00127991  0.12922330  1
  V  V67  1  0.75235029  0.74900955  0.00174902  1
  V  V68  1  0.87759750  0.62760318  0.75127188  1
  V  V69  1  0.12298476  0.12542562  -0.00130743  1
  V  V70  1  0.87757276  0.63740601  0.24712878  1
  V  V71  1  0.49748059  0.49938861  0.00101524  1
  V  V72  1  0.11909935  0.00379550  0.62143978  1
  V  V73  1  0.25166982  0.87653649  0.62379234  1
  V  V74  1  0.74869210  0.62757585  0.87396809  1
  V  V75  1  0.74780401  0.49901671  0.24973703  1
  V  V76  1  0.81569317  0.42692964  0.55789113  1
  V  V77  1  0.74472624  -0.00248066  0.25730194  1
  V  V78  1  -0.00345117  -0.00236949  -0.00365800  1
  V  V79  1  0.24866030  0.49914333  0.74742214  1
  V  V80  1  0.50623956  0.61831271  0.62497662  1
  V  V81  1  0.12239895  0.24164338  0.87414995  1
  V  V82  1  0.37598588  0.74926799  0.62338474  1
  V  V83  1  0.63122787  0.38451448  0.73600224  1
  V  V84  1  0.50358317  -0.00448696  0.00057242  1
  Zn  Zn85  1  0.24499774  0.50130038  0.23942387  1
  Zn  Zn86  1  0.36796603  0.36459328  0.00093385  1
  Zn  Zn87  1  0.37663314  0.12942435  0.74975850  1
  Zn  Zn88  1  0.49665481  0.24896008  0.74737147  1
  Zn  Zn89  1  0.37279436  0.49688018  0.87579932  1
  Zn  Zn90  1  -0.00010843  0.37186973  0.37478002  1
  Zn  Zn91  1  0.66196873  0.87505654  0.74357967  1
  Zn  Zn92  1  0.37458112  0.36994467  0.48919066  1
  Zn  Zn93  1  0.37989830  0.24237848  0.61673718  1
  Zn  Zn94  1  0.12567604  0.49856689  0.62329665  1
  Zn  Zn95  1  0.13002791  0.25638478  0.37572933  1
  Zn  Zn96  1  0.25534392  0.87061300  0.13292516  1
  Zn  Zn97  1  0.50049408  0.12382964  0.63420199  1
  Zn  Zn98  1  0.75010108  0.50131273  0.73522499  1
  Zn  Zn99  1  0.62623548  0.12428118  0.49763109  1
  Zn  Zn100  1  0.12266619  0.39285413  0.24494906  1
  Zn  Zn101  1  0.87543612  0.24898714  0.12870759  1
  Zn  Zn102  1  0.12115682  0.74932003  0.37061901  1
  Zn  Zn103  1  0.49541269  0.63249487  0.12001881  1
  Zn  Zn104  1  0.62638249  0.75351947  0.37618022  1
  Zn  Zn105  1  -0.00451646  -0.00137763  0.50394657  1
  Zn  Zn106  1  0.37864475  0.49910102  0.37095269  1
  Zn  Zn107  1  0.19310089  0.18453476  0.18826112  1
  Zn  Zn108  1  0.18797669  0.18734368  0.68280806  1
  Zn  Zn109  1  0.18273674  0.68241574  0.18949777  1
  Zn  Zn110  1  0.18707891  0.68750482  0.68441601  1
  Zn  Zn111  1  0.69113267  0.18293562  0.18728117  1
  Zn  Zn112  1  0.68747085  0.18431430  0.68321676  1
  Zn  Zn113  1  0.68521286  0.68731289  0.18664418  1
  Zn  Zn114  1  0.68896508  0.69681683  0.68876301  1
  Zn  Zn115  1  0.31602814  0.31287409  0.30252919  1
  Zn  Zn116  1  0.31813438  0.31743069  0.80563020  1
  Zn  Zn117  1  0.31407011  0.80885527  0.31288941  1
  Zn  Zn118  1  0.31426956  0.81151513  0.81374645  1
  Zn  Zn119  1  0.81143127  0.31110480  0.31249805  1
  Zn  Zn120  1  0.81236680  0.31502229  0.80502444  1
  Zn  Zn121  1  0.81249861  0.81697047  0.31635963  1
  Zn  Zn122  1  0.80472069  0.80346304  0.79857503  1
  Zn  Zn123  1  0.18174246  0.44027116  0.42922668  1
  Zn  Zn124  1  0.18758690  0.43457000  0.94121702  1
  Zn  Zn125  1  0.18589042  0.93971093  0.43624115  1
  Zn  Zn126  1  0.18977697  0.93694313  0.94071645  1
  Zn  Zn127  1  0.67473288  0.44145171  0.43126275  1
  Zn  Zn128  1  0.68713680  0.44066072  0.93707080  1
  Zn  Zn129  1  0.68667431  0.93729377  0.44427137  1
  Zn  Zn130  1  0.68548742  0.93111337  0.93295038  1
  Zn  Zn131  1  0.31562712  0.05260821  0.06973212  1
  Zn  Zn132  1  0.31357682  0.06458510  0.56078273  1
  Zn  Zn133  1  0.31037960  0.55559373  0.06519659  1
  Zn  Zn134  1  0.31735466  0.55693027  0.55900573  1
  Zn  Zn135  1  0.80930352  0.05861238  0.06005508  1
  Zn  Zn136  1  0.80961572  0.06197519  0.56262456  1
  Zn  Zn137  1  0.81450481  0.56350083  0.06466888  1
  Zn  Zn138  1  0.81791934  0.59683311  0.55876165  1
  Zn  Zn139  1  0.42244187  0.43980707  0.18068803  1
  Zn  Zn140  1  0.43835744  0.43556543  0.68677907  1
  Zn  Zn141  1  0.44066922  0.93974267  0.18750381  1
  Zn  Zn142  1  0.43869631  0.94050981  0.68322872  1
  Zn  Zn143  1  0.93540964  0.43736207  0.18999876  1
  Zn  Zn144  1  0.94246703  0.43918518  0.69195813  1
  Zn  Zn145  1  0.93597484  0.93695330  0.19058783  1
  Zn  Zn146  1  0.93628720  0.93548260  0.68564994  1
  Zn  Zn147  1  0.06076195  0.05999397  0.31736122  1
  Zn  Zn148  1  0.05816538  0.06127242  0.81006749  1
  Zn  Zn149  1  0.05994600  0.56347203  0.31508904  1
  Zn  Zn150  1  0.06400448  0.56024046  0.81676364  1
  Zn  Zn151  1  0.56106192  0.06292268  0.31457731  1
  Zn  Zn152  1  0.56382880  0.06078383  0.81403675  1
  Zn  Zn153  1  0.55893171  0.56569126  0.31289698  1
  Zn  Zn154  1  0.56483155  0.56098756  0.81039288  1
  Zn  Zn155  1  0.43589097  0.19618373  0.43273308  1
  Zn  Zn156  1  0.46661247  0.20504144  0.96974944  1
  Zn  Zn157  1  0.43961742  0.68866559  0.43533431  1
  Zn  Zn158  1  0.43416403  0.68487765  0.93618683  1
  Zn  Zn159  1  0.93751749  0.18646382  0.43703820  1
  Zn  Zn160  1  0.93709083  0.18287336  0.93292913  1
  Zn  Zn161  1  0.93462493  0.68773680  0.43439525  1
  Zn  Zn162  1  0.93827314  0.68958981  0.93882905  1
  Zn  Zn163  1  0.06861806  0.30846283  0.06853596  1
  Zn  Zn164  1  0.06462051  0.31128056  0.56435723  1
  Zn  Zn165  1  0.06637749  0.81196524  0.06503696  1
  Zn  Zn166  1  0.06014616  0.81629009  0.55992985  1
  Zn  Zn167  1  0.56818451  0.31841324  0.06290083  1
  Zn  Zn168  1  0.56387972  0.30506406  0.56070998  1
  Zn  Zn169  1  0.56690920  0.81246923  0.06162829  1
  Zn  Zn170  1  0.56303315  0.81384826  0.56428857  1
  O  O171  1  0.11988490  0.11409435  0.11934648  1
  O  O172  1  0.13533600  0.11747613  0.60716553  1
  O  O173  1  0.11546804  0.62698917  0.11399994  1
  O  O174  1  0.11435158  0.62284841  0.61959263  1
  O  O175  1  0.63863305  0.10901288  0.11512015  1
  O  O176  1  0.62216329  0.11211590  0.62157252  1
  O  O177  1  0.62399257  0.61848546  0.11201464  1
  O  O178  1  0.61894987  0.63250278  0.62067121  1
  O  O179  1  0.39250747  0.37616430  0.36858078  1
  O  O180  1  0.38582338  0.37717915  0.88030572  1
  O  O181  1  0.38207386  0.86951949  0.38655533  1
  O  O182  1  0.37843628  0.87956247  0.88551247  1
  O  O183  1  0.87711693  0.38974375  0.37002488  1
  O  O184  1  0.87991321  0.38154842  0.87897464  1
  O  O185  1  0.88015980  0.87979603  0.38472070  1
  O  O186  1  0.88830238  0.87230675  0.88635047  1
  O  O187  1  0.24592033  0.00822633  0.36305444  1
  O  O188  1  0.26104319  -0.00938220  0.86676111  1
  O  O189  1  0.25398159  0.51474014  0.37598304  1
  O  O190  1  0.24776139  0.50418849  0.86415325  1
  O  O191  1  0.75515473  -0.00782995  0.36524651  1
  O  O192  1  0.74794080  0.02545373  0.90057735  1
  O  O193  1  0.75231451  0.50761173  0.36657399  1
  O  O194  1  0.76378793  0.50920414  0.87963992  1
  O  O195  1  0.25207845  0.48362206  0.12449796  1
  O  O196  1  0.24764951  0.49663712  0.63565496  1
  O  O197  1  0.24037248  0.99512333  0.13754859  1
  O  O198  1  0.24218456  0.99387848  0.63223516  1
  O  O199  1  0.74379264  0.49596726  0.13007512  1
  O  O200  1  0.76830102  0.49743100  0.61422571  1
  O  O201  1  0.74592212  0.98799059  0.13065190  1
  O  O202  1  0.73444383  0.99897051  0.62132190  1
  O  O203  1  -0.00058639  0.36235619  0.24726295  1
  O  O204  1  0.00586433  0.36677658  0.75693952  1
  O  O205  1  0.00758395  0.88037094  0.25971712  1
  O  O206  1  0.00682451  0.86641945  0.75420553  1
  O  O207  1  0.50157962  0.38187908  0.24951337  1
  O  O208  1  0.51217233  0.37628326  0.75737419  1
  O  O209  1  0.49242876  0.86394745  0.25813387  1
  O  O210  1  0.48644463  0.86267495  0.75620142  1
  O  O211  1  0.48219712  0.11139934  0.24980540  1
  O  O212  1  0.49663421  0.12881363  0.75581160  1
  O  O213  1  0.48950738  0.63596456  0.24761037  1
  O  O214  1  0.49228327  0.62581077  0.74397446  1
  O  O215  1  0.98959502  0.12523032  0.24538185  1
  O  O216  1  0.98521229  0.13384354  0.75599197  1
  O  O217  1  0.98551444  0.62361775  0.24401864  1
  O  O218  1  0.99847490  0.62913370  0.74521606  1
  O  O219  1  0.35938635  0.23851576  -0.01568552  1
  O  O220  1  0.37679264  0.25830495  0.50271395  1
  O  O221  1  0.36526839  0.75498694  -0.00281470  1
  O  O222  1  0.36990590  0.75570968  0.50562080  1
  O  O223  1  0.86929156  0.25408426  -0.00013485  1
  O  O224  1  0.86893276  0.24700154  0.50800460  1
  O  O225  1  0.86317044  0.75570469  -0.00164525  1
  O  O226  1  0.87264775  0.75438414  0.50371814  1
  O  O227  1  0.12182141  0.23563702  0.49815013  1
  O  O228  1  0.11739262  0.23342652  0.99206427  1
  O  O229  1  0.13237389  0.74499831  0.50063062  1
  O  O230  1  0.13245305  0.74258762  0.99540826  1
  O  O231  1  0.63432757  0.24831896  0.49032008  1
  O  O232  1  0.64623782  0.25876895  0.98325906  1
  O  O233  1  0.61539427  0.73665867  0.49647895  1
  O  O234  1  0.63801233  0.74173988  1.00050554  1
  O  O235  1  0.53572018  0.21080582  0.06324467  1
  O  O236  1  0.50161396  0.24333865  0.62924288  1
  O  O237  1  0.50357917  0.75238125  0.13797598  1
  O  O238  1  0.49253245  0.74060800  0.63159090  1
  O  O239  1  0.99609594  0.23880175  0.13073741  1
  O  O240  1  0.99062821  0.25505013  0.63529960  1
  O  O241  1  0.99884242  0.73767868  0.11957000  1
  O  O242  1  1.00875860  0.74433661  0.63840386  1
  O  O243  1  0.00018667  0.25178638  0.36656465  1
  O  O244  1  0.00462526  0.25348174  0.86596476  1
  O  O245  1  0.00056485  0.76277281  0.37726928  1
  O  O246  1  0.00996433  0.75361981  0.86864325  1
  O  O247  1  0.51318066  0.26462520  0.37220236  1
  O  O248  1  0.51428325  0.26408148  0.87796429  1
  O  O249  1  0.50097641  0.75819014  0.36463225  1
  O  O250  1  0.48606204  0.75894771  0.86575623  1
  O  O251  1  0.24337217  0.11631419  0.48301388  1
  O  O252  1  0.24310853  0.11876112  0.99711915  1
  O  O253  1  0.24622953  0.62903073  0.49501926  1
  O  O254  1  0.24304836  0.62837850  0.99785337  1
  O  O255  1  0.74921343  0.13732363  0.49666695  1
  O  O256  1  0.74290098  0.13981705  1.00051821  1
  O  O257  1  0.73976344  0.62551908  0.48766152  1
  O  O258  1  0.74625383  0.62966682  0.99611499  1
  O  O259  1  0.25041320  0.37354651  0.00966147  1
  O  O260  1  0.24749638  0.38669466  0.51225514  1
  O  O261  1  0.25785143  0.86437298  0.00251967  1
  O  O262  1  0.25714249  0.87184170  0.50188603  1
  O  O263  1  0.75788933  0.37261621  0.00523024  1
  O  O264  1  0.74964799  0.37531494  0.50046867  1
  O  O265  1  0.75635497  0.86596140  0.00459896  1
  O  O266  1  0.76379032  0.87127386  0.49660529  1
  O  O267  1  0.13085634  0.50784230  0.25346923  1
  O  O268  1  0.13082372  0.49304843  0.74955742  1
  O  O269  1  0.13164373  0.99368537  0.24498908  1
  O  O270  1  0.13132309  0.99586827  0.74467315  1
  O  O271  1  0.63209549  0.51137054  0.23670944  1
  O  O272  1  0.63059340  0.49007842  0.74796168  1
  O  O273  1  0.63549994  1.00620017  0.24204586  1
  O  O274  1  0.62456546  0.99362704  0.73894698  1
  O  O275  1  0.36023097  -0.00118214  0.24665577  1
  O  O276  1  0.36608438  -0.00123052  0.75836398  1
  O  O277  1  0.37325852  0.51845512  0.25228765  1
  O  O278  1  0.36623659  0.50500375  0.75172225  1
  O  O279  1  0.86754800  0.00333397  0.26056382  1
  O  O280  1  0.88024766  0.00483719  0.76073744  1
  O  O281  1  0.86715603  0.50864379  0.25649363  1
  O  O282  1  0.87597124  0.50973828  0.75815053  1
  O  O283  1  0.11874813  0.37200595  0.36627051  1
  O  O284  1  0.12089977  0.36073933  0.87085796  1
  O  O285  1  0.11526245  0.87520262  0.36909929  1
  O  O286  1  0.12281979  0.86926363  0.87065463  1
  O  O287  1  0.61166634  0.36827031  0.37000971  1
  O  O288  1  0.62158770  0.37269024  0.86899259  1
  O  O289  1  0.61299948  0.87250282  0.37985790  1
  O  O290  1  0.60881445  0.87637745  0.86512321  1
  O  O291  1  0.36995421  0.12315769  0.13701713  1
  O  O292  1  0.37773581  0.12281331  0.63023742  1
  O  O293  1  0.37459130  0.62691693  0.13599878  1
  O  O294  1  0.38204430  0.62905770  0.62871952  1
  O  O295  1  0.88072866  0.12132431  0.13056503  1
  O  O296  1  0.87090652  0.13142733  0.63417175  1
  O  O297  1  0.88005415  0.62283849  0.13867831  1
  O  O298  1  0.89007900  0.62902026  0.63658448  1
  O  O299  1  0.24472486  0.26290897  0.12763906  1
  O  O300  1  0.24793463  0.26710847  0.62641048  1
  O  O301  1  0.24367554  0.75092702  0.11449660  1
  O  O302  1  0.25554056  0.75551253  0.61830885  1
  O  O303  1  0.75141563  0.25951530  0.11780774  1
  O  O304  1  0.75917830  0.24953169  0.61391790  1
  O  O305  1  0.74579932  0.76101772  0.11942149  1
  O  O306  1  0.73748609  0.79492263  0.70736213  1
  O  O307  1  0.24760853  0.23494679  0.36595764  1
  O  O308  1  0.24242729  0.24363557  0.86966783  1
  O  O309  1  0.24822187  0.74058125  0.38243170  1
  O  O310  1  0.24505229  0.74259221  0.88280818  1
  O  O311  1  0.73611683  0.26106549  0.38166048  1
  O  O312  1  0.75206186  0.24523645  0.87945428  1
  O  O313  1  0.74561420  0.73730956  0.36511799  1
  O  O314  1  0.75531043  0.73254970  0.88350391  1
  O  O315  1  0.00436637  0.11657956  0.00410327  1
  O  O316  1  0.01531772  0.11891268  0.49520480  1
  O  O317  1  0.00489907  0.61872186  0.00647030  1
  O  O318  1  0.00026075  0.62008102  0.50792746  1
  O  O319  1  0.50954214  0.09883743  -0.02460479  1
  O  O320  1  0.49781183  0.11159135  0.49246278  1
  O  O321  1  0.50869978  0.62145891  -0.00105621  1
  O  O322  1  0.50407730  0.61795157  0.50721511  1
  O  O323  1  0.50568571  0.38855288  0.50430016  1
  O  O324  1  0.49871539  0.38365411  0.99383461  1
  O  O325  1  0.49310633  0.88039284  0.49310825  1
  O  O326  1  0.49587477  0.87730667  0.99046057  1
  O  O327  1  1.00347760  0.38808733  0.50093188  1
  O  O328  1  0.99683055  0.38030635  0.99744110  1
  O  O329  1  0.98971688  0.87745127  0.49285255  1
  O  O330  1  0.99414580  0.87716274  0.99906537  1
  O  O331  1  0.50366514  0.48688417  0.37880530  1
  O  O332  1  0.50270482  0.49083971  0.88147864  1
  O  O333  1  0.50401050  0.99023894  0.38721236  1
  O  O334  1  0.48732587  0.98617958  0.87500587  1
  O  O335  1  0.98662576  0.50504729  0.38703632  1
  O  O336  1  0.99039440  0.49444589  0.88262348  1
  O  O337  1  0.98885222  0.98864306  0.37706844  1
  O  O338  1  1.00304436  0.98923251  0.88214172  1
  O  O339  1  0.00584347  0.00349161  0.11892161  1
  O  O340  1  0.01556124  -0.00212360  0.62745286  1
  O  O341  1  -0.00748911  0.50808948  0.11492809  1
  O  O342  1  0.00016012  0.50845145  0.61815460  1
  O  O343  1  0.51129835  -0.00802015  0.11337315  1
  O  O344  1  0.50537420  0.00207721  0.61181622  1
  O  O345  1  0.50618124  0.50388958  0.11821785  1
  O  O346  1  0.49592913  0.51226167  0.61860738  1
  O  O347  1  0.24944148  0.37875104  0.23901276  1
  O  O348  1  0.24372667  0.38370288  0.74421566  1
  O  O349  1  0.24445378  0.88418695  0.25373651  1
  O  O350  1  0.24508717  0.88059760  0.74465943  1
  O  O351  1  0.75593474  0.38950949  0.24166563  1
  O  O352  1  0.73783449  0.38319817  0.75236387  1
  O  O353  1  0.75622310  0.88305978  0.24094311  1
  O  O354  1  0.76183930  0.90772826  0.82436503  1
  O  O355  1  0.25557643  0.11385759  0.25883950  1
  O  O356  1  0.24719823  0.11190102  0.74877266  1
  O  O357  1  0.26085679  0.63118071  0.25673467  1
  O  O358  1  0.25161352  0.61724101  0.75269419  1
  O  O359  1  0.76388295  0.11310605  0.24434285  1
  O  O360  1  0.76109491  0.13018217  0.76084251  1
  O  O361  1  0.75810318  0.61683243  0.25113766  1
  O  O362  1  0.75966386  0.62040190  0.75632380  1
  O  O363  1  0.36358501  0.12577959  0.36737355  1
  O  O364  1  0.36120948  0.11689861  0.87891088  1
  O  O365  1  0.36816884  0.62587187  0.36696568  1
  O  O366  1  0.36541247  0.62094547  0.86616295  1
  O  O367  1  0.87868177  0.11362513  0.36709303  1
  O  O368  1  0.86599232  0.11751440  0.86816293  1
  O  O369  1  0.86736540  0.61720402  0.36606853  1
  O  O370  1  0.87294578  0.61695657  0.87143026  1
  O  O371  1  0.13617157  0.37410875  0.12780852  1
  O  O372  1  0.13436264  0.37732752  0.63146926  1
  O  O373  1  0.12525232  0.88590716  0.13171719  1
  O  O374  1  0.13191882  0.88224212  0.62900919  1
  O  O375  1  0.63821182  0.38607848  0.12028924  1
  O  O376  1  0.62437780  0.37270684  0.63878908  1
  O  O377  1  0.63620107  0.88493301  0.12089999  1
  O  O378  1  0.61641407  0.89080610  0.62817319  1
  O  O379  1  0.10923164  0.23742047  0.25097499  1
  O  O380  1  0.11576976  0.24886320  0.75387514  1
  O  O381  1  0.13010331  0.76635118  0.24934458  1
  O  O382  1  0.12172861  0.75426795  0.75647358  1
  O  O383  1  0.63310379  0.24791206  0.25992462  1
  O  O384  1  0.63176883  0.26005614  0.75917499  1
  O  O385  1  0.60784161  0.74292622  0.25339513  1
  O  O386  1  0.60200091  0.74012801  0.75797883  1
  O  O387  1  0.38109505  0.23565951  0.24870019  1
  O  O388  1  0.37725774  0.24788197  0.74281242  1
  O  O389  1  0.38553519  0.73997517  0.25213060  1
  O  O390  1  0.37507153  0.74006226  0.74198151  1
  O  O391  1  0.88081752  0.23935885  0.25029288  1
  O  O392  1  0.87927050  0.24388045  0.74104077  1
  O  O393  1  0.87031155  0.73553448  0.25436338  1
  O  O394  1  0.89134220  0.73470230  0.76275418  1
  O  O395  1  0.38795252  0.49463229  0.49239346  1
  O  O396  1  0.39070002  0.50698192  0.99605821  1
  O  O397  1  0.38655600  0.99018479  0.50352450  1
  O  O398  1  0.38062955  0.99060383  0.99348083  1
  O  O399  1  0.87451940  0.49622258  0.49774661  1
  O  O400  1  0.88315057  0.49652135  0.99416096  1
  O  O401  1  0.87396227  0.99972380  0.49010087  1
  O  O402  1  0.87448984  0.98726220  0.98592348  1
  O  O403  1  0.12120379  0.00661166  0.00685073  1
  O  O404  1  0.12273677  0.00631067  0.50710179  1
  O  O405  1  0.11289791  0.50946739  -0.00950024  1
  O  O406  1  0.11448416  0.50969698  0.50003347  1
  O  O407  1  0.61902213  0.00172359  0.00662521  1
  O  O408  1  0.61392797  0.00228932  0.50684356  1
  O  O409  1  0.61674734  0.50604726  0.00809866  1
  O  O410  1  0.61473906  0.51516645  0.49740369  1
  O  O411  1  0.36297873  0.37067740  0.11609102  1
  O  O412  1  0.35886563  0.37902078  0.62451416  1
  O  O413  1  0.37437141  0.87969565  0.11098463  1
  O  O414  1  0.36971378  0.86915716  0.61498425  1
  O  O415  1  0.86417388  0.37505368  0.11835486  1
  O  O416  1  0.87330134  0.37062331  0.62265305  1
  O  O417  1  0.86846541  0.88060977  0.11332089  1
  O  O418  1  0.87833492  0.87654026  0.60987229  1
  O  O419  1  0.13294654  0.12395538  0.38528111  1
  O  O420  1  0.11970811  0.13285914  0.88038808  1
  O  O421  1  0.13140380  0.63107853  0.38286426  1
  O  O422  1  0.12887972  0.62993175  0.88604402  1
  O  O423  1  0.61986289  0.14227859  0.37566537  1
  O  O424  1  0.63170089  0.13834332  0.88351009  1
  O  O425  1  0.63179467  0.62588675  0.38139972  1
  O  O426  1  0.63529605  0.61512308  0.88681826  1
