# generated using pymatgen
data_V85Zn86O256
_symmetry_space_group_name_H-M   'P 1'
_cell_length_a   16.94993757
_cell_length_b   16.93689441
_cell_length_c   16.93993355
_cell_angle_alpha   90.00565798
_cell_angle_beta   89.98913028
_cell_angle_gamma   89.99806977
_symmetry_Int_Tables_number   1
_chemical_formula_structural   V85Zn86O256
_chemical_formula_sum   'V85 Zn86 O256'
_cell_volume   4863.10419928
_cell_formula_units_Z   1
loop_
 _symmetry_equiv_pos_site_id
 _symmetry_equiv_pos_as_xyz
  1  'x, y, z'
loop_
 _atom_site_type_symbol
 _atom_site_label
 _atom_site_symmetry_multiplicity
 _atom_site_fract_x
 _atom_site_fract_y
 _atom_site_fract_z
 _atom_site_occupancy
  V  V0  1  0.37524468  0.61998003  0.74405734  1
  V  V1  1  0.12466413  0.87601857  0.25263845  1
  V  V2  1  0.86964447  0.12049467  0.26565062  1
  V  V3  1  0.49772447  0.49780219  -0.00461800  1
  V  V4  1  0.24702019  0.00716169  0.25484940  1
  V  V5  1  0.25244388  0.61688870  0.37719587  1
  V  V6  1  0.25098995  0.61587844  0.87434135  1
  V  V7  1  0.49201536  0.49927221  0.49134945  1
  V  V8  1  0.50843685  0.37383471  0.86831644  1
  V  V9  1  0.62353685  0.49968203  0.12529298  1
  V  V10  1  0.50245623  0.00357619  0.49894181  1
  V  V11  1  0.76438012  0.61233548  0.86639613  1
  V  V12  1  0.24699078  0.75001849  -0.00809317  1
  V  V13  1  -0.00743047  0.00415375  0.50101800  1
  V  V14  1  0.87208470  0.37630619  0.49811501  1
  V  V15  1  0.00139621  0.00107988  -0.00144460  1
  V  V16  1  0.13352618  0.13083183  0.00097874  1
  V  V17  1  -0.00010244  0.75065930  0.25214627  1
  V  V18  1  0.37531284  0.25051363  0.62099429  1
  V  V19  1  0.38102066  0.12949371  0.24787838  1
  V  V20  1  0.62883516  0.23762362  0.37510136  1
  V  V21  1  0.13026956  0.37963572  0.75264743  1
  V  V22  1  0.49385557  0.75265444  0.73884318  1
  V  V23  1  0.62509960  0.00278161  0.13139203  1
  V  V24  1  0.37465168  0.74957312  0.12540816  1
  V  V25  1  0.62568637  0.36702451  0.24923304  1
  V  V26  1  0.00352685  0.51383234  0.49930430  1
  V  V27  1  0.50212529  0.87476958  0.37051037  1
  V  V28  1  0.50175729  0.75240068  0.24933750  1
  V  V29  1  0.24922013  0.24649014  0.49307525  1
  V  V30  1  0.87126622  0.24812311  0.11891754  1
  V  V31  1  0.87215571  0.62983366  0.25046304  1
  V  V32  1  0.62884577  -0.00142298  0.62469997  1
  V  V33  1  0.00386358  0.13032310  0.63042302  1
  V  V34  1  0.25090638  0.37757524  0.62604728  1
  V  V35  1  0.37250841  0.36344262  -0.00432440  1
  V  V36  1  0.51233085  0.25247783  0.74470107  1
  V  V37  1  0.37419063  0.12560605  0.74872946  1
  V  V38  1  0.74697991  0.22997379  -0.00576072  1
  V  V39  1  0.87647603  0.87335077  -0.00086752  1
  V  V40  1  0.13064487  0.50228286  0.12702875  1
  V  V41  1  0.12314215  0.62715147  -0.00462504  1
  V  V42  1  -0.00167906  0.12620305  0.12566813  1
  V  V43  1  0.24878608  0.87367866  0.12630432  1
  V  V44  1  0.74565781  0.75033852  -0.00865887  1
  V  V45  1  0.62739783  0.23313335  0.87500811  1
  V  V46  1  0.37548390  -0.00128375  0.87585621  1
  V  V47  1  0.37507437  0.87519142  0.00036772  1
  V  V48  1  0.78791253  0.41317421  0.67915813  1
  V  V49  1  0.12403366  0.00022275  0.12539024  1
  V  V50  1  0.12590895  0.50173220  0.62084318  1
  V  V51  1  0.37447552  0.87131870  0.50346121  1
  V  V52  1  0.86990404  0.00502094  0.87607081  1
  V  V53  1  0.25048330  0.74694990  0.50065249  1
  V  V54  1  0.05013664  0.67931359  0.68529589  1
  V  V55  1  0.25097089  0.36591523  0.12154830  1
  V  V56  1  0.00626604  0.86535704  0.86823186  1
  V  V57  1  0.86699089  0.12765592  0.75545021  1
  V  V58  1  0.62838591  0.86778436  0.75398703  1
  V  V59  1  0.87418891  0.49955372  0.37151340  1
  V  V60  1  -0.01087456  0.37767615  0.88240696  1
  V  V61  1  0.62560648  0.74986060  0.37377648  1
  V  V62  1  0.13327147  0.25401385  0.87775365  1
  V  V63  1  0.50474169  0.12413903  0.62082800  1
  V  V64  1  0.74432968  0.87309697  0.12802384  1
  V  V65  1  -0.00051041  0.62565097  0.12478914  1
  V  V66  1  0.24435264  0.00021901  0.75139130  1
  V  V67  1  0.12504232  0.74326532  0.37997381  1
  V  V68  1  0.37632855  0.61747353  0.25380942  1
  V  V69  1  0.50389434  0.86633203  0.87702401  1
  V  V70  1  0.85532608  0.24650205  0.62155570  1
  V  V71  1  0.36906550  0.00400626  0.37600726  1
  V  V72  1  0.74878935  0.37494441  0.10952134  1
  V  V73  1  -0.00262339  0.26033105  0.24850075  1
  V  V74  1  0.62334827  0.62843289  -0.01245696  1
  V  V75  1  0.25138827  0.87362766  0.62649426  1
  V  V76  1  -0.00405581  0.87970056  0.37742191  1
  V  V77  1  0.87293799  0.87478904  0.50837659  1
  V  V78  1  0.62580581  0.62164936  0.50289331  1
  V  V79  1  0.12701763  0.12449728  0.49239175  1
  V  V80  1  0.49392830  0.37112451  0.36629418  1
  V  V81  1  0.61748158  0.48147294  0.63068098  1
  V  V82  1  0.50710939  0.00654105  0.00007582  1
  V  V83  1  0.86969492  0.73469392  0.63711844  1
  V  V84  1  0.50093376  0.62619326  0.12350041  1
  Zn  Zn85  1  0.74878619  0.50034627  0.24889497  1
  Zn  Zn86  1  0.12285684  -0.00140085  0.62735709  1
  Zn  Zn87  1  0.75417122  0.87397105  0.63166736  1
  Zn  Zn88  1  0.38005991  0.24875693  0.12293617  1
  Zn  Zn89  1  0.74524329  0.00573708  0.26134194  1
  Zn  Zn90  1  0.12743675  0.37522238  0.24912081  1
  Zn  Zn91  1  0.25391276  0.12981788  0.88012674  1
  Zn  Zn92  1  0.12535375  0.25056149  0.37056069  1
  Zn  Zn93  1  0.74811348  0.25048491  0.48923014  1
  Zn  Zn94  1  0.74519626  0.00397820  0.75746598  1
  Zn  Zn95  1  -0.00052026  0.25230297  0.75092174  1
  Zn  Zn96  1  0.50978472  0.13664784  0.12362453  1
  Zn  Zn97  1  0.37363729  0.49463497  0.86858651  1
  Zn  Zn98  1  0.75004525  0.62781948  0.37404199  1
  Zn  Zn99  1  0.87193649  0.75179249  0.12606544  1
  Zn  Zn100  1  -0.02071334  0.50279458  -0.00771269  1
  Zn  Zn101  1  0.00353906  0.37604842  0.37688642  1
  Zn  Zn102  1  0.37088364  0.37835105  0.49274349  1
  Zn  Zn103  1  0.25447134  0.49592152  0.25368058  1
  Zn  Zn104  1  0.49648524  0.62760422  0.61986422  1
  Zn  Zn105  1  0.12495726  0.85800728  0.75226248  1
  Zn  Zn106  1  0.75010159  0.74816865  0.50334676  1
  Zn  Zn107  1  0.18834743  0.18808675  0.18796781  1
  Zn  Zn108  1  0.18711823  0.19149788  0.68627409  1
  Zn  Zn109  1  0.18877862  0.68761805  0.18948386  1
  Zn  Zn110  1  0.21048191  0.68464943  0.68303211  1
  Zn  Zn111  1  0.68827100  0.18654208  0.18903112  1
  Zn  Zn112  1  0.69469568  0.19299871  0.66969144  1
  Zn  Zn113  1  0.68726492  0.68983748  0.18573372  1
  Zn  Zn114  1  0.68604108  0.68502741  0.68938468  1
  Zn  Zn115  1  0.30889840  0.31217444  0.31077987  1
  Zn  Zn116  1  0.31526743  0.31223326  0.80914845  1
  Zn  Zn117  1  0.31399482  0.81224906  0.31343834  1
  Zn  Zn118  1  0.31481254  0.80978255  0.81211027  1
  Zn  Zn119  1  0.81042156  0.31376873  0.30734921  1
  Zn  Zn120  1  0.81126780  0.30741055  0.81666536  1
  Zn  Zn121  1  0.79012854  0.84905234  0.33676990  1
  Zn  Zn122  1  0.81389190  0.81010344  0.81394413  1
  Zn  Zn123  1  0.18310494  0.43367338  0.43830041  1
  Zn  Zn124  1  0.18560270  0.44014772  0.94290410  1
  Zn  Zn125  1  0.18303133  0.93797952  0.43947046  1
  Zn  Zn126  1  0.18588012  0.93890386  0.93546981  1
  Zn  Zn127  1  0.68684473  0.43675490  0.43598544  1
  Zn  Zn128  1  0.68483387  0.43477716  0.93001075  1
  Zn  Zn129  1  0.68526152  0.94211690  0.44165537  1
  Zn  Zn130  1  0.68671037  0.94003690  0.93950503  1
  Zn  Zn131  1  0.31364327  0.06045219  0.06546185  1
  Zn  Zn132  1  0.31133722  0.06170773  0.56361205  1
  Zn  Zn133  1  0.31382276  0.55954514  0.06169516  1
  Zn  Zn134  1  0.31206771  0.56177528  0.56207053  1
  Zn  Zn135  1  0.81238605  0.05938983  0.06752796  1
  Zn  Zn136  1  0.81376573  0.06686919  0.56864281  1
  Zn  Zn137  1  0.80995782  0.56432837  0.05668692  1
  Zn  Zn138  1  0.80747878  0.55890003  0.56148815  1
  Zn  Zn139  1  0.43765706  0.43347386  0.18451058  1
  Zn  Zn140  1  0.43920438  0.43730002  0.68302465  1
  Zn  Zn141  1  0.43811819  0.94019525  0.18760836  1
  Zn  Zn142  1  0.43637051  0.93751033  0.68744659  1
  Zn  Zn143  1  0.92124447  0.45044101  0.15821121  1
  Zn  Zn144  1  0.95562811  0.43579555  0.68585398  1
  Zn  Zn145  1  0.93461257  0.93856778  0.18753433  1
  Zn  Zn146  1  0.93788458  0.93939838  0.68967624  1
  Zn  Zn147  1  0.05497753  0.06547162  0.31345036  1
  Zn  Zn148  1  0.05994659  0.06385254  0.81698582  1
  Zn  Zn149  1  0.06260097  0.56132763  0.31119293  1
  Zn  Zn150  1  0.06653200  0.55460159  0.81701798  1
  Zn  Zn151  1  0.56056398  0.05829095  0.30846100  1
  Zn  Zn152  1  0.55914582  0.05737973  0.80861650  1
  Zn  Zn153  1  0.56307696  0.56078281  0.31272771  1
  Zn  Zn154  1  0.56189139  0.56423396  0.80878053  1
  Zn  Zn155  1  0.43868916  0.18917788  0.43218520  1
  Zn  Zn156  1  0.44136956  0.18683387  0.93423974  1
  Zn  Zn157  1  0.43651575  0.68702084  0.43728183  1
  Zn  Zn158  1  0.43498783  0.68731652  0.93350629  1
  Zn  Zn159  1  0.94008310  0.19116617  0.43762995  1
  Zn  Zn160  1  0.94196693  0.19268777  0.93824670  1
  Zn  Zn161  1  0.93334193  0.69145375  0.43985898  1
  Zn  Zn162  1  0.93455479  0.68793495  0.93544447  1
  Zn  Zn163  1  0.06311404  0.31323323  0.06206056  1
  Zn  Zn164  1  0.05809260  0.31409237  0.56042162  1
  Zn  Zn165  1  0.06229211  0.81116155  0.06060112  1
  Zn  Zn166  1  0.06496866  0.81558047  0.56177591  1
  Zn  Zn167  1  0.56337207  0.30869831  0.05783541  1
  Zn  Zn168  1  0.55984492  0.30978985  0.54964555  1
  Zn  Zn169  1  0.56509746  0.81435088  0.06130962  1
  Zn  Zn170  1  0.56452805  0.81451678  0.56123181  1
  O  O171  1  0.12005954  0.12033888  0.11942136  1
  O  O172  1  0.11498111  0.12637479  0.61946707  1
  O  O173  1  0.12129313  0.62207237  0.12007069  1
  O  O174  1  0.12200079  0.62066864  0.63369868  1
  O  O175  1  0.62582522  0.10875286  0.12875420  1
  O  O176  1  0.61036978  0.11634257  0.63168741  1
  O  O177  1  0.61890143  0.61700959  0.11768114  1
  O  O178  1  0.62172204  0.62106789  0.61272945  1
  O  O179  1  0.38968246  0.36991012  0.37120555  1
  O  O180  1  0.38385908  0.37569735  0.87875960  1
  O  O181  1  0.38198251  0.88416514  0.38140448  1
  O  O182  1  0.38127976  0.87980920  0.88071165  1
  O  O183  1  0.87832620  0.38363460  0.37646239  1
  O  O184  1  0.89123402  0.36733715  0.87440904  1
  O  O185  1  0.89282643  0.86177008  0.39022303  1
  O  O186  1  0.88267027  0.88158719  0.88381147  1
  O  O187  1  0.25745439  -0.00730749  0.36776686  1
  O  O188  1  0.25719068  0.00213199  0.86767182  1
  O  O189  1  0.24527649  0.51371374  0.37699418  1
  O  O190  1  0.25427045  0.51193786  0.88115274  1
  O  O191  1  0.75640276  -0.04286783  0.36108039  1
  O  O192  1  0.76533890  -0.00153314  0.87796401  1
  O  O193  1  0.76257997  0.50158105  0.37125338  1
  O  O194  1  0.74862753  0.51380881  0.88361288  1
  O  O195  1  0.24460857  0.49386172  0.12630776  1
  O  O196  1  0.23784831  0.49172455  0.61532187  1
  O  O197  1  0.24318453  0.99226640  0.13363874  1
  O  O198  1  0.24758919  0.99306819  0.63412262  1
  O  O199  1  0.73466403  0.49328567  0.12254416  1
  O  O200  1  0.73307549  0.48357537  0.61841443  1
  O  O201  1  0.73918862  0.99184285  0.12648684  1
  O  O202  1  0.73724271  0.99955074  0.62691922  1
  O  O203  1  -0.00468979  0.36340620  0.24036126  1
  O  O204  1  0.01250707  0.37261693  0.76240606  1
  O  O205  1  0.00259084  0.87219793  0.25895586  1
  O  O206  1  0.00476750  0.88013951  0.76414820  1
  O  O207  1  0.50732156  0.37969993  0.25943073  1
  O  O208  1  0.49231484  0.36237349  0.75549837  1
  O  O209  1  0.49214067  0.86806646  0.26084276  1
  O  O210  1  0.50187686  0.86968323  0.75694249  1
  O  O211  1  0.48377694  0.11514782  0.24381423  1
  O  O212  1  0.49012335  0.12866627  0.74147200  1
  O  O213  1  0.49444177  0.63075653  0.24494163  1
  O  O214  1  0.49156979  0.63560739  0.74879917  1
  O  O215  1  0.99037640  0.13306063  0.24318920  1
  O  O216  1  0.99728535  0.12829887  0.74407690  1
  O  O217  1  0.99582570  0.63184880  0.24383451  1
  O  O218  1  1.00028826  0.62052323  0.74780039  1
  O  O219  1  0.37571686  0.26037417  -0.00484645  1
  O  O220  1  0.36777604  0.24870243  0.50417586  1
  O  O221  1  0.36804772  0.75484621  0.00576339  1
  O  O222  1  0.36863056  0.76530750  0.49233181  1
  O  O223  1  0.86081269  0.24523369  0.00569033  1
  O  O224  1  0.87546872  0.25897544  0.50626649  1
  O  O225  1  0.86814706  0.75902746  0.00290520  1
  O  O226  1  0.87463946  0.75823558  0.51373767  1
  O  O227  1  0.13102074  0.24232841  0.50076046  1
  O  O228  1  0.12409652  0.24146174  0.99312012  1
  O  O229  1  0.13638581  0.75578724  0.49081879  1
  O  O230  1  0.13390037  0.73744703  1.00573606  1
  O  O231  1  0.62797447  0.24892250  0.48159039  1
  O  O232  1  0.63734813  0.24737946  0.98991268  1
  O  O233  1  0.62234270  0.74115983  0.49186968  1
  O  O234  1  0.63127552  0.73986509  1.00219243  1
  O  O235  1  0.49482767  0.24833676  0.11992369  1
  O  O236  1  0.49697834  0.24213170  0.62596167  1
  O  O237  1  0.49616879  0.74624511  0.12925607  1
  O  O238  1  0.49894704  0.75163720  0.63487700  1
  O  O239  1  0.98992969  0.24566787  0.12657578  1
  O  O240  1  0.99023874  0.24295352  0.62600506  1
  O  O241  1  1.00133207  0.74093417  0.13160122  1
  O  O242  1  0.99428807  0.74269227  0.62327790  1
  O  O243  1  0.00039983  0.25387253  0.36266404  1
  O  O244  1  0.01399393  0.26099666  0.87445934  1
  O  O245  1  0.00943840  0.75402642  0.37276545  1
  O  O246  1  -0.00432385  0.76708208  0.87929682  1
  O  O247  1  0.51066192  0.26325755  0.37625769  1
  O  O248  1  0.50715943  0.25332887  0.86441540  1
  O  O249  1  0.50270877  0.75698554  0.36997299  1
  O  O250  1  0.49612880  0.76264671  0.86836266  1
  O  O251  1  0.23863042  0.13199924  0.50855821  1
  O  O252  1  0.23766939  0.11756846  1.00020497  1
  O  O253  1  0.25969806  0.63861593  0.49241787  1
  O  O254  1  0.24594040  0.63123166  0.99441782  1
  O  O255  1  0.76494675  0.17063606  0.57097531  1
  O  O256  1  0.74965647  0.13182476  1.00137999  1
  O  O257  1  0.73966041  0.62605635  0.49561203  1
  O  O258  1  0.74114880  0.63199569  0.99568277  1
  O  O259  1  0.26200697  0.38268255  0.00739357  1
  O  O260  1  0.25078215  0.36660893  0.50881628  1
  O  O261  1  0.25223902  0.86748987  0.00371284  1
  O  O262  1  0.25506272  0.87098381  0.50621582  1
  O  O263  1  0.74252777  0.36752801  0.00783771  1
  O  O264  1  0.76593676  0.37314886  0.49265268  1
  O  O265  1  0.75714632  0.86903981  0.00366659  1
  O  O266  1  0.76428127  0.87450640  0.50707876  1
  O  O267  1  0.13084383  0.50092229  0.23866480  1
  O  O268  1  0.12537184  0.48675876  0.74076272  1
  O  O269  1  0.12935656  0.99713789  0.24814649  1
  O  O270  1  0.13834019  1.00336250  0.75240349  1
  O  O271  1  0.62475228  0.49199309  0.24005750  1
  O  O272  1  0.61423522  0.50206221  0.72850885  1
  O  O273  1  0.62524822  0.99531908  0.23681326  1
  O  O274  1  0.62357293  0.98885481  0.74235741  1
  O  O275  1  0.36602225  0.00445835  0.25685869  1
  O  O276  1  0.36681250  0.00616174  0.75402110  1
  O  O277  1  0.37592609  0.51401381  0.24346417  1
  O  O278  1  0.38541230  0.51519333  0.75136448  1
  O  O279  1  0.87693706  0.01799004  0.24493560  1
  O  O280  1  0.87351961  0.00788247  0.75944919  1
  O  O281  1  0.87589164  0.51244244  0.25357730  1
  O  O282  1  0.85535136  0.47808158  0.71658242  1
  O  O283  1  0.12083706  0.37132985  0.36679535  1
  O  O284  1  0.12833451  0.37164345  0.86875595  1
  O  O285  1  0.11521981  0.86715604  0.37225038  1
  O  O286  1  0.11165810  0.87579316  0.87384342  1
  O  O287  1  0.61844491  0.36913726  0.36500096  1
  O  O288  1  0.61196580  0.36237247  0.87678364  1
  O  O289  1  0.60783694  0.86490981  0.38580526  1
  O  O290  1  0.61533613  0.88146607  0.86700721  1
  O  O291  1  0.37394298  0.12405405  0.13815031  1
  O  O292  1  0.38510201  0.12660759  0.63025178  1
  O  O293  1  0.38186469  0.63086885  0.12915533  1
  O  O294  1  0.37482313  0.62368349  0.63895029  1
  O  O295  1  0.87958663  0.13399342  0.12743914  1
  O  O296  1  0.89012820  0.12926849  0.63780533  1
  O  O297  1  0.88400016  0.63036414  0.13234691  1
  O  O298  1  0.86757534  0.63559607  0.62402932  1
  O  O299  1  0.25408775  0.26217399  0.12625168  1
  O  O300  1  0.25594216  0.25649946  0.61618461  1
  O  O301  1  0.25479933  0.75495111  0.11682685  1
  O  O302  1  0.25343005  0.75982425  0.61211652  1
  O  O303  1  0.75078256  0.25197941  0.11212136  1
  O  O304  1  0.76388096  0.29243069  0.64988970  1
  O  O305  1  0.74912142  0.75546698  0.11107382  1
  O  O306  1  0.75879211  0.75194833  0.62508148  1
  O  O307  1  0.24804281  0.25263686  0.38906304  1
  O  O308  1  0.23866259  0.24807824  0.86902253  1
  O  O309  1  0.24360213  0.74571348  0.38088542  1
  O  O310  1  0.25470157  0.74202289  0.88756662  1
  O  O311  1  0.73490194  0.25070607  0.37152641  1
  O  O312  1  0.74298371  0.24747551  0.88649965  1
  O  O313  1  0.73776072  0.75369825  0.37985058  1
  O  O314  1  0.75509941  0.74165328  0.88712570  1
  O  O315  1  0.00944556  0.12071576  0.00667165  1
  O  O316  1  0.00371911  0.12019526  0.50782416  1
  O  O317  1  0.00630529  0.62482925  0.00601357  1
  O  O318  1  -0.00326822  0.61327142  0.49568776  1
  O  O319  1  0.49242018  0.10946764  0.00224716  1
  O  O320  1  0.49199971  0.11174644  0.50557374  1
  O  O321  1  0.50451978  0.61943253  0.00240042  1
  O  O322  1  0.50463226  0.61726064  0.49836176  1
  O  O323  1  0.49640657  0.38154007  0.48477800  1
  O  O324  1  0.49404926  0.38132838  0.98976362  1
  O  O325  1  0.49071468  0.88392906  0.49658612  1
  O  O326  1  0.49529036  0.88090248  0.99316625  1
  O  O327  1  0.98873984  0.38413483  0.49709647  1
  O  O328  1  1.00751188  0.37737586  0.98547532  1
  O  O329  1  0.99480905  0.88458027  0.49813076  1
  O  O330  1  0.99434380  0.88022222  0.99428615  1
  O  O331  1  0.50637373  0.48538414  0.37998639  1
  O  O332  1  0.50174052  0.49114338  0.87949831  1
  O  O333  1  0.49436765  0.99276360  0.38120884  1
  O  O334  1  0.49431862  0.99088877  0.88184035  1
  O  O335  1  0.99031290  0.50007036  0.37889453  1
  O  O336  1  1.00103996  0.48476933  0.87882239  1
  O  O337  1  1.00321488  0.99119114  0.38636503  1
  O  O338  1  0.99179122  0.99238633  0.88266991  1
  O  O339  1  0.00606704  0.00470826  0.11926878  1
  O  O340  1  0.00303709  0.00940245  0.61972029  1
  O  O341  1  0.01472623  0.51706114  0.13139201  1
  O  O342  1  0.01627558  0.49798637  0.61398460  1
  O  O343  1  0.51151565  -0.00257889  0.11803572  1
  O  O344  1  0.50592373  0.00425801  0.61851202  1
  O  O345  1  0.50759426  0.50295159  0.11649510  1
  O  O346  1  0.50667023  0.50194256  0.61217155  1
  O  O347  1  0.25094670  0.37856018  0.23890416  1
  O  O348  1  0.24713448  0.37120656  0.73469133  1
  O  O349  1  0.24473021  0.88241346  0.24659754  1
  O  O350  1  0.24818617  0.87950372  0.74505457  1
  O  O351  1  0.73988466  0.37819162  0.23817368  1
  O  O352  1  0.74343136  0.38672955  0.76491943  1
  O  O353  1  0.76148305  0.86548825  0.22693078  1
  O  O354  1  0.74105564  0.87858495  0.75278274  1
  O  O355  1  0.25618815  0.11165186  0.24723389  1
  O  O356  1  0.26044618  0.11873327  0.74686433  1
  O  O357  1  0.25960781  0.62575920  0.25862435  1
  O  O358  1  0.26589931  0.62611604  0.75987046  1
  O  O359  1  0.76488884  0.12299690  0.24838764  1
  O  O360  1  0.76377590  0.12503804  0.74479557  1
  O  O361  1  0.75862039  0.62388999  0.24994571  1
  O  O362  1  0.74385098  0.62789058  0.76871060  1
  O  O363  1  0.37996930  0.11156438  0.36500091  1
  O  O364  1  0.37439847  0.11939724  0.86510820  1
  O  O365  1  0.36573098  0.63150536  0.36485649  1
  O  O366  1  0.36926557  0.62082964  0.86673434  1
  O  O367  1  0.87737853  0.12599418  0.36484542  1
  O  O368  1  0.88656975  0.11799617  0.86669968  1
  O  O369  1  0.87319981  0.62003728  0.36738474  1
  O  O370  1  0.86482752  0.61938009  0.87964064  1
  O  O371  1  0.13347636  0.38431201  0.12333278  1
  O  O372  1  0.13111899  0.37992822  0.63074679  1
  O  O373  1  0.12844253  0.88010634  0.13146227  1
  O  O374  1  0.13670666  0.87702050  0.63060738  1
  O  O375  1  0.62905881  0.38029185  0.12908667  1
  O  O376  1  0.61131764  0.38201982  0.62343435  1
  O  O377  1  0.63424246  0.88482068  0.12023087  1
  O  O378  1  0.62632460  0.88257302  0.63299329  1
  O  O379  1  0.11277120  0.24971957  0.24785453  1
  O  O380  1  0.12455234  0.26143895  0.75587343  1
  O  O381  1  0.12067099  0.75790592  0.25756778  1
  O  O382  1  0.11732089  0.73873905  0.73761975  1
  O  O383  1  0.62692934  0.25977953  0.25600570  1
  O  O384  1  0.61576185  0.24279100  0.75007906  1
  O  O385  1  0.61692057  0.74324811  0.26361677  1
  O  O386  1  0.61439353  0.76205945  0.74581192  1
  O  O387  1  0.36825521  0.23085825  0.25336923  1
  O  O388  1  0.38251825  0.24043915  0.74185642  1
  O  O389  1  0.38058382  0.74221971  0.24360218  1
  O  O390  1  0.38338971  0.73797625  0.75406127  1
  O  O391  1  0.87915543  0.23847179  0.24370864  1
  O  O392  1  0.87808590  0.24277003  0.74469423  1
  O  O393  1  0.88349949  0.73852044  0.24988135  1
  O  O394  1  0.87601974  0.75237131  0.73563531  1
  O  O395  1  0.38777499  0.49943837  0.50071461  1
  O  O396  1  0.38862938  0.49482121  0.99774264  1
  O  O397  1  0.37803207  0.99263955  0.49298393  1
  O  O398  1  0.38030297  0.99204241  0.99664299  1
  O  O399  1  0.88011680  0.49592602  0.49188062  1
  O  O400  1  0.88446073  0.48414350  1.04963333  1
  O  O401  1  0.88473839  0.99549923  0.50960250  1
  O  O402  1  0.88140478  0.99465815  0.99620722  1
  O  O403  1  0.11944242  0.00611757  0.00508747  1
  O  O404  1  0.11494852  0.00733543  0.50414693  1
  O  O405  1  0.12418607  0.51358030  0.01185697  1
  O  O406  1  0.11618020  0.49879710  0.50660616  1
  O  O407  1  0.61631607  -0.00361685  0.01083766  1
  O  O408  1  0.61412410  -0.00354413  0.50977675  1
  O  O409  1  0.61353053  0.50400331  0.00471398  1
  O  O410  1  0.61607804  0.50416487  0.50474877  1
  O  O411  1  0.36849057  0.37428358  0.11427324  1
  O  O412  1  0.36782402  0.36969020  0.62016838  1
  O  O413  1  0.36886760  0.87097542  0.11998457  1
  O  O414  1  0.36295247  0.88246081  0.61644363  1
  O  O415  1  0.85889403  0.35416557  0.13707646  1
  O  O416  1  0.87853384  0.36766532  0.61639700  1
  O  O417  1  0.87180075  0.87562624  0.11118953  1
  O  O418  1  0.87745495  0.86773998  0.62132011  1
  O  O419  1  0.11913426  0.12725144  0.38882228  1
  O  O420  1  0.12633881  0.13393776  0.88402905  1
  O  O421  1  0.13403759  0.63749012  0.36776248  1
  O  O422  1  0.13470971  0.62057682  0.88411110  1
  O  O423  1  0.61748243  0.13865622  0.36563892  1
  O  O424  1  0.61755857  0.13360164  0.87026990  1
  O  O425  1  0.62487138  0.63098531  0.38442086  1
  O  O426  1  0.62565374  0.62203708  0.88581568  1
