# generated using pymatgen
data_V85Zn86O256
_symmetry_space_group_name_H-M   'P 1'
_cell_length_a   16.94399992
_cell_length_b   16.96082966
_cell_length_c   16.96120735
_cell_angle_alpha   89.98611753
_cell_angle_beta   90.00916423
_cell_angle_gamma   90.02645496
_symmetry_Int_Tables_number   1
_chemical_formula_structural   V85Zn86O256
_chemical_formula_sum   'V85 Zn86 O256'
_cell_volume   4874.38391403
_cell_formula_units_Z   1
loop_
 _symmetry_equiv_pos_site_id
 _symmetry_equiv_pos_as_xyz
  1  'x, y, z'
loop_
 _atom_site_type_symbol
 _atom_site_label
 _atom_site_symmetry_multiplicity
 _atom_site_fract_x
 _atom_site_fract_y
 _atom_site_fract_z
 _atom_site_occupancy
  V  V0  1  0.75116013  0.87569558  0.12447971  1
  V  V1  1  0.01188920  0.75277731  0.75301398  1
  V  V2  1  0.87367325  0.49381914  0.87584639  1
  V  V3  1  0.00181208  0.74564522  0.24523191  1
  V  V4  1  0.00105185  0.87215554  0.37370541  1
  V  V5  1  0.26708363  0.00047410  0.75244063  1
  V  V6  1  0.87607289  0.49685789  0.37131386  1
  V  V7  1  0.74984337  0.49846065  0.24627673  1
  V  V8  1  0.74816997  0.87807447  0.62427514  1
  V  V9  1  0.73608749  0.13003043  0.88888886  1
  V  V10  1  0.37712061  0.87373044  0.50008906  1
  V  V11  1  0.26556441  0.12085872  0.87446946  1
  V  V12  1  0.24589729  0.25167604  0.49954557  1
  V  V13  1  0.87750489  0.00056217  0.87547491  1
  V  V14  1  0.49757007  0.88410530  0.87658260  1
  V  V15  1  0.50339186  0.74189368  0.74633460  1
  V  V16  1  0.12524410  0.11475915  0.00488699  1
  V  V17  1  0.56617698  0.33798501  0.84927931  1
  V  V18  1  0.24531719  0.51120291  0.25216760  1
  V  V19  1  0.74606741  0.37690390  0.62170279  1
  V  V20  1  0.87665387  0.74895133  0.62509584  1
  V  V21  1  0.24358737  0.75051277  -0.00480469  1
  V  V22  1  0.75738240  0.13094642  0.37047527  1
  V  V23  1  0.24770933  0.87771377  0.12345734  1
  V  V24  1  0.25732394  0.37407654  0.62844744  1
  V  V25  1  -0.00122222  0.49906417  0.49722981  1
  V  V26  1  0.24741424  0.50252881  0.75151016  1
  V  V27  1  0.37404746  0.37413852  0.49864252  1
  V  V28  1  0.12964796  0.74132430  0.37405791  1
  V  V29  1  0.87870353  0.87354251  -0.00277074  1
  V  V30  1  0.88456865  0.24346944  0.13084641  1
  V  V31  1  0.36513107  0.38093869  0.00163372  1
  V  V32  1  0.49638595  0.37081682  0.37248785  1
  V  V33  1  0.12174938  0.50967772  0.12823719  1
  V  V34  1  0.25262384  0.74118112  0.49709635  1
  V  V35  1  0.87140042  0.37114406  0.49505889  1
  V  V36  1  0.49222141  0.50371039  0.00218106  1
  V  V37  1  0.37930617  0.74478732  0.62560133  1
  V  V38  1  0.22666219  0.35472332  0.15872994  1
  V  V39  1  0.75099722  0.36376395  0.11705449  1
  V  V40  1  0.62367152  0.74593004  0.87542713  1
  V  V41  1  0.00164938  0.12360941  0.62867483  1
  V  V42  1  0.24774605  0.87204402  0.63187484  1
  V  V43  1  0.87953187  0.62250727  0.24270234  1
  V  V44  1  0.12625102  0.87814502  0.24937606  1
  V  V45  1  0.62388159  0.37293163  0.24744787  1
  V  V46  1  0.62000535  0.50505880  0.62225688  1
  V  V47  1  0.75424013  0.00346734  0.24852326  1
  V  V48  1  0.37570964  0.25043526  0.12748022  1
  V  V49  1  0.12192210  0.37353170  0.75304022  1
  V  V50  1  0.52168230  -0.00151530  0.49954501  1
  V  V51  1  0.12521871  -0.00376816  0.63661997  1
  V  V52  1  0.62191670  0.62715148  0.49898333  1
  V  V53  1  0.37747009  0.88195761  -0.00472191  1
  V  V54  1  0.24544697  0.12333022  0.37814805  1
  V  V55  1  0.23813226  0.62959393  0.87366738  1
  V  V56  1  0.38040069  0.62201194  0.75107298  1
  V  V57  1  0.87536052  0.62503921  0.75057070  1
  V  V58  1  0.62599392  0.87661283  0.74636706  1
  V  V59  1  0.49993655  0.62835931  0.13103693  1
  V  V60  1  0.12201047  0.49804079  0.62414858  1
  V  V61  1  0.37609169  -0.00068742  0.37793400  1
  V  V62  1  0.87706458  0.87241708  0.49609965  1
  V  V63  1  0.61787662  0.87402226  0.24608081  1
  V  V64  1  0.75102791  0.74674714  -0.00129970  1
  V  V65  1  0.01398630  0.36208895  0.36309916  1
  V  V66  1  0.12048168  0.24374350  0.87693872  1
  V  V67  1  0.87507500  0.24681401  0.62083339  1
  V  V68  1  0.25187119  0.00031017  0.24360375  1
  V  V69  1  0.74978569  0.00668713  0.74890323  1
  V  V70  1  0.62145141  0.00603657  0.11132630  1
  V  V71  1  0.12374462  0.12843839  0.50267420  1
  V  V72  1  0.37953243  0.75250247  0.12545466  1
  V  V73  1  0.62728655  0.24346135  0.37535589  1
  V  V74  1  0.69256651  0.19223063  0.55517568  1
  V  V75  1  0.88080218  0.74622868  0.12284985  1
  V  V76  1  0.00429741  -0.00362500  0.50059346  1
  V  V77  1  0.00424116  0.11905381  0.13994018  1
  V  V78  1  0.62202295  0.74731558  0.36590701  1
  V  V79  1  0.74644008  0.49665296  0.74947321  1
  V  V80  1  -0.00248476  0.50175403  0.00514101  1
  V  V81  1  0.37047577  0.50471740  0.37415558  1
  V  V82  1  0.01653593  0.87311473  0.87274496  1
  V  V83  1  0.37625379  0.63421162  0.25646446  1
  V  V84  1  0.24844378  0.25546578  -0.00569991  1
  Zn  Zn85  1  0.49891114  0.87053844  0.36872047  1
  Zn  Zn86  1  0.87327039  0.12774948  0.75409086  1
  Zn  Zn87  1  0.50865160  0.10979021  0.62160712  1
  Zn  Zn88  1  0.49713137  0.50377299  0.50280324  1
  Zn  Zn89  1  0.87214984  0.36358812  -0.00458607  1
  Zn  Zn90  1  0.00384331  -0.00174255  0.00506707  1
  Zn  Zn91  1  0.49822550  0.24830025  0.24851710  1
  Zn  Zn92  1  0.37932645  0.12978439  0.25638352  1
  Zn  Zn93  1  0.75029659  0.62538072  0.37226576  1
  Zn  Zn94  1  0.62134599  0.49947012  0.12579568  1
  Zn  Zn95  1  0.75007819  0.74791173  0.49607128  1
  Zn  Zn96  1  0.36844153  0.50036910  0.87794317  1
  Zn  Zn97  1  0.87954217  0.00560588  0.36799496  1
  Zn  Zn98  1  0.39974463  0.22660595  0.65490287  1
  Zn  Zn99  1  0.00044303  0.62473980  0.62226044  1
  Zn  Zn100  1  0.12915206  0.62022837  0.49584599  1
  Zn  Zn101  1  -0.00296036  0.37093482  0.87696789  1
  Zn  Zn102  1  0.74918472  0.62206026  0.87659399  1
  Zn  Zn103  1  0.50969094  0.12916498  0.12146181  1
  Zn  Zn104  1  0.62227454  0.62416027  0.00345151  1
  Zn  Zn105  1  -0.00154271  0.24839819  0.74999406  1
  Zn  Zn106  1  0.11571698  0.63035046  -0.00043527  1
  Zn  Zn107  1  0.18948415  0.18310083  0.18662593  1
  Zn  Zn108  1  0.23128767  0.21680027  0.71868935  1
  Zn  Zn109  1  0.19022690  0.68935538  0.18513390  1
  Zn  Zn110  1  0.18862841  0.68362356  0.68269609  1
  Zn  Zn111  1  0.69048705  0.18699074  0.18659800  1
  Zn  Zn112  1  0.56969322  0.21960364  0.72715620  1
  Zn  Zn113  1  0.68953170  0.68720559  0.18650397  1
  Zn  Zn114  1  0.69040121  0.68591885  0.68477741  1
  Zn  Zn115  1  0.29772624  0.30805618  0.31088829  1
  Zn  Zn116  1  0.39528515  0.30844922  0.81650267  1
  Zn  Zn117  1  0.31238528  0.81210611  0.31351554  1
  Zn  Zn118  1  0.31334033  0.81081225  0.81251747  1
  Zn  Zn119  1  0.81451706  0.31011615  0.30855166  1
  Zn  Zn120  1  0.80503488  0.30847263  0.80753729  1
  Zn  Zn121  1  0.80877708  0.81108727  0.30978763  1
  Zn  Zn122  1  0.81542666  0.81276843  0.81244909  1
  Zn  Zn123  1  0.18822531  0.43971435  0.43439840  1
  Zn  Zn124  1  0.18328317  0.43927735  0.93876876  1
  Zn  Zn125  1  0.18916797  0.93426180  0.44015267  1
  Zn  Zn126  1  0.19440289  0.94081941  0.93709244  1
  Zn  Zn127  1  0.68695427  0.43702864  0.43500102  1
  Zn  Zn128  1  0.67425582  0.42813184  0.94335699  1
  Zn  Zn129  1  0.69611081  0.93118094  0.42750630  1
  Zn  Zn130  1  0.69016918  0.93477074  0.93298876  1
  Zn  Zn131  1  0.34907332  0.08402245  0.04089276  1
  Zn  Zn132  1  0.31322315  0.06000851  0.56739703  1
  Zn  Zn133  1  0.30391480  0.56658992  0.06895658  1
  Zn  Zn134  1  0.31478616  0.56093418  0.56611028  1
  Zn  Zn135  1  0.81722185  0.06431651  0.06338561  1
  Zn  Zn136  1  0.81675629  0.05525970  0.56108706  1
  Zn  Zn137  1  0.81204807  0.55891647  0.06247733  1
  Zn  Zn138  1  0.80984624  0.56369165  0.55868338  1
  Zn  Zn139  1  0.42777199  0.43749184  0.18567017  1
  Zn  Zn140  1  0.44215690  0.43516214  0.69458288  1
  Zn  Zn141  1  0.43707278  0.94151031  0.18523664  1
  Zn  Zn142  1  0.44356370  0.93345633  0.68334262  1
  Zn  Zn143  1  0.93891739  0.43039416  0.18523323  1
  Zn  Zn144  1  0.93511833  0.43478088  0.68647808  1
  Zn  Zn145  1  0.93788506  0.93766811  0.18589598  1
  Zn  Zn146  1  0.93736079  0.93439316  0.69063910  1
  Zn  Zn147  1  0.06643747  0.05873635  0.31547491  1
  Zn  Zn148  1  0.06481949  0.06082863  0.81343758  1
  Zn  Zn149  1  0.05941326  0.55984742  0.31216037  1
  Zn  Zn150  1  0.05749580  0.56239756  0.81345933  1
  Zn  Zn151  1  0.56239048  0.06257332  0.30765750  1
  Zn  Zn152  1  0.56301318  0.06217490  0.80999739  1
  Zn  Zn153  1  0.55832799  0.56031399  0.31236265  1
  Zn  Zn154  1  0.56507990  0.54797841  0.82064551  1
  Zn  Zn155  1  0.42331415  0.16921583  0.47297564  1
  Zn  Zn156  1  0.45761198  0.18627027  0.94289768  1
  Zn  Zn157  1  0.44420866  0.68784408  0.43675876  1
  Zn  Zn158  1  0.43286766  0.68895255  0.93693164  1
  Zn  Zn159  1  0.93928061  0.18870637  0.43731422  1
  Zn  Zn160  1  0.93620178  0.18466203  0.94507695  1
  Zn  Zn161  1  0.93845691  0.68414955  0.43255733  1
  Zn  Zn162  1  0.93924132  0.68506293  0.93294651  1
  Zn  Zn163  1  0.05805378  0.31232293  0.06278542  1
  Zn  Zn164  1  0.06082823  0.31284187  0.55952463  1
  Zn  Zn165  1  0.06392317  0.81508530  0.06286245  1
  Zn  Zn166  1  0.06517577  0.80963336  0.56361180  1
  Zn  Zn167  1  0.55843459  0.31889654  0.05384180  1
  Zn  Zn168  1  0.55787195  0.31989243  0.56194088  1
  Zn  Zn169  1  0.56198417  0.81534016  0.06123652  1
  Zn  Zn170  1  0.56303576  0.81019272  0.56049047  1
  O  O171  1  0.11468333  0.13078886  0.11923009  1
  O  O172  1  0.11483111  0.11304197  0.61703434  1
  O  O173  1  0.12888170  0.61403179  0.12194265  1
  O  O174  1  0.12227202  0.60973485  0.62119431  1
  O  O175  1  0.62838071  0.11122187  0.12367894  1
  O  O176  1  0.63803491  0.13953236  0.61743816  1
  O  O177  1  0.61344051  0.62537092  0.12599492  1
  O  O178  1  0.63341178  0.61798676  0.61135454  1
  O  O179  1  0.37891055  0.38111982  0.38027879  1
  O  O180  1  0.35798120  0.38259282  0.89731818  1
  O  O181  1  0.37658709  0.87981613  0.38218860  1
  O  O182  1  0.38550761  0.86666549  0.88252559  1
  O  O183  1  0.87944491  0.37836926  0.38059911  1
  O  O184  1  0.87442963  0.37978244  0.87398190  1
  O  O185  1  0.88083998  0.87154820  0.38244775  1
  O  O186  1  0.87996427  0.88298540  0.88071864  1
  O  O187  1  0.25779199  0.00220100  0.37088835  1
  O  O188  1  0.25181919  0.01093971  0.86743310  1
  O  O189  1  0.26228371  0.50313689  0.37164392  1
  O  O190  1  0.24696695  0.51048185  0.86862939  1
  O  O191  1  0.75317846  0.00881551  0.36600361  1
  O  O192  1  0.75870567  0.00226331  0.86794318  1
  O  O193  1  0.75703670  0.49651698  0.36036395  1
  O  O194  1  0.75988421  0.50002241  0.86653529  1
  O  O195  1  0.23830983  0.49568662  0.13600853  1
  O  O196  1  0.24082359  0.49304859  0.62852325  1
  O  O197  1  0.25897450  0.99182530  0.14096320  1
  O  O198  1  0.24465001  0.99279498  0.63087552  1
  O  O199  1  0.74845171  0.49271104  0.13583967  1
  O  O200  1  0.74724697  0.49329112  0.62892297  1
  O  O201  1  0.74494124  0.99537240  0.12996353  1
  O  O202  1  0.75794983  0.98532519  0.63263119  1
  O  O203  1  0.00021295  0.37668614  0.26457865  1
  O  O204  1  0.01120238  0.37153223  0.74889357  1
  O  O205  1  0.00905137  0.86928412  0.25270323  1
  O  O206  1  -0.00240786  0.86459236  0.75941521  1
  O  O207  1  0.50638299  0.37586500  0.25488849  1
  O  O208  1  0.48684716  0.37351467  0.77706864  1
  O  O209  1  0.51394801  0.87993388  0.24814159  1
  O  O210  1  0.50908207  0.86525460  0.75393841  1
  O  O211  1  0.49654806  0.12897262  0.24216762  1
  O  O212  1  0.51120258  0.12464143  0.73544141  1
  O  O213  1  0.49131730  0.62440177  0.23999460  1
  O  O214  1  0.49240647  0.62945419  0.75849901  1
  O  O215  1  1.01031959  0.12183605  0.23952036  1
  O  O216  1  0.99849733  0.12388405  0.73814993  1
  O  O217  1  0.99095172  0.63260764  0.25264385  1
  O  O218  1  0.98888921  0.63095950  0.74742045  1
  O  O219  1  0.36471417  0.26265807  0.00759373  1
  O  O220  1  0.36492025  0.26697987  0.49735197  1
  O  O221  1  0.36371210  0.75660828  0.00825800  1
  O  O222  1  0.37174076  0.75358568  0.50324129  1
  O  O223  1  0.87969059  0.25039812  0.01797339  1
  O  O224  1  0.87996139  0.25842333  0.51092773  1
  O  O225  1  0.87018545  0.75226881  0.00249269  1
  O  O226  1  0.87747646  0.75661934  0.50536780  1
  O  O227  1  0.12810713  0.23581770  0.50378126  1
  O  O228  1  0.12935369  0.24352094  0.99357311  1
  O  O229  1  0.13383920  0.74697415  0.49253434  1
  O  O230  1  0.13881514  0.74740944  1.00864226  1
  O  O231  1  0.63093592  0.25184747  0.49427174  1
  O  O232  1  0.60647174  0.32353679  0.94923306  1
  O  O233  1  0.62745142  0.74273547  0.49150744  1
  O  O234  1  0.63302870  0.74951242  0.99251229  1
  O  O235  1  0.48946813  0.25353438  0.12258815  1
  O  O236  1  0.50889830  0.25053000  0.63307878  1
  O  O237  1  0.48636990  0.74727112  0.12169154  1
  O  O238  1  0.49670197  0.75229441  0.63862799  1
  O  O239  1  0.99391706  0.23965626  0.12755139  1
  O  O240  1  0.99404954  0.24014310  0.62481172  1
  O  O241  1  0.99191705  0.75497548  0.13171226  1
  O  O242  1  0.99013977  0.74918864  0.63013125  1
  O  O243  1  0.00016419  0.26272522  0.37847653  1
  O  O244  1  0.00918032  0.24752224  0.87229496  1
  O  O245  1  0.00791602  0.75486429  0.36718884  1
  O  O246  1  -0.00408844  0.75945535  0.86476054  1
  O  O247  1  0.50785879  0.26319123  0.37664703  1
  O  O248  1  0.48669943  0.26026555  0.86957547  1
  O  O249  1  0.51582884  0.75335282  0.37518604  1
  O  O250  1  0.50757619  0.75275152  0.86515029  1
  O  O251  1  0.24172247  0.13052535  0.49906398  1
  O  O252  1  0.24776731  0.13064332  0.99054098  1
  O  O253  1  0.25097340  0.63763797  0.50570330  1
  O  O254  1  0.24851677  0.63373204  0.99026075  1
  O  O255  1  0.74658854  0.12479832  0.49740688  1
  O  O256  1  0.75133183  0.11645934  0.98733181  1
  O  O257  1  0.74018731  0.62632814  0.49218152  1
  O  O258  1  0.74849853  0.63588279  1.00019345  1
  O  O259  1  0.24603438  0.36598602  0.00455362  1
  O  O260  1  0.25327377  0.37056746  0.50464339  1
  O  O261  1  0.25249283  0.86823364  0.00749148  1
  O  O262  1  0.26097428  0.86635098  0.50844229  1
  O  O263  1  0.75269348  0.38631642  0.01552158  1
  O  O264  1  0.76457051  0.38272252  0.50384766  1
  O  O265  1  0.75709632  0.86302953  0.00278297  1
  O  O266  1  0.76057488  0.87195017  0.50611284  1
  O  O267  1  0.13356532  0.50729220  0.24421009  1
  O  O268  1  0.12447996  0.49469755  0.74277509  1
  O  O269  1  0.13551197  0.98463523  0.25737081  1
  O  O270  1  0.13337272  1.00119169  0.73861664  1
  O  O271  1  0.63129630  0.48897573  0.24938694  1
  O  O272  1  0.64290644  0.52057661  0.73432001  1
  O  O273  1  0.63636229  0.99150227  0.24393583  1
  O  O274  1  0.63483474  0.98239274  0.75307283  1
  O  O275  1  0.36990995  0.00024114  0.26299093  1
  O  O276  1  0.36598587  -0.00180542  0.73870364  1
  O  O277  1  0.37153732  0.51625358  0.25648647  1
  O  O278  1  0.36720579  0.50726571  0.75210704  1
  O  O279  1  0.86003613  -0.00856662  0.25072059  1
  O  O280  1  0.86755851  -0.00208764  0.75812050  1
  O  O281  1  0.87006512  0.50460161  0.24977694  1
  O  O282  1  0.86992268  0.50634924  0.75387011  1
  O  O283  1  0.11262249  0.37631085  0.37949413  1
  O  O284  1  0.12349089  0.36621790  0.86723029  1
  O  O285  1  0.12155245  0.86508922  0.36914071  1
  O  O286  1  0.11569101  0.87879291  0.87981530  1
  O  O287  1  0.61896933  0.36814156  0.36803241  1
  O  O288  1  0.60639414  0.43649659  0.85135531  1
  O  O289  1  0.62619742  0.86632441  0.36223681  1
  O  O290  1  0.62120803  0.86209394  0.86732438  1
  O  O291  1  0.35592659  0.14651829  0.13761722  1
  O  O292  1  0.39302305  0.13522129  0.58784361  1
  O  O293  1  0.37752231  0.63550301  0.13409109  1
  O  O294  1  0.37073289  0.63016615  0.64018233  1
  O  O295  1  0.89110648  0.13157953  0.12416112  1
  O  O296  1  0.88314108  0.12993939  0.62234252  1
  O  O297  1  0.87072856  0.62970330  0.13551503  1
  O  O298  1  0.87621407  0.63260221  0.62940553  1
  O  O299  1  0.24984471  0.25282659  0.10702416  1
  O  O300  1  0.24015467  0.26388928  0.61070945  1
  O  O301  1  0.26022513  0.75869844  0.12005916  1
  O  O302  1  0.25576467  0.75628469  0.61936145  1
  O  O303  1  0.75886870  0.25580593  0.12549100  1
  O  O304  1  0.75513228  0.25601232  0.61460760  1
  O  O305  1  0.75847413  0.75482254  0.11676961  1
  O  O306  1  0.76322812  0.75834620  0.62329773  1
  O  O307  1  0.25075469  0.23824875  0.39121329  1
  O  O308  1  0.23678035  0.23594801  0.88277850  1
  O  O309  1  0.24192561  0.75601683  0.38549964  1
  O  O310  1  0.25074083  0.74457928  0.88389519  1
  O  O311  1  0.74298293  0.24327341  0.37175871  1
  O  O312  1  0.76251916  0.22618197  0.87198328  1
  O  O313  1  0.73840454  0.74778746  0.37560919  1
  O  O314  1  0.74379047  0.74903321  0.88196436  1
  O  O315  1  0.01199481  0.12035033  0.00935481  1
  O  O316  1  0.00547363  0.11754863  0.50726402  1
  O  O317  1  -0.00046615  0.60913387  -0.00653532  1
  O  O318  1  0.00033125  0.61063336  0.49933601  1
  O  O319  1  0.46033136  0.11286169  0.02057611  1
  O  O320  1  0.51610835  0.10233136  0.49448256  1
  O  O321  1  0.49405360  0.62540095  0.01598288  1
  O  O322  1  0.51483902  0.62055259  0.49735220  1
  O  O323  1  0.48987655  0.38103127  0.49141701  1
  O  O324  1  0.47622103  0.39383558  1.01799440  1
  O  O325  1  0.48933652  0.87762524  0.49635207  1
  O  O326  1  0.49031399  0.86759830  0.98902777  1
  O  O327  1  0.99051948  0.38363705  0.49515386  1
  O  O328  1  0.99737603  0.38693581  0.99612472  1
  O  O329  1  0.99600386  0.87572930  0.49463218  1
  O  O330  1  0.99594332  0.87631438  0.99240585  1
  O  O331  1  0.48818574  0.48889022  0.37438575  1
  O  O332  1  0.48277948  0.52070973  0.89930968  1
  O  O333  1  0.49369955  0.99454246  0.38262710  1
  O  O334  1  0.50617017  0.98261073  0.86967312  1
  O  O335  1  0.99415836  0.49171663  0.38148462  1
  O  O336  1  0.98670073  0.49611527  0.87790563  1
  O  O337  1  0.99879933  0.99106572  0.38127702  1
  O  O338  1  0.99453036  0.98998346  0.87460007  1
  O  O339  1  -0.00157084  0.01374170  0.12499222  1
  O  O340  1  0.00657470  0.00192903  0.62171576  1
  O  O341  1  0.00827818  0.49501029  0.11816084  1
  O  O342  1  0.00511794  0.49810450  0.61612924  1
  O  O343  1  0.51948991  -0.00277652  0.12785047  1
  O  O344  1  0.50266430  -0.00902038  0.60385950  1
  O  O345  1  0.49443044  0.51233713  0.12262010  1
  O  O346  1  0.51687914  0.49186415  0.62608395  1
  O  O347  1  0.26815019  0.40507647  0.25159976  1
  O  O348  1  0.23415938  0.38636050  0.73965178  1
  O  O349  1  0.24520940  0.87879333  0.24417059  1
  O  O350  1  0.25514488  0.87998060  0.73874523  1
  O  O351  1  0.74269397  0.37999721  0.24180585  1
  O  O352  1  0.75839336  0.38674990  0.73551283  1
  O  O353  1  0.74281112  0.88082975  0.24160054  1
  O  O354  1  0.74558861  0.87803136  0.74291210  1
  O  O355  1  0.24841245  0.11447777  0.26257115  1
  O  O356  1  0.24511097  0.11414213  0.76685128  1
  O  O357  1  0.26011583  0.62004484  0.24784690  1
  O  O358  1  0.25397916  0.62146183  0.75546803  1
  O  O359  1  0.74769843  0.11660636  0.25948428  1
  O  O360  1  0.75248878  0.10811142  0.75592354  1
  O  O361  1  0.75705671  0.61466704  0.24970584  1
  O  O362  1  0.76340715  0.62030136  0.74967156  1
  O  O363  1  0.36349815  0.11586542  0.38222874  1
  O  O364  1  0.36243460  0.13171332  0.87646088  1
  O  O365  1  0.38276415  0.61899611  0.36751319  1
  O  O366  1  0.36116428  0.62893129  0.86323671  1
  O  O367  1  0.86198187  0.12378289  0.38386581  1
  O  O368  1  0.87956015  0.10905407  0.87455573  1
  O  O369  1  0.87351267  0.61642910  0.36221944  1
  O  O370  1  0.87161442  0.61662409  0.86529594  1
  O  O371  1  0.13266266  0.38333974  0.12366288  1
  O  O372  1  0.12926221  0.38317294  0.62839425  1
  O  O373  1  0.13924282  0.87152032  0.13371586  1
  O  O374  1  0.13702344  0.88307783  0.61703298  1
  O  O375  1  0.63216636  0.37241013  0.13257860  1
  O  O376  1  0.64036498  0.38554494  0.61449151  1
  O  O377  1  0.63283353  0.87910090  0.12921332  1
  O  O378  1  0.63766387  0.86357473  0.63323282  1
  O  O379  1  0.19577193  0.28506277  0.23637349  1
  O  O380  1  0.12746097  0.25759381  0.75922826  1
  O  O381  1  0.12419061  0.75777321  0.25541218  1
  O  O382  1  0.11031493  0.74411132  0.73985992  1
  O  O383  1  0.62381920  0.26020970  0.25658441  1
  O  O384  1  0.63014500  0.28853695  0.78857600  1
  O  O385  1  0.63115329  0.76006669  0.25387586  1
  O  O386  1  0.62178233  0.75275055  0.75520700  1
  O  O387  1  0.37651692  0.25343301  0.24406958  1
  O  O388  1  0.33647812  0.26013282  0.73680732  1
  O  O389  1  0.37052388  0.74210782  0.24341747  1
  O  O390  1  0.38490669  0.74296202  0.74561059  1
  O  O391  1  0.87255437  0.25062894  0.23156258  1
  O  O392  1  0.87601907  0.24751897  0.73352375  1
  O  O393  1  0.87945711  0.74188603  0.24402188  1
  O  O394  1  0.88007073  0.74297888  0.74225539  1
  O  O395  1  0.37405540  0.49282739  0.49307550  1
  O  O396  1  0.37055254  0.49662851  1.00783102  1
  O  O397  1  0.37450350  0.98888943  0.49020466  1
  O  O398  1  0.36075991  0.97928137  1.00042708  1
  O  O399  1  0.88149969  0.49413445  0.49364838  1
  O  O400  1  0.87900756  0.49724002  0.99116737  1
  O  O401  1  0.88436917  0.98495889  0.49815360  1
  O  O402  1  0.87808827  0.99017994  0.99330626  1
  O  O403  1  0.12928470  0.01193814  0.00145340  1
  O  O404  1  0.12231482  0.00597040  0.50801170  1
  O  O405  1  0.11631878  0.50371157  0.00880336  1
  O  O406  1  0.11756739  0.49962241  0.50622921  1
  O  O407  1  0.63077131  -0.01009901  0.01393402  1
  O  O408  1  0.61874567  -0.01735542  0.49479415  1
  O  O409  1  0.60845068  0.50514337  0.00835187  1
  O  O410  1  0.62502422  0.50757291  0.50453859  1
  O  O411  1  0.35232061  0.36599302  0.12507250  1
  O  O412  1  0.36448216  0.38491980  0.61710611  1
  O  O413  1  0.36786731  0.86962683  0.12166768  1
  O  O414  1  0.36962871  0.86573950  0.61730435  1
  O  O415  1  0.86828434  0.36332349  0.12337193  1
  O  O416  1  0.86778088  0.36745587  0.61659194  1
  O  O417  1  0.87069437  0.86822279  0.11647205  1
  O  O418  1  0.87195234  0.86692278  0.61722732  1
  O  O419  1  0.13742175  0.11536188  0.38691605  1
  O  O420  1  0.12681584  0.12911766  0.88496712  1
  O  O421  1  0.12153936  0.63756265  0.37539919  1
  O  O422  1  0.13404203  0.62416080  0.87464473  1
  O  O423  1  0.63204447  0.13904567  0.36892524  1
  O  O424  1  0.63603850  0.12189471  0.87623239  1
  O  O425  1  0.62600097  0.63004213  0.37646404  1
  O  O426  1  0.62731876  0.63571839  0.87766263  1
