# generated using pymatgen
data_V85Zn86O256
_symmetry_space_group_name_H-M   'P 1'
_cell_length_a   16.95029536
_cell_length_b   16.96110583
_cell_length_c   16.95385151
_cell_angle_alpha   90.04775551
_cell_angle_beta   89.99065965
_cell_angle_gamma   90.04839266
_symmetry_Int_Tables_number   1
_chemical_formula_structural   V85Zn86O256
_chemical_formula_sum   'V85 Zn86 O256'
_cell_volume   4874.15681791
_cell_formula_units_Z   1
loop_
 _symmetry_equiv_pos_site_id
 _symmetry_equiv_pos_as_xyz
  1  'x, y, z'
loop_
 _atom_site_type_symbol
 _atom_site_label
 _atom_site_symmetry_multiplicity
 _atom_site_fract_x
 _atom_site_fract_y
 _atom_site_fract_z
 _atom_site_occupancy
  V  V0  1  0.37352498  0.37239156  0.01379129  1
  V  V1  1  0.62683365  0.36765946  0.25017710  1
  V  V2  1  0.87918189  0.87615773  0.48665521  1
  V  V3  1  0.48284833  0.25079790  0.24366938  1
  V  V4  1  0.62194253  0.76676352  0.37177327  1
  V  V5  1  0.87445303  0.62349787  0.25309829  1
  V  V6  1  -0.00009569  0.49713766  0.00113877  1
  V  V7  1  0.62514253  0.24937333  0.87559032  1
  V  V8  1  0.62574968  0.00265720  0.62490768  1
  V  V9  1  0.36410837  0.38183186  0.50621658  1
  V  V10  1  -0.00369209  0.00130187  0.48904644  1
  V  V11  1  0.49998616  0.12603434  0.62292834  1
  V  V12  1  0.62724576  0.62352367  0.00261567  1
  V  V13  1  0.12422342  0.86596777  0.74639659  1
  V  V14  1  0.49916571  -0.00273859  0.48831947  1
  V  V15  1  -0.00697829  0.37317141  0.38370415  1
  V  V16  1  0.87497824  0.11415745  0.25509290  1
  V  V17  1  -0.00123703  0.50421409  0.51130346  1
  V  V18  1  0.37350326  0.62429759  0.75320121  1
  V  V19  1  0.50201747  0.88255838  0.88154131  1
  V  V20  1  0.74688395  0.24842946  0.00102900  1
  V  V21  1  0.25311300  0.49878904  0.24870488  1
  V  V22  1  0.49402626  0.62551174  0.13612173  1
  V  V23  1  0.75132176  0.49748940  0.24955726  1
  V  V24  1  0.29983636  0.06749119  0.32091937  1
  V  V25  1  0.88540780  0.75031442  0.62775111  1
  V  V26  1  0.63405780  0.50241426  0.62875435  1
  V  V27  1  -0.00017375  0.24947715  0.25079925  1
  V  V28  1  0.87426836  0.24651479  0.12564322  1
  V  V29  1  0.75479979  0.11982401  0.37817672  1
  V  V30  1  0.25405790  0.88229042  0.62952233  1
  V  V31  1  0.12706497  0.00349219  0.63050501  1
  V  V32  1  0.37851390  0.75524984  0.62332291  1
  V  V33  1  0.62501913  0.12948225  0.49499557  1
  V  V34  1  0.23896744  0.88065834  0.10852350  1
  V  V35  1  0.88533737  0.62901706  0.75316946  1
  V  V36  1  0.62667916  0.87730077  0.74776064  1
  V  V37  1  -0.00243516  0.76062016  0.25567165  1
  V  V38  1  0.37665726  0.00194154  0.88452576  1
  V  V39  1  0.37169264  0.11549148  0.74713457  1
  V  V40  1  0.62687405  0.75032985  0.87355740  1
  V  V41  1  0.12873298  0.49475416  0.12546104  1
  V  V42  1  0.12809955  0.12632127  0.00296711  1
  V  V43  1  0.36793503  0.25656229  0.62803808  1
  V  V44  1  0.12079013  0.75433346  0.37482699  1
  V  V45  1  0.74537914  0.88453616  0.12618060  1
  V  V46  1  0.74520397  0.62451685  0.37704351  1
  V  V47  1  0.75103428  0.37226156  0.12570622  1
  V  V48  1  0.37738536  0.88008172  0.48410376  1
  V  V49  1  0.13171830  0.88646077  0.24847831  1
  V  V50  1  0.75293823  0.62107526  0.86815770  1
  V  V51  1  0.62133214  0.11306483  0.00545925  1
  V  V52  1  0.49571261  0.37372914  0.87526188  1
  V  V53  1  0.00015671  0.62095470  0.13164440  1
  V  V54  1  0.63475758  0.37931243  0.75125730  1
  V  V55  1  0.75642095  0.37651542  0.61588371  1
  V  V56  1  0.25149779  0.62793140  0.36708939  1
  V  V57  1  0.87266370  0.49863649  0.87069104  1
  V  V58  1  0.25077801  0.75160222  0.49886137  1
  V  V59  1  0.87846292  0.24971596  0.63197934  1
  V  V60  1  0.87759379  0.00969261  0.86951988  1
  V  V61  1  0.12521990  0.37545904  0.25466308  1
  V  V62  1  0.87207684  0.75045610  0.12601811  1
  V  V63  1  0.37551709  0.50923717  0.37147574  1
  V  V64  1  0.75566468  0.87534225  0.62444483  1
  V  V65  1  0.75509375  0.01076551  0.74806119  1
  V  V66  1  0.24212834  0.49367196  0.74323189  1
  V  V67  1  0.87570066  0.87681699  -0.00183154  1
  V  V68  1  0.50469810  0.62666892  0.62624037  1
  V  V69  1  0.48853693  0.12540434  0.12236417  1
  V  V70  1  0.24664146  0.24607539  0.49635207  1
  V  V71  1  0.49886964  0.25111662  0.74911254  1
  V  V72  1  0.00564233  -0.00050386  -0.00162436  1
  V  V73  1  0.50268163  0.75255392  0.74943000  1
  V  V74  1  0.50042097  0.50043293  -0.00101031  1
  V  V75  1  0.75290669  0.74938501  -0.00010758  1
  V  V76  1  0.00229042  0.11994805  0.12480132  1
  V  V77  1  -0.00154150  0.86898998  0.86584859  1
  V  V78  1  0.50135882  0.50043510  0.50268221  1
  V  V79  1  0.00555518  0.37071612  0.86856751  1
  V  V80  1  0.25371073  0.25568905  0.00961541  1
  V  V81  1  0.49926139  0.37523052  0.37665209  1
  V  V82  1  -0.00516801  0.12414559  0.64000627  1
  V  V83  1  0.57229563  -0.05465805  0.17968119  1
  V  V84  1  0.24929092  0.12487233  0.87023698  1
  Zn  Zn85  1  0.13001831  0.24564110  0.37104301  1
  Zn  Zn86  1  0.13656734  0.63298579  0.00413415  1
  Zn  Zn87  1  0.62778467  0.62844818  0.50106461  1
  Zn  Zn88  1  0.12295723  0.36895467  0.73416022  1
  Zn  Zn89  1  0.87201580  0.49281377  0.38049258  1
  Zn  Zn90  1  0.62431947  0.24982450  0.37644985  1
  Zn  Zn91  1  0.13614174  0.75166748  0.88280865  1
  Zn  Zn92  1  0.75214953  0.12880814  0.87179462  1
  Zn  Zn93  1  0.62748491  0.49779005  0.12495533  1
  Zn  Zn94  1  0.74588334  -0.00611940  0.25520741  1
  Zn  Zn95  1  0.49845705  0.76483835  0.25451158  1
  Zn  Zn96  1  0.24751787  0.62953225  0.88105057  1
  Zn  Zn97  1  0.87458673  0.37252966  -0.00218992  1
  Zn  Zn98  1  0.01506109  0.62745232  0.63381046  1
  Zn  Zn99  1  0.12702045  0.12023686  0.49626617  1
  Zn  Zn100  1  0.36208428  0.86375307  -0.00793434  1
  Zn  Zn101  1  0.37088789  0.50014189  0.87494086  1
  Zn  Zn102  1  0.75131966  0.74959032  0.50004299  1
  Zn  Zn103  1  0.12843205  0.62040755  0.50261036  1
  Zn  Zn104  1  0.75732284  0.25247413  0.49728288  1
  Zn  Zn105  1  0.35772282  0.74565740  0.12536469  1
  Zn  Zn106  1  0.12361304  0.24944417  0.87045601  1
  Zn  Zn107  1  0.18697691  0.18686252  0.18630518  1
  Zn  Zn108  1  0.18459104  0.19077340  0.68691437  1
  Zn  Zn109  1  0.18558795  0.68979694  0.18602274  1
  Zn  Zn110  1  0.19171023  0.68673324  0.68664483  1
  Zn  Zn111  1  0.68348507  0.17995396  0.18956528  1
  Zn  Zn112  1  0.68857133  0.19268499  0.68424392  1
  Zn  Zn113  1  0.68367421  0.69176792  0.18888268  1
  Zn  Zn114  1  0.69478407  0.68965792  0.68738491  1
  Zn  Zn115  1  0.31145165  0.32257933  0.31688236  1
  Zn  Zn116  1  0.30776488  0.31013739  0.81411505  1
  Zn  Zn117  1  0.31025325  0.80971485  0.30339643  1
  Zn  Zn118  1  0.31184828  0.81310036  0.81055873  1
  Zn  Zn119  1  0.81321862  0.30326984  0.31366625  1
  Zn  Zn120  1  0.81599179  0.31149597  0.81017195  1
  Zn  Zn121  1  0.80499790  0.81102389  0.31013589  1
  Zn  Zn122  1  0.81564437  0.81446312  0.81115181  1
  Zn  Zn123  1  0.17979255  0.44709872  0.56519702  1
  Zn  Zn124  1  0.19054744  0.44571147  0.93496862  1
  Zn  Zn125  1  0.18254648  0.93458848  0.44072051  1
  Zn  Zn126  1  0.18576919  0.94211480  0.92931506  1
  Zn  Zn127  1  0.68565044  0.43975538  0.43782885  1
  Zn  Zn128  1  0.68850006  0.43640129  0.93750138  1
  Zn  Zn129  1  0.68964092  0.94301802  0.44082476  1
  Zn  Zn130  1  0.69062142  0.93738237  0.93540025  1
  Zn  Zn131  1  0.30594288  0.05547856  0.06464827  1
  Zn  Zn132  1  0.31467598  0.06293484  0.55805997  1
  Zn  Zn133  1  0.31442838  0.55980288  0.06302596  1
  Zn  Zn134  1  0.31436346  0.57076868  0.56334832  1
  Zn  Zn135  1  0.81414385  0.06348213  0.05909238  1
  Zn  Zn136  1  0.81824690  0.06533385  0.56133330  1
  Zn  Zn137  1  0.81488206  0.56042338  0.06060596  1
  Zn  Zn138  1  0.81934023  0.56217645  0.56218747  1
  Zn  Zn139  1  0.44060754  0.44108192  0.18858956  1
  Zn  Zn140  1  0.44036085  0.44055107  0.68953967  1
  Zn  Zn141  1  0.40315902  0.92659792  0.19738411  1
  Zn  Zn142  1  0.44025622  0.93951397  0.68598106  1
  Zn  Zn143  1  0.93638978  0.43456178  0.19014140  1
  Zn  Zn144  1  0.93451680  0.43841085  0.69021040  1
  Zn  Zn145  1  0.93711700  0.93793685  0.18521980  1
  Zn  Zn146  1  0.93886069  0.94023280  0.68468788  1
  Zn  Zn147  1  0.06792489  0.06748333  0.31677858  1
  Zn  Zn148  1  0.06944711  0.05763173  0.81238397  1
  Zn  Zn149  1  0.06420657  0.56054888  0.32028423  1
  Zn  Zn150  1  0.06711379  0.56170803  0.81692528  1
  Zn  Zn151  1  0.46328377  0.06492192  0.31090113  1
  Zn  Zn152  1  0.56343440  0.06519129  0.81334670  1
  Zn  Zn153  1  0.56839207  0.55689617  0.31384017  1
  Zn  Zn154  1  0.56325384  0.56189747  0.81304175  1
  Zn  Zn155  1  0.43558947  0.19317719  0.43855976  1
  Zn  Zn156  1  0.43580157  0.18699153  0.94052990  1
  Zn  Zn157  1  0.44123346  0.69040218  0.43707957  1
  Zn  Zn158  1  0.43468403  0.69060965  0.93971444  1
  Zn  Zn159  1  0.93795880  0.18734860  0.44360088  1
  Zn  Zn160  1  0.93703425  0.18888857  0.93767276  1
  Zn  Zn161  1  0.93547765  0.68689479  0.43916219  1
  Zn  Zn162  1  0.96843515  0.69832329  0.95203878  1
  Zn  Zn163  1  0.06524907  0.31266544  0.06205162  1
  Zn  Zn164  1  0.05636323  0.30780855  0.56349921  1
  Zn  Zn165  1  0.06228933  0.81269456  0.06715288  1
  Zn  Zn166  1  0.06323141  0.81500208  0.56007551  1
  Zn  Zn167  1  0.56186682  0.30946749  0.06494891  1
  Zn  Zn168  1  0.56156781  0.31452409  0.56381508  1
  Zn  Zn169  1  0.54695378  0.80285212  0.05484338  1
  Zn  Zn170  1  0.56542561  0.81449965  0.55611408  1
  O  O171  1  0.11691633  0.12840551  0.11150002  1
  O  O172  1  0.11783335  0.11882672  0.62016087  1
  O  O173  1  0.11575896  0.61243989  0.12800348  1
  O  O174  1  0.12608908  0.63252697  0.61576129  1
  O  O175  1  0.61712878  0.12829960  0.11028641  1
  O  O176  1  0.62033961  0.12276364  0.61682504  1
  O  O177  1  0.62707889  0.61976020  0.11229398  1
  O  O178  1  0.62417665  0.61874553  0.62662787  1
  O  O179  1  0.38008900  0.38939235  0.38695497  1
  O  O180  1  0.38836424  0.37386955  0.87895222  1
  O  O181  1  0.36916049  0.87186530  0.38583312  1
  O  O182  1  0.38389248  0.88424716  0.87230744  1
  O  O183  1  0.88863465  0.37353104  0.36642152  1
  O  O184  1  0.88253805  0.38196473  0.87548548  1
  O  O185  1  0.86750155  0.86846186  0.38807410  1
  O  O186  1  0.87891677  0.88716907  0.87898446  1
  O  O187  1  0.24667647  0.00879895  0.38256023  1
  O  O188  1  0.25885942  0.01506460  0.87595866  1
  O  O189  1  0.25973555  0.51182941  0.36450761  1
  O  O190  1  0.25455052  0.50595516  0.86027066  1
  O  O191  1  0.74737135  0.01454250  0.37346080  1
  O  O192  1  0.75921519  0.00149947  0.86517796  1
  O  O193  1  0.75225633  0.50555884  0.36819958  1
  O  O194  1  0.75932234  0.50909549  0.88280341  1
  O  O195  1  0.24290213  0.50449065  0.13985633  1
  O  O196  1  0.25485160  0.50388095  0.63580319  1
  O  O197  1  0.23785321  0.98284227  0.11941176  1
  O  O198  1  0.24102227  0.99304432  0.61478821  1
  O  O199  1  0.75155052  0.49007379  0.13090230  1
  O  O200  1  0.74109924  0.49492699  0.62211029  1
  O  O201  1  0.75337018  0.98713833  0.12053066  1
  O  O202  1  0.74815127  0.99591937  0.63125323  1
  O  O203  1  0.00372270  0.36667479  0.25448315  1
  O  O204  1  0.00132944  0.38237515  0.76640686  1
  O  O205  1  0.00291162  0.86357956  0.24439096  1
  O  O206  1  0.01050785  0.88404713  0.75541270  1
  O  O207  1  0.50775675  0.36758084  0.25200908  1
  O  O208  1  0.50827294  0.37074300  0.75828223  1
  O  O209  1  0.50714517  0.88596500  0.23423294  1
  O  O210  1  0.50864016  0.87100870  0.75343144  1
  O  O211  1  0.50149445  0.14337349  0.23918790  1
  O  O212  1  0.49416966  0.13295830  0.74392910  1
  O  O213  1  0.50662802  0.61181805  0.23501362  1
  O  O214  1  0.49802745  0.63099760  0.74319628  1
  O  O215  1  0.99520545  0.12839704  0.24204955  1
  O  O216  1  1.00633905  0.11999066  0.73852968  1
  O  O217  1  0.99097619  0.62807745  0.24929463  1
  O  O218  1  0.98877856  0.61950608  0.75092188  1
  O  O219  1  0.36309043  0.25732519  -0.00266288  1
  O  O220  1  0.36894336  0.26060401  0.50709598  1
  O  O221  1  0.40646642  0.76178565  0.01885924  1
  O  O222  1  0.37319959  0.75915774  0.50546472  1
  O  O223  1  0.86164149  0.24792131  0.00593040  1
  O  O224  1  0.87127336  0.24142767  0.52036608  1
  O  O225  1  0.87450447  0.75531977  0.00701626  1
  O  O226  1  0.87326213  0.75864914  0.50799113  1
  O  O227  1  0.14167406  0.25294955  0.50324439  1
  O  O228  1  0.13568106  0.24503402  0.99455990  1
  O  O229  1  0.13317267  0.75591496  0.48950704  1
  O  O230  1  0.08162319  0.73690003  0.98907297  1
  O  O231  1  0.62620910  0.24234521  0.50082209  1
  O  O232  1  0.63430044  0.24698353  0.99551880  1
  O  O233  1  0.62986601  0.74779227  0.48832458  1
  O  O234  1  0.62917964  0.74010718  0.99219407  1
  O  O235  1  0.49928538  0.24469187  0.13607179  1
  O  O236  1  0.49163198  0.24407081  0.62873714  1
  O  O237  1  0.51838818  0.72803641  0.13551739  1
  O  O238  1  0.49975595  0.74615326  0.62903620  1
  O  O239  1  0.99509113  0.23928793  0.12717316  1
  O  O240  1  0.99229752  0.23356966  0.62262495  1
  O  O241  1  0.99063634  0.74110074  0.13709947  1
  O  O242  1  0.98843870  0.74930630  0.62147673  1
  O  O243  1  -0.00181028  0.25915459  0.37111281  1
  O  O244  1  -0.00065289  0.26737282  0.88299000  1
  O  O245  1  0.00775833  0.74371078  0.36689970  1
  O  O246  1  -0.01387869  0.76925529  0.86402951  1
  O  O247  1  0.50024643  0.25731953  0.36282957  1
  O  O248  1  0.50490084  0.25711193  0.87138707  1
  O  O249  1  0.51662286  0.74810755  0.37409338  1
  O  O250  1  0.50890150  0.75885181  0.86714894  1
  O  O251  1  0.25246473  0.14318062  0.50411090  1
  O  O252  1  0.24378448  0.13209408  0.99589448  1
  O  O253  1  0.25311750  0.63472939  0.48702461  1
  O  O254  1  0.24870533  0.61683869  0.99687773  1
  O  O255  1  0.74348367  0.12426063  0.49588079  1
  O  O256  1  0.73914147  0.13187532  0.99886001  1
  O  O257  1  0.75165078  0.62588362  0.49010323  1
  O  O258  1  0.74541493  0.62999389  0.99322806  1
  O  O259  1  0.25824072  0.36398372  -0.00796174  1
  O  O260  1  0.26193315  0.37250887  0.50895777  1
  O  O261  1  0.23945611  0.87313593  0.00345731  1
  O  O262  1  0.25819782  0.87047502  0.50840144  1
  O  O263  1  0.75012787  0.36564001  0.00721406  1
  O  O264  1  0.74497580  0.37484375  0.51263959  1
  O  O265  1  0.75573173  0.86827545  0.00298928  1
  O  O266  1  0.75953965  0.87997258  0.51253193  1
  O  O267  1  0.13110658  0.49454062  0.24733978  1
  O  O268  1  0.13943283  0.49619647  0.75098824  1
  O  O269  1  0.11146393  0.98291165  0.25336315  1
  O  O270  1  0.12690504  0.99128595  0.73591783  1
  O  O271  1  0.63298361  0.48469172  0.24772279  1
  O  O272  1  0.62098728  0.49115786  0.74176856  1
  O  O273  1  0.62769073  0.99955665  0.24157266  1
  O  O274  1  0.63259019  0.99621589  0.74437519  1
  O  O275  1  0.36895113  0.01011334  0.26420744  1
  O  O276  1  0.37849303  0.01301849  0.75315890  1
  O  O277  1  0.36768326  0.49338772  0.26041918  1
  O  O278  1  0.37310029  0.51025236  0.75097873  1
  O  O279  1  0.87342229  0.01151928  0.24627361  1
  O  O280  1  0.86600733  -0.00408205  0.75699969  1
  O  O281  1  0.86867304  0.50809393  0.25256685  1
  O  O282  1  0.87535149  0.50885893  0.76399602  1
  O  O283  1  0.10818128  0.36787771  0.36072168  1
  O  O284  1  0.10983146  0.37889469  0.87906355  1
  O  O285  1  0.12905014  0.86331189  0.36312695  1
  O  O286  1  0.11598890  0.87515578  0.86432085  1
  O  O287  1  0.61791676  0.37390614  0.36768125  1
  O  O288  1  0.61707716  0.37064191  0.86939305  1
  O  O289  1  0.63244589  0.86498994  0.37859978  1
  O  O290  1  0.62201634  0.87250189  0.86607977  1
  O  O291  1  0.38923369  0.11926302  0.11121776  1
  O  O292  1  0.38025606  0.13229959  0.63127099  1
  O  O293  1  0.39181840  0.62361726  0.12370950  1
  O  O294  1  0.38495617  0.63383024  0.63408390  1
  O  O295  1  0.88155603  0.12938334  0.12948719  1
  O  O296  1  0.88789673  0.12699371  0.63055030  1
  O  O297  1  0.87645472  0.62823822  0.13724186  1
  O  O298  1  0.87380862  0.63420356  0.63661673  1
  O  O299  1  0.24700538  0.24811491  0.10843239  1
  O  O300  1  0.26393450  0.24900293  0.61681357  1
  O  O301  1  0.24204978  0.76740667  0.12734422  1
  O  O302  1  0.26074307  0.75919402  0.61846666  1
  O  O303  1  0.75256627  0.25192416  0.11930323  1
  O  O304  1  0.75638898  0.26028795  0.62229887  1
  O  O305  1  0.75335235  0.75675780  0.11867365  1
  O  O306  1  0.75823201  0.76097187  0.62211299  1
  O  O307  1  0.25213373  0.26155876  0.39396410  1
  O  O308  1  0.25323418  0.23675134  0.88563653  1
  O  O309  1  0.24387144  0.74495527  0.37643030  1
  O  O310  1  0.25029437  0.74587053  0.87130008  1
  O  O311  1  0.74554646  0.23777413  0.37849309  1
  O  O312  1  0.74528287  0.25006514  0.88317423  1
  O  O313  1  0.73903165  0.74140001  0.37600862  1
  O  O314  1  0.74629063  0.74463009  0.88099079  1
  O  O315  1  0.00666942  0.12122558  0.00466625  1
  O  O316  1  -0.00055631  0.11107513  0.50967861  1
  O  O317  1  -0.00931893  0.60541820  0.01505904  1
  O  O318  1  0.00002205  0.61279362  0.49969030  1
  O  O319  1  0.51331071  0.13211428  0.00588018  1
  O  O320  1  0.50545267  0.12102446  0.50449486  1
  O  O321  1  0.51003570  0.61594228  0.00444178  1
  O  O322  1  0.50210538  0.61947427  0.51096109  1
  O  O323  1  0.49413811  0.38249491  0.49560947  1
  O  O324  1  0.49689601  0.37941537  0.99435746  1
  O  O325  1  0.48988496  0.88609614  0.50699644  1
  O  O326  1  0.50958035  0.88267301  0.98213887  1
  O  O327  1  1.00007907  0.38030798  0.48682370  1
  O  O328  1  0.99654447  0.38393471  0.99662865  1
  O  O329  1  0.99065955  0.88855898  0.50649953  1
  O  O330  1  0.99482587  0.88536768  0.99279124  1
  O  O331  1  0.49456270  0.49650959  0.38128940  1
  O  O332  1  0.50122306  0.49235229  0.88545802  1
  O  O333  1  0.51062314  0.99995164  0.38942658  1
  O  O334  1  0.49039027  0.99336932  0.86498147  1
  O  O335  1  0.99629352  0.48631578  0.37798266  1
  O  O336  1  0.99360136  0.49230237  0.88435327  1
  O  O337  1  1.00110101  1.00222646  0.39079277  1
  O  O338  1  0.99403778  0.99558352  0.87946142  1
  O  O339  1  -0.00624081  0.01234536  0.11414071  1
  O  O340  1  0.00618400  0.01055498  0.62190985  1
  O  O341  1  0.00476380  0.50130055  0.12201155  1
  O  O342  1  -0.00839717  0.50429529  0.61432617  1
  O  O343  1  0.50335778  0.00789544  0.13458027  1
  O  O344  1  0.50768676  0.00986191  0.62103527  1
  O  O345  1  0.50501173  0.50722237  0.11433515  1
  O  O346  1  0.51191438  0.50729100  0.62281024  1
  O  O347  1  0.23816011  0.38628236  0.25659123  1
  O  O348  1  0.25625644  0.39164880  0.75128733  1
  O  O349  1  0.23469638  0.87873504  0.24366377  1
  O  O350  1  0.24525234  0.87620993  0.73513303  1
  O  O351  1  0.74490378  0.37504063  0.24626423  1
  O  O352  1  0.73787192  0.37202741  0.74393434  1
  O  O353  1  0.75264948  0.87702395  0.23473370  1
  O  O354  1  0.74673814  0.88362425  0.74019999  1
  O  O355  1  0.24584480  0.12398253  0.25778285  1
  O  O356  1  0.26109908  0.13076700  0.75741785  1
  O  O357  1  0.24557337  0.62007443  0.26051883  1
  O  O358  1  0.26223672  0.61657488  0.74907263  1
  O  O359  1  0.75797035  0.12285760  0.25731509  1
  O  O360  1  0.74153214  0.11383177  0.75114971  1
  O  O361  1  0.75510628  0.61950273  0.25447377  1
  O  O362  1  0.75618027  0.62804662  0.76461491  1
  O  O363  1  0.37471291  0.12262588  0.37164565  1
  O  O364  1  0.37200270  0.11942863  0.86773861  1
  O  O365  1  0.37138868  0.61601109  0.37912844  1
  O  O366  1  0.38462499  0.62493568  0.86080837  1
  O  O367  1  0.86835505  0.13073633  0.36624014  1
  O  O368  1  0.87318728  0.11381626  0.87849938  1
  O  O369  1  0.86361220  0.62743997  0.36447446  1
  O  O370  1  0.86954248  0.61953344  0.87065907  1
  O  O371  1  0.11766310  0.38768563  0.13660352  1
  O  O372  1  0.11450080  0.37926914  0.62311421  1
  O  O373  1  0.12647248  0.87273167  0.13748282  1
  O  O374  1  0.13292639  0.88107126  0.62892508  1
  O  O375  1  0.63317954  0.37463143  0.13208092  1
  O  O376  1  0.63074581  0.38280772  0.63300895  1
  O  O377  1  0.62712496  0.87855537  0.11648538  1
  O  O378  1  0.63487803  0.88155452  0.62760637  1
  O  O379  1  0.11741538  0.25818117  0.24656486  1
  O  O380  1  0.13769017  0.25919875  0.75940915  1
  O  O381  1  0.11392254  0.75576355  0.25675491  1
  O  O382  1  0.12746753  0.76418974  0.74752429  1
  O  O383  1  0.62086039  0.25971246  0.25066659  1
  O  O384  1  0.61884266  0.25757125  0.75529742  1
  O  O385  1  0.62185857  0.74828136  0.26700038  1
  O  O386  1  0.62374833  0.75635628  0.75470159  1
  O  O387  1  0.38491131  0.26214253  0.25069266  1
  O  O388  1  0.37994170  0.24561437  0.74356068  1
  O  O389  1  0.38629643  0.76406360  0.23714582  1
  O  O390  1  0.38435708  0.74526230  0.74167403  1
  O  O391  1  0.88179097  0.23881455  0.24228898  1
  O  O392  1  0.86696618  0.24525803  0.73388564  1
  O  O393  1  0.87912365  0.74317965  0.24685418  1
  O  O394  1  0.86917164  0.74113002  0.74092115  1
  O  O395  1  0.38143396  0.49738554  0.49720746  1
  O  O396  1  0.38497420  0.49064326  0.99594749  1
  O  O397  1  0.38673395  0.99223443  0.50399360  1
  O  O398  1  0.37217557  0.99543326  0.98612813  1
  O  O399  1  0.89005925  0.50102078  0.49491886  1
  O  O400  1  0.88082152  0.49540270  0.99025708  1
  O  O401  1  0.88761987  0.99121373  0.50545301  1
  O  O402  1  0.88450419  0.99724563  0.99108538  1
  O  O403  1  0.11189607  0.00928447  -0.00733684  1
  O  O404  1  0.11164721  -0.00420701  0.51140938  1
  O  O405  1  0.11721357  0.49738788  0.01126715  1
  O  O406  1  0.10565782  0.50171961  0.49362599  1
  O  O407  1  0.62855123  0.01540026  -0.00701396  1
  O  O408  1  0.61914077  0.00755438  0.50900880  1
  O  O409  1  0.61877467  0.50599172  0.00005701  1
  O  O410  1  0.61788192  0.50259316  0.51025692  1
  O  O411  1  0.38086788  0.37915987  0.11249679  1
  O  O412  1  0.38715211  0.36688661  0.61787246  1
  O  O413  1  0.35019263  0.87836787  0.11377532  1
  O  O414  1  0.36954345  0.87236938  0.62246615  1
  O  O415  1  0.86726436  0.36483518  0.12458050  1
  O  O416  1  0.86636774  0.36703769  0.63133390  1
  O  O417  1  0.86748478  0.87039844  0.11677737  1
  O  O418  1  0.86986485  0.86833282  0.62295158  1
  O  O419  1  0.12231830  0.13458013  0.38374286  1
  O  O420  1  0.13252973  0.12473176  0.88432558  1
  O  O421  1  0.13403240  0.63625438  0.37803490  1
  O  O422  1  0.12420204  0.63111500  0.88166486  1
  O  O423  1  0.63105264  0.12741426  0.39097014  1
  O  O424  1  0.62521199  0.13404166  0.88503164  1
  O  O425  1  0.63699044  0.62360829  0.37695531  1
  O  O426  1  0.63318119  0.62708813  0.88333447  1
