# generated using pymatgen
data_V85Zn86O256
_symmetry_space_group_name_H-M   'P 1'
_cell_length_a   16.95830468
_cell_length_b   16.95843826
_cell_length_c   16.97846451
_cell_angle_alpha   90.05689659
_cell_angle_beta   90.02253383
_cell_angle_gamma   90.11931457
_symmetry_Int_Tables_number   1
_chemical_formula_structural   V85Zn86O256
_chemical_formula_sum   'V85 Zn86 O256'
_cell_volume   4882.76148194
_cell_formula_units_Z   1
loop_
 _symmetry_equiv_pos_site_id
 _symmetry_equiv_pos_as_xyz
  1  'x, y, z'
loop_
 _atom_site_type_symbol
 _atom_site_label
 _atom_site_symmetry_multiplicity
 _atom_site_fract_x
 _atom_site_fract_y
 _atom_site_fract_z
 _atom_site_occupancy
  V  V0  1  0.07323103  0.93399305  0.18868526  1
  V  V1  1  0.00689695  0.62628421  0.11910827  1
  V  V2  1  0.12810802  0.75259526  0.37784828  1
  V  V3  1  0.87237311  0.62466492  0.74726258  1
  V  V4  1  0.49871318  0.62017669  0.12767996  1
  V  V5  1  0.87130272  0.61735704  0.24964476  1
  V  V6  1  0.00232894  0.37266700  0.87295234  1
  V  V7  1  0.00124132  0.87996601  0.88236325  1
  V  V8  1  0.36258311  -0.00068067  0.87181184  1
  V  V9  1  0.49780798  0.75447491  0.25561858  1
  V  V10  1  0.62391269  0.12797617  0.00161280  1
  V  V11  1  0.12614947  0.50103475  0.62472686  1
  V  V12  1  0.38240491  0.24515923  0.62533864  1
  V  V13  1  0.37407879  0.51707530  0.87207043  1
  V  V14  1  0.62765809  0.86181319  0.75000147  1
  V  V15  1  0.49781241  0.37403771  0.86879325  1
  V  V16  1  0.85903161  0.74894069  0.11726881  1
  V  V17  1  -0.00060489  0.62736818  0.62194027  1
  V  V18  1  0.87459094  0.00093459  0.37692566  1
  V  V19  1  0.24915772  0.87798439  0.13301138  1
  V  V20  1  0.74296838  0.62241467  0.88122450  1
  V  V21  1  0.48703746  0.62923072  0.62765987  1
  V  V22  1  0.36846971  0.87408990  0.00198232  1
  V  V23  1  0.09370489  0.11353617  0.00853930  1
  V  V24  1  0.74790681  0.24885860  0.49869899  1
  V  V25  1  0.36627834  0.11822899  0.75319051  1
  V  V26  1  0.00421803  0.74929699  0.24565113  1
  V  V27  1  0.37551143  0.49608564  0.37515769  1
  V  V28  1  0.87479840  0.50268541  0.87348395  1
  V  V29  1  0.88360742  0.13330387  0.24851089  1
  V  V30  1  0.87525160  0.75017480  0.62254329  1
  V  V31  1  0.50477091  0.36674808  0.37775062  1
  V  V32  1  0.75109556  0.12941393  0.87097520  1
  V  V33  1  0.87677703  0.37708253  0.00183695  1
  V  V34  1  0.12829968  0.25207476  0.36166565  1
  V  V35  1  0.74751701  -0.00068824  0.24504528  1
  V  V36  1  0.37573971  0.00270293  0.36918592  1
  V  V37  1  0.49558134  0.12379636  0.13022370  1
  V  V38  1  0.24766446  0.37120514  0.13041654  1
  V  V39  1  0.34336314  0.34104808  -0.02956325  1
  V  V40  1  0.49391558  0.49249815  0.00112093  1
  V  V41  1  0.37045506  0.74610901  0.12775184  1
  V  V42  1  0.13130819  0.74150422  0.87532664  1
  V  V43  1  0.00520938  0.01444659  0.50820972  1
  V  V44  1  0.25238382  0.13120246  0.35311115  1
  V  V45  1  0.50273203  -0.00040983  -0.00012229  1
  V  V46  1  0.87473035  0.37398597  0.49964287  1
  V  V47  1  0.25054977  0.37336715  0.62359117  1
  V  V48  1  0.62972847  0.37602943  0.25354921  1
  V  V49  1  0.50665738  0.24355843  0.25661239  1
  V  V50  1  0.00977519  0.50416802  -0.00444678  1
  V  V51  1  0.88276239  0.12495227  0.74426396  1
  V  V52  1  0.74763535  0.49695561  0.74823359  1
  V  V53  1  0.12418049  0.88808537  0.75020495  1
  V  V54  1  0.63206514  0.49759388  0.12700365  1
  V  V55  1  0.50142248  0.12064270  0.63712231  1
  V  V56  1  0.19531664  0.18886006  0.55551328  1
  V  V57  1  0.36290169  0.86502674  0.49420279  1
  V  V58  1  0.62457201  0.62443573  0.49870115  1
  V  V59  1  0.67993899  0.79563152  0.93054709  1
  V  V60  1  0.24235106  0.49452427  0.25478034  1
  V  V61  1  0.49924676  0.86568390  0.87598999  1
  V  V62  1  0.62289684  0.49822592  0.62420186  1
  V  V63  1  0.62007801  0.12770878  0.49862807  1
  V  V64  1  0.63049104  0.87173790  0.24442548  1
  V  V65  1  0.75097193  0.87440904  0.62373026  1
  V  V66  1  0.74321265  0.12689275  0.37326054  1
  V  V67  1  0.37747072  0.25383104  0.13205672  1
  V  V68  1  0.00864110  0.88000044  0.37706126  1
  V  V69  1  0.87695117  0.87602718  0.49807487  1
  V  V70  1  0.61607949  0.24895875  0.86522886  1
  V  V71  1  0.12619356  0.49775019  0.12533859  1
  V  V72  1  0.62258625  0.75459022  0.37591796  1
  V  V73  1  0.24910020  0.62723803  0.38154983  1
  V  V74  1  0.62287746  -0.00304249  0.62439410  1
  V  V75  1  0.49888047  0.49559969  0.49986398  1
  V  V76  1  0.13065601  0.37638863  0.76199494  1
  V  V77  1  0.74997421  0.74966369  0.49694809  1
  V  V78  1  0.25592314  0.52042662  0.75002384  1
  V  V79  1  0.74758433  0.25512258  -0.00011552  1
  V  V80  1  -0.00071010  0.50095481  0.49554875  1
  V  V81  1  0.25056572  0.87187069  0.62876964  1
  V  V82  1  0.49747904  -0.00962845  0.49784557  1
  V  V83  1  0.00447556  0.24817681  0.74471078  1
  V  V84  1  0.75294892  0.00098265  0.75021631  1
  Zn  Zn85  1  0.24861066  -0.00294323  0.24794597  1
  Zn  Zn86  1  0.61941706  0.36975097  0.74510094  1
  Zn  Zn87  1  0.87329429  0.87203011  0.00220904  1
  Zn  Zn88  1  0.12890484  0.63117797  0.50278367  1
  Zn  Zn89  1  0.37396419  0.62372224  0.25442939  1
  Zn  Zn90  1  0.75070959  0.37525764  0.13242641  1
  Zn  Zn91  1  0.12654255  0.01111079  0.62561379  1
  Zn  Zn92  1  0.74954132  0.37167972  0.62491446  1
  Zn  Zn93  1  0.37066590  0.36328297  0.49736471  1
  Zn  Zn94  1  0.62552195  -0.00236116  0.12663047  1
  Zn  Zn95  1  0.01393967  0.26182641  0.23248266  1
  Zn  Zn96  1  0.00217419  0.75229165  0.74980039  1
  Zn  Zn97  1  0.87015304  0.49297050  0.36695060  1
  Zn  Zn98  1  0.87839676  0.24389436  0.11858313  1
  Zn  Zn99  1  0.00902253  0.37418599  0.37328582  1
  Zn  Zn100  1  0.87880872  0.24578149  0.62187907  1
  Zn  Zn101  1  0.74665588  0.61898777  0.36881118  1
  Zn  Zn102  1  0.24803367  0.73455252  -0.00096949  1
  Zn  Zn103  1  0.62272884  0.62411127  -0.00258808  1
  Zn  Zn104  1  0.88926089  0.01132296  0.89088886  1
  Zn  Zn105  1  0.48569193  0.73356616  0.75843481  1
  Zn  Zn106  1  0.21356209  0.19697137  0.93879546  1
  Zn  Zn107  1  0.19901970  0.16780385  0.14067513  1
  Zn  Zn108  1  0.18747841  0.18471347  0.72078250  1
  Zn  Zn109  1  0.18747398  0.68405597  0.19291418  1
  Zn  Zn110  1  0.18398659  0.69868081  0.68445764  1
  Zn  Zn111  1  0.68609128  0.18990208  0.18607706  1
  Zn  Zn112  1  0.68860456  0.18680510  0.68408009  1
  Zn  Zn113  1  0.68433830  0.68195455  0.18801336  1
  Zn  Zn114  1  0.68521937  0.68357668  0.68595846  1
  Zn  Zn115  1  0.31618861  0.31008045  0.30903913  1
  Zn  Zn116  1  0.32000157  0.31345160  0.79957438  1
  Zn  Zn117  1  0.31170061  0.81451695  0.31435860  1
  Zn  Zn118  1  0.30883632  0.81034011  0.80936535  1
  Zn  Zn119  1  0.81161220  0.31264904  0.31818965  1
  Zn  Zn120  1  0.81470028  0.31260718  0.81148416  1
  Zn  Zn121  1  0.81460358  0.80862248  0.31052888  1
  Zn  Zn122  1  0.82156856  0.81428281  0.80925634  1
  Zn  Zn123  1  0.18729131  0.43550745  0.44168941  1
  Zn  Zn124  1  0.18873510  0.56523002  0.93444576  1
  Zn  Zn125  1  0.18890916  0.94596638  0.43868179  1
  Zn  Zn126  1  0.18023251  0.94133497  0.94577642  1
  Zn  Zn127  1  0.69021331  0.43852673  0.43456358  1
  Zn  Zn128  1  0.68223379  0.43763131  0.93689754  1
  Zn  Zn129  1  0.68538908  0.93711129  0.43321322  1
  Zn  Zn130  1  0.72175867  0.96677047  0.96406055  1
  Zn  Zn131  1  0.31452829  0.05991902  0.05995362  1
  Zn  Zn132  1  0.31623243  0.04932998  0.56731108  1
  Zn  Zn133  1  0.31597885  0.55577244  0.06617266  1
  Zn  Zn134  1  0.31243190  0.55816915  0.55888149  1
  Zn  Zn135  1  0.81860436  0.06650565  0.06571218  1
  Zn  Zn136  1  0.81421500  0.06261027  0.56243967  1
  Zn  Zn137  1  0.81664240  0.56313816  0.06186927  1
  Zn  Zn138  1  0.81040621  0.56050602  0.55750265  1
  Zn  Zn139  1  0.43769499  0.43299753  0.19262732  1
  Zn  Zn140  1  0.43473561  0.43859632  0.68821500  1
  Zn  Zn141  1  0.43843718  0.93472227  0.18905188  1
  Zn  Zn142  1  0.42152782  0.90363631  0.70343592  1
  Zn  Zn143  1  0.94560496  0.42930917  0.18340705  1
  Zn  Zn144  1  0.93725395  0.43619439  0.68335078  1
  Zn  Zn145  1  0.90942507  0.93210183  0.19013274  1
  Zn  Zn146  1  0.94110635  0.93905028  0.68980688  1
  Zn  Zn147  1  0.06396426  0.07269794  0.32155214  1
  Zn  Zn148  1  0.07118658  0.06804850  0.82512077  1
  Zn  Zn149  1  0.06223263  0.56383448  0.31055757  1
  Zn  Zn150  1  0.06051755  0.56137024  0.80446000  1
  Zn  Zn151  1  0.56135967  0.05869815  0.31483839  1
  Zn  Zn152  1  0.56442556  0.05303574  0.81437653  1
  Zn  Zn153  1  0.56317554  0.56162757  0.31220725  1
  Zn  Zn154  1  0.56207233  0.56100855  0.81128547  1
  Zn  Zn155  1  0.43314317  0.18275205  0.44078290  1
  Zn  Zn156  1  0.43459210  0.18465825  0.93683216  1
  Zn  Zn157  1  0.43841455  0.68439499  0.43894936  1
  Zn  Zn158  1  0.43725242  0.68730919  0.94574541  1
  Zn  Zn159  1  0.93683863  0.19056652  0.43208844  1
  Zn  Zn160  1  0.94003202  0.19281883  0.93429768  1
  Zn  Zn161  1  0.94002394  0.68960848  0.43376997  1
  Zn  Zn162  1  0.94000641  0.68984762  0.93467143  1
  Zn  Zn163  1  0.06932358  0.30426999  0.05795372  1
  Zn  Zn164  1  0.06143218  0.31746056  0.56528439  1
  Zn  Zn165  1  0.06197866  0.80604678  0.05345648  1
  Zn  Zn166  1  0.06529256  0.81668286  0.56195984  1
  Zn  Zn167  1  0.55858185  0.31373286  0.06089870  1
  Zn  Zn168  1  0.56074349  0.30818887  0.56372061  1
  Zn  Zn169  1  0.55566097  0.81344187  0.07043526  1
  Zn  Zn170  1  0.55810549  0.81146816  0.56226647  1
  O  O171  1  0.09840056  0.12880025  0.11141366  1
  O  O172  1  0.14134505  0.13292486  0.62365301  1
  O  O173  1  0.11323424  0.61830108  0.12979508  1
  O  O174  1  0.11584397  0.62180642  0.62304040  1
  O  O175  1  0.61494666  0.12515847  0.11762218  1
  O  O176  1  0.61930138  0.11748920  0.61893472  1
  O  O177  1  0.61605424  0.61549222  0.12320267  1
  O  O178  1  0.61977508  0.61234848  0.61847564  1
  O  O179  1  0.38483829  0.37851357  0.37683017  1
  O  O180  1  0.38058831  0.38800459  0.87364420  1
  O  O181  1  0.36754251  0.88514873  0.38693026  1
  O  O182  1  0.38216111  0.88320140  0.88535006  1
  O  O183  1  0.87688945  0.37471465  0.38927578  1
  O  O184  1  0.88024056  0.38363550  0.88128911  1
  O  O185  1  0.88726929  0.87990396  0.37582170  1
  O  O186  1  0.89029451  0.87282254  0.87750729  1
  O  O187  1  0.25454887  0.01437811  0.37055880  1
  O  O188  1  0.26525325  -0.00931781  0.88121393  1
  O  O189  1  0.25536322  0.50162824  0.37161012  1
  O  O190  1  0.25780788  0.50714129  0.85832081  1
  O  O191  1  0.75493151  0.00717210  0.36890529  1
  O  O192  1  0.74266914  0.01859755  0.86336339  1
  O  O193  1  0.75805130  0.50744736  0.38142122  1
  O  O194  1  0.75241758  0.50454648  0.86706459  1
  O  O195  1  0.24774666  0.49248638  0.13689823  1
  O  O196  1  0.24936188  0.49314312  0.63460831  1
  O  O197  1  0.26168459  0.98281200  0.12968267  1
  O  O198  1  0.23833263  0.98179106  0.61346064  1
  O  O199  1  0.73495273  0.49916757  0.11685975  1
  O  O200  1  0.74089363  0.49869157  0.63127918  1
  O  O201  1  0.74665811  1.00637072  0.14153602  1
  O  O202  1  0.74523116  0.99342054  0.63060846  1
  O  O203  1  -0.00875919  0.37073830  0.26299571  1
  O  O204  1  0.00742327  0.37405408  0.75431271  1
  O  O205  1  0.00583120  0.87331276  0.25132421  1
  O  O206  1  0.00713582  0.87210116  0.75810110  1
  O  O207  1  0.50870267  0.36631734  0.25928154  1
  O  O208  1  0.50037317  0.38050163  0.76355703  1
  O  O209  1  0.50830540  0.86017140  0.24618396  1
  O  O210  1  0.52079181  0.89198369  0.76723651  1
  O  O211  1  0.50941792  0.13127691  0.24281118  1
  O  O212  1  0.49664022  0.11226128  0.74029320  1
  O  O213  1  0.50009697  0.63254057  0.24071888  1
  O  O214  1  0.50183867  0.62166761  0.73401837  1
  O  O215  1  0.98481490  0.13266852  0.26010506  1
  O  O216  1  0.99463192  0.13549750  0.76147970  1
  O  O217  1  0.99231985  0.63286298  0.24135417  1
  O  O218  1  0.99318168  0.62515076  0.73528283  1
  O  O219  1  0.39020193  0.25372494  0.01965441  1
  O  O220  1  0.37642845  0.24684051  0.51804259  1
  O  O221  1  0.37252849  0.75769154  0.01054140  1
  O  O222  1  0.38066519  0.76735162  0.49271887  1
  O  O223  1  0.86555272  0.26060574  -0.00475329  1
  O  O224  1  0.86849965  0.25477893  0.50144910  1
  O  O225  1  0.87723483  0.74695361  0.01415961  1
  O  O226  1  0.87095762  0.75603182  0.50265494  1
  O  O227  1  0.13129228  0.24685281  0.50249344  1
  O  O228  1  0.11485853  0.22899236  0.99188564  1
  O  O229  1  0.11402070  0.74876133  0.48186208  1
  O  O230  1  0.12944722  0.75031666  0.98119038  1
  O  O231  1  0.63024360  0.23472593  0.50479986  1
  O  O232  1  0.63052507  0.24844716  0.99010024  1
  O  O233  1  0.62768623  0.74761951  0.49203588  1
  O  O234  1  0.62048274  0.74621809  0.99859281  1
  O  O235  1  0.49904545  0.24344431  0.13475695  1
  O  O236  1  0.49497016  0.23496503  0.62542442  1
  O  O237  1  0.48824065  0.74066936  0.13184134  1
  O  O238  1  0.50492320  0.73064062  0.62285508  1
  O  O239  1  0.98607378  0.27378156  0.12441928  1
  O  O240  1  0.99910911  0.25545311  0.64040708  1
  O  O241  1  0.99947232  0.74230219  0.12901814  1
  O  O242  1  0.99482460  0.74254576  0.62329635  1
  O  O243  1  0.02207614  0.24592654  0.37895280  1
  O  O244  1  -0.00800464  0.26831190  0.86370095  1
  O  O245  1  0.00302050  0.76107727  0.36418956  1
  O  O246  1  0.01079440  0.75837007  0.87217850  1
  O  O247  1  0.49509868  0.25481717  0.37036516  1
  O  O248  1  0.50597361  0.25798841  0.87907769  1
  O  O249  1  0.50840984  0.74245219  0.36557452  1
  O  O250  1  0.49663604  0.76126596  0.87710709  1
  O  O251  1  0.25232466  0.12699505  0.50059481  1
  O  O252  1  0.24273199  0.13779983  1.03430949  1
  O  O253  1  0.24727176  0.61827622  0.48622440  1
  O  O254  1  0.25724868  0.62206609  1.00019963  1
  O  O255  1  0.74294572  0.12758050  0.49468302  1
  O  O256  1  0.74674722  0.13738824  0.99169860  1
  O  O257  1  0.74140507  0.63476889  0.50177370  1
  O  O258  1  0.74914395  0.61895310  0.98496604  1
  O  O259  1  0.26275776  0.38155783  0.01496365  1
  O  O260  1  0.25305065  0.38000840  0.51896928  1
  O  O261  1  0.25986039  0.87245004  0.00855866  1
  O  O262  1  0.25787341  0.87504990  0.50031263  1
  O  O263  1  0.75517674  0.36606681  -0.00613152  1
  O  O264  1  0.75488005  0.36459116  0.50090191  1
  O  O265  1  0.73949535  0.85435231  -0.01366162  1
  O  O266  1  0.75591382  0.87027416  0.50254555  1
  O  O267  1  0.13284478  0.50191013  0.24274168  1
  O  O268  1  0.13825090  0.49686547  0.74408312  1
  O  O269  1  0.12276437  1.00073244  0.24880911  1
  O  O270  1  0.11876646  0.99141463  0.74858606  1
  O  O271  1  0.61646558  0.48951391  0.23911413  1
  O  O272  1  0.63193055  0.49674924  0.74126522  1
  O  O273  1  0.63032071  0.98880707  0.25243050  1
  O  O274  1  0.63860959  0.99349956  0.74404498  1
  O  O275  1  0.37775405  -0.00719142  0.26581875  1
  O  O276  1  0.38197247  -0.00195920  0.76722536  1
  O  O277  1  0.37064161  0.49941712  0.26376042  1
  O  O278  1  0.36198369  0.49987119  0.75541094  1
  O  O279  1  0.86603405  0.01168235  0.25828798  1
  O  O280  1  0.86528142  0.00486432  0.75329365  1
  O  O281  1  0.88223049  0.51541260  0.24580768  1
  O  O282  1  0.86748646  0.50443037  0.75252619  1
  O  O283  1  0.13200261  0.35561676  0.38224327  1
  O  O284  1  0.11539133  0.38650634  0.86261622  1
  O  O285  1  0.11537031  0.87186651  0.37756788  1
  O  O286  1  0.11746144  0.87157444  0.87053720  1
  O  O287  1  0.61192069  0.37969452  0.36966965  1
  O  O288  1  0.61536987  0.36662177  0.87236874  1
  O  O289  1  0.62687296  0.86122897  0.36582119  1
  O  O290  1  0.62419232  0.86467372  0.87357290  1
  O  O291  1  0.39130555  0.13172681  0.12417293  1
  O  O292  1  0.38288733  0.12241290  0.63368881  1
  O  O293  1  0.38158702  0.62940982  0.13223880  1
  O  O294  1  0.38847966  0.62019816  0.61807584  1
  O  O295  1  0.87292952  0.12617865  0.14338261  1
  O  O296  1  0.87192802  0.12450378  0.64045321  1
  O  O297  1  0.88360480  0.63148712  0.13205148  1
  O  O298  1  0.87970996  0.62901181  0.62717113  1
  O  O299  1  0.26407170  0.26243107  0.14261726  1
  O  O300  1  0.25188946  0.25053742  0.62551915  1
  O  O301  1  0.25910342  0.75285742  0.12836858  1
  O  O302  1  0.23863235  0.77105935  0.61538916  1
  O  O303  1  0.75365125  0.25387389  0.11302626  1
  O  O304  1  0.75234693  0.24968473  0.61231785  1
  O  O305  1  0.76101525  0.73912051  0.12342054  1
  O  O306  1  0.75362090  0.75546247  0.61886667  1
  O  O307  1  0.24795514  0.23879208  0.36992150  1
  O  O308  1  0.29355750  0.26832055  0.90108333  1
  O  O309  1  0.23992092  0.74001854  0.36671828  1
  O  O310  1  0.23613588  0.75503183  0.87529931  1
  O  O311  1  0.75046659  0.24007866  0.38915774  1
  O  O312  1  0.74264999  0.24315789  0.87732948  1
  O  O313  1  0.74278970  0.74526363  0.37994722  1
  O  O314  1  0.74530029  0.74211288  0.86886350  1
  O  O315  1  -0.00804628  0.11083835  -0.01092140  1
  O  O316  1  -0.00996294  0.11196985  0.49806383  1
  O  O317  1  -0.00655994  0.61646797  0.00777616  1
  O  O318  1  -0.00213098  0.61943547  0.50864846  1
  O  O319  1  0.50484461  0.11599435  0.00565157  1
  O  O320  1  0.50662007  0.11590826  0.50810932  1
  O  O321  1  0.49975539  0.61662267  0.01404863  1
  O  O322  1  0.50569790  0.61601912  0.50747550  1
  O  O323  1  0.49774519  0.37678858  0.49332498  1
  O  O324  1  0.49229870  0.37971447  0.98867196  1
  O  O325  1  0.49027016  0.88568343  0.50628487  1
  O  O326  1  0.49020193  0.87945544  0.99822973  1
  O  O327  1  0.99389294  0.38330340  0.49735923  1
  O  O328  1  0.99351000  0.38435150  0.98901349  1
  O  O329  1  0.99413018  0.88276646  0.49170368  1
  O  O330  1  0.99739546  0.87324914  0.98613474  1
  O  O331  1  0.49277578  0.49263530  0.37925248  1
  O  O332  1  0.49559918  0.49408937  0.88228632  1
  O  O333  1  0.49028379  1.00714592  0.38703851  1
  O  O334  1  0.50124366  0.98856449  0.88989056  1
  O  O335  1  0.99802978  0.50323385  0.38744325  1
  O  O336  1  0.99549086  0.49536749  0.87731249  1
  O  O337  1  0.99532399  0.99638611  0.38190115  1
  O  O338  1  0.99974316  0.98402997  0.86936816  1
  O  O339  1  0.00322523  -0.01943697  0.13781068  1
  O  O340  1  0.00220522  -0.00016360  0.61216569  1
  O  O341  1  0.00567399  0.50517224  0.11427890  1
  O  O342  1  0.00414442  0.50739143  0.61614928  1
  O  O343  1  0.49999618  0.00451301  0.11656618  1
  O  O344  1  0.50777218  0.00474762  0.61663563  1
  O  O345  1  0.50119257  0.50330402  0.12010204  1
  O  O346  1  0.50489172  0.50418198  0.62000746  1
  O  O347  1  0.25501680  0.38715017  0.24609851  1
  O  O348  1  0.24430008  0.37876018  0.74152763  1
  O  O349  1  0.24816553  0.87471862  0.23994092  1
  O  O350  1  0.24046568  0.87620767  0.73670428  1
  O  O351  1  0.73482470  0.36837983  0.25235978  1
  O  O352  1  0.74896933  0.38625257  0.74836427  1
  O  O353  1  0.74392351  0.88481989  0.25713115  1
  O  O354  1  0.74565540  0.88162980  0.74755899  1
  O  O355  1  0.24928604  0.12150991  0.25221570  1
  O  O356  1  0.26584685  0.11376313  0.75377409  1
  O  O357  1  0.25212338  0.61202318  0.26159425  1
  O  O358  1  0.24931620  0.61812043  0.73828317  1
  O  O359  1  0.74944473  0.12021952  0.25901937  1
  O  O360  1  0.75572759  0.12011969  0.75396211  1
  O  O361  1  0.76735258  0.62938346  0.24836732  1
  O  O362  1  0.75108738  0.61347312  0.75531939  1
  O  O363  1  0.35998055  0.11934279  0.37677143  1
  O  O364  1  0.38328350  0.10784042  0.86914751  1
  O  O365  1  0.36842890  0.61527915  0.37566774  1
  O  O366  1  0.38742553  0.61631340  0.87148349  1
  O  O367  1  0.86327054  0.12160539  0.36723216  1
  O  O368  1  0.86538006  0.12595321  0.86454363  1
  O  O369  1  0.87889973  0.62903033  0.35637451  1
  O  O370  1  0.86789274  0.62176085  0.86613496  1
  O  O371  1  0.14058970  0.38174452  0.11677371  1
  O  O372  1  0.13215676  0.38255605  0.63468654  1
  O  O373  1  0.13014663  0.87245047  0.12460553  1
  O  O374  1  0.12731654  0.87859517  0.63497820  1
  O  O375  1  0.62408159  0.38145393  0.13296853  1
  O  O376  1  0.62448351  0.38490921  0.62555497  1
  O  O377  1  0.62422625  0.87446879  0.13944264  1
  O  O378  1  0.63049178  0.87740310  0.63203883  1
  O  O379  1  0.12759756  0.24654954  0.26214996  1
  O  O380  1  0.11777423  0.26245613  0.75648857  1
  O  O381  1  0.11097906  0.74466904  0.25908986  1
  O  O382  1  0.12304429  0.76138534  0.76114476  1
  O  O383  1  0.61424620  0.25833618  0.24794628  1
  O  O384  1  0.62958242  0.24981737  0.76146550  1
  O  O385  1  0.62044609  0.75293257  0.25560350  1
  O  O386  1  0.61871499  0.76001294  0.74450498  1
  O  O387  1  0.39283026  0.25287031  0.24156296  1
  O  O388  1  0.37303766  0.23298874  0.73723067  1
  O  O389  1  0.38221272  0.74828421  0.24609422  1
  O  O390  1  0.39519799  0.79670453  0.74303012  1
  O  O391  1  0.86730184  0.23651315  0.25182805  1
  O  O392  1  0.88253846  0.24271012  0.74758724  1
  O  O393  1  0.88539025  0.74475004  0.23794768  1
  O  O394  1  0.87705237  0.74199333  0.73946833  1
  O  O395  1  0.38005360  0.49261526  0.48886003  1
  O  O396  1  0.38569809  0.49752317  0.99038339  1
  O  O397  1  0.38196481  0.99361649  0.48988517  1
  O  O398  1  0.38369400  0.99356532  0.99307487  1
  O  O399  1  0.88403110  0.49222812  0.50120049  1
  O  O400  1  0.88348803  0.49622499  0.99131309  1
  O  O401  1  0.88129146  0.99427618  0.49514937  1
  O  O402  1  0.83880625  0.98508729  0.99172807  1
  O  O403  1  0.12257697  0.01373233  0.00698878  1
  O  O404  1  0.10821765  0.00274092  0.49920007  1
  O  O405  1  0.11400509  0.50303500  0.00165646  1
  O  O406  1  0.11627354  0.50240142  0.50720667  1
  O  O407  1  0.62157536  0.00704314  0.00532380  1
  O  O408  1  0.61838192  0.00501644  0.50314719  1
  O  O409  1  0.61000845  0.49732189  0.00783970  1
  O  O410  1  0.61879384  0.50285678  0.50698524  1
  O  O411  1  0.36926640  0.36688863  0.12676297  1
  O  O412  1  0.36823125  0.36187446  0.63002621  1
  O  O413  1  0.37052806  0.86504979  0.12074939  1
  O  O414  1  0.35859217  0.88531035  0.60783073  1
  O  O415  1  0.86644477  0.38643937  0.10765076  1
  O  O416  1  0.87226561  0.37240613  0.61226417  1
  O  O417  1  0.86915532  0.85521090  0.12083876  1
  O  O418  1  0.86992811  0.87022715  0.62021536  1
  O  O419  1  0.14400059  0.13587980  0.37651947  1
  O  O420  1  0.13695143  0.12117659  0.89563306  1
  O  O421  1  0.13133382  0.63328460  0.37627987  1
  O  O422  1  0.12145969  0.63675289  0.86742420  1
  O  O423  1  0.63546326  0.11777592  0.38461314  1
  O  O424  1  0.62814759  0.13196841  0.87980466  1
  O  O425  1  0.62483072  0.63442910  0.38021792  1
  O  O426  1  0.63335619  0.62134381  0.87759146  1
