# generated using pymatgen
data_V85Zn86O256
_symmetry_space_group_name_H-M   'P 1'
_cell_length_a   16.95463568
_cell_length_b   16.93928473
_cell_length_c   16.95319554
_cell_angle_alpha   90.01132931
_cell_angle_beta   89.88478870
_cell_angle_gamma   90.07256310
_symmetry_Int_Tables_number   1
_chemical_formula_structural   V85Zn86O256
_chemical_formula_sum   'V85 Zn86 O256'
_cell_volume   4868.93376831
_cell_formula_units_Z   1
loop_
 _symmetry_equiv_pos_site_id
 _symmetry_equiv_pos_as_xyz
  1  'x, y, z'
loop_
 _atom_site_type_symbol
 _atom_site_label
 _atom_site_symmetry_multiplicity
 _atom_site_fract_x
 _atom_site_fract_y
 _atom_site_fract_z
 _atom_site_occupancy
  V  V0  1  0.37617244  -0.00446497  0.37135415  1
  V  V1  1  0.74695921  0.37436566  0.12029754  1
  V  V2  1  0.12198468  0.37882940  0.25106795  1
  V  V3  1  0.62402057  0.12637578  0.50177118  1
  V  V4  1  0.75123377  0.12581731  0.37633363  1
  V  V5  1  0.87942428  -0.00439198  0.87232610  1
  V  V6  1  -0.00298850  0.39394755  0.87031032  1
  V  V7  1  0.00207033  0.25697210  0.74897061  1
  V  V8  1  0.49923878  0.50380611  0.50292607  1
  V  V9  1  -0.00766292  0.50501746  0.00093129  1
  V  V10  1  0.62902509  -0.00431813  0.62590225  1
  V  V11  1  0.74898345  -0.00507899  0.74724627  1
  V  V12  1  0.87576923  0.12346378  0.74880114  1
  V  V13  1  0.62184809  0.13104602  0.00325121  1
  V  V14  1  0.37344489  0.24867976  0.62161299  1
  V  V15  1  0.75314777  0.12968228  0.88542882  1
  V  V16  1  0.36558219  0.10807876  0.74208564  1
  V  V17  1  0.27184172  0.14271312  0.35812277  1
  V  V18  1  0.12728799  0.87518782  0.24697146  1
  V  V19  1  0.50093149  0.63358377  0.63407625  1
  V  V20  1  0.87162225  0.25132313  0.11445617  1
  V  V21  1  0.51574775  0.86677517  0.37203121  1
  V  V22  1  0.87062586  0.87579328  0.50355460  1
  V  V23  1  0.25638752  0.62621514  0.87989150  1
  V  V24  1  0.37984552  0.62961171  0.24159097  1
  V  V25  1  0.12115622  0.25640395  0.87345629  1
  V  V26  1  0.25647857  0.00639204  0.24376319  1
  V  V27  1  0.49905179  -0.00391286  0.49723360  1
  V  V28  1  0.87797862  0.62244221  0.24930615  1
  V  V29  1  0.87545925  0.61759078  0.75234785  1
  V  V30  1  0.24976733  0.50325664  0.24903496  1
  V  V31  1  0.74491057  0.74738821  -0.00279284  1
  V  V32  1  0.12891550  0.63720958  0.50524385  1
  V  V33  1  0.13299011  -0.00405824  0.63523271  1
  V  V34  1  0.12080972  0.50703116  0.12428450  1
  V  V35  1  0.36394693  0.86456896  0.49921906  1
  V  V36  1  0.00600673  0.12635643  0.62070020  1
  V  V37  1  0.87605097  0.12525148  0.24924572  1
  V  V38  1  0.51627958  0.74957072  0.24496118  1
  V  V39  1  0.26405627  0.87857310  0.11885786  1
  V  V40  1  0.37406142  0.50512422  0.37840660  1
  V  V41  1  0.06196719  0.80668262  0.81480633  1
  V  V42  1  0.74623037  0.61901928  0.87349908  1
  V  V43  1  0.49336994  0.48808125  0.00069366  1
  V  V44  1  0.00205522  -0.00470911  -0.00361474  1
  V  V45  1  0.00118050  0.87593611  0.37306853  1
  V  V46  1  -0.00289565  0.37660214  0.37621462  1
  V  V47  1  0.74813447  0.63225956  0.37563894  1
  V  V48  1  0.87832553  0.86974469  -0.00742306  1
  V  V49  1  0.74917257  0.87072847  0.12926280  1
  V  V50  1  0.25023841  0.63575134  0.37824652  1
  V  V51  1  -0.00301169  0.25107320  0.24361218  1
  V  V52  1  0.61657827  0.50741566  0.12778904  1
  V  V53  1  0.62600666  0.25157416  0.36982140  1
  V  V54  1  0.37122225  -0.00068751  0.89089429  1
  V  V55  1  0.24256410  0.11928246  0.86917253  1
  V  V56  1  0.87407670  0.37869612  0.50148859  1
  V  V57  1  0.61454073  0.87558864  0.74904725  1
  V  V58  1  0.24314868  0.37696844  0.63088167  1
  V  V59  1  0.12277453  0.50324425  0.63562186  1
  V  V60  1  0.87179062  0.75885216  0.63565536  1
  V  V61  1  0.62522104  0.63497320  0.49779192  1
  V  V62  1  0.61300770  0.74919886  0.86951120  1
  V  V63  1  0.49768544  0.12196892  0.14042222  1
  V  V64  1  0.12383933  0.63104628  0.00133288  1
  V  V65  1  0.38004787  0.63427816  0.75819445  1
  V  V66  1  0.00222936  0.50637352  0.50111986  1
  V  V67  1  0.12714790  -0.00158969  0.12032233  1
  V  V68  1  0.74883738  0.37536641  0.63050991  1
  V  V69  1  0.49687173  0.88472037  0.88899374  1
  V  V70  1  0.37102775  0.37860453  0.50041965  1
  V  V71  1  0.87763351  -0.00003620  0.37491525  1
  V  V72  1  0.00436898  0.74597927  0.24646304  1
  V  V73  1  0.37702666  0.47635696  0.87638468  1
  V  V74  1  0.88113546  0.74288999  0.12187323  1
  V  V75  1  0.49600476  0.12223569  0.62027783  1
  V  V76  1  0.62634373  0.50228967  0.62822703  1
  V  V77  1  0.62843821  -0.00354970  0.11863986  1
  V  V78  1  0.12204555  0.24157496  0.37588755  1
  V  V79  1  0.26114516  0.75237874  -0.00044272  1
  V  V80  1  0.50448231  0.37602496  0.37524161  1
  V  V81  1  0.24294753  0.24711399  0.49769795  1
  V  V82  1  0.74836830  -0.00625137  0.25140390  1
  V  V83  1  0.74937865  0.25154287  0.50223281  1
  V  V84  1  0.01123981  0.00475870  0.49758952  1
  Zn  Zn85  1  0.74721675  0.49474023  0.75983598  1
  Zn  Zn86  1  0.12411378  0.12498232  -0.00279329  1
  Zn  Zn87  1  0.38493509  0.75277821  0.12287498  1
  Zn  Zn88  1  0.62547454  0.37341373  0.24805390  1
  Zn  Zn89  1  0.36959007  0.74702118  0.62546264  1
  Zn  Zn90  1  0.24910685  0.50189421  0.75296345  1
  Zn  Zn91  1  0.00007751  0.63355805  0.62908175  1
  Zn  Zn92  1  0.87361782  0.50441776  0.37607978  1
  Zn  Zn93  1  0.27208260  0.26354225  -0.01144772  1
  Zn  Zn94  1  0.60910192  0.37492257  0.75765274  1
  Zn  Zn95  1  0.62502670  0.25757287  0.87415568  1
  Zn  Zn96  1  0.74635793  0.50024017  0.25176957  1
  Zn  Zn97  1  0.43418208  0.25528485  0.22029667  1
  Zn  Zn98  1  0.49693895  0.25171423  0.75354942  1
  Zn  Zn99  1  0.87613847  0.24871884  0.62455751  1
  Zn  Zn100  1  0.27869760  0.36756020  0.11797042  1
  Zn  Zn101  1  -0.00097617  0.12221190  0.12243140  1
  Zn  Zn102  1  0.87392319  0.37764069  -0.00575154  1
  Zn  Zn103  1  0.12913803  0.75632439  0.37969826  1
  Zn  Zn104  1  0.61167405  0.62596890  0.00148023  1
  Zn  Zn105  1  0.24013454  0.85860472  0.62522845  1
  Zn  Zn106  1  0.74769599  0.75664386  0.50120276  1
  Zn  Zn107  1  0.18670025  0.18702083  0.18220014  1
  Zn  Zn108  1  0.18299152  0.18612716  0.68665154  1
  Zn  Zn109  1  0.19229084  0.69020703  0.18477288  1
  Zn  Zn110  1  0.20529700  0.72574268  0.71251446  1
  Zn  Zn111  1  0.69169059  0.18629330  0.18679230  1
  Zn  Zn112  1  0.68652322  0.18585755  0.69217713  1
  Zn  Zn113  1  0.69158165  0.68400243  0.18666610  1
  Zn  Zn114  1  0.69145144  0.69237770  0.68738301  1
  Zn  Zn115  1  0.31530395  0.32316204  0.30308057  1
  Zn  Zn116  1  0.30913635  0.30197567  0.80233294  1
  Zn  Zn117  1  0.31695676  0.81489233  0.30669657  1
  Zn  Zn118  1  0.31233509  0.81905373  0.81503046  1
  Zn  Zn119  1  0.81045163  0.31619814  0.30953085  1
  Zn  Zn120  1  0.81679348  0.31163746  0.81402788  1
  Zn  Zn121  1  0.81506169  0.80951649  0.31392609  1
  Zn  Zn122  1  0.80543353  0.81142134  0.81232577  1
  Zn  Zn123  1  0.18531746  0.44099530  0.43816598  1
  Zn  Zn124  1  0.18315687  0.44131546  0.93319183  1
  Zn  Zn125  1  0.18996382  0.94359784  0.43231054  1
  Zn  Zn126  1  0.18959422  0.93249272  0.93082961  1
  Zn  Zn127  1  0.68935446  0.44563496  0.43982656  1
  Zn  Zn128  1  0.68157486  0.43406125  0.94413683  1
  Zn  Zn129  1  0.68926607  0.93925253  0.43911601  1
  Zn  Zn130  1  0.68983677  0.93751041  0.93443211  1
  Zn  Zn131  1  0.33401796  0.10952057  0.04445978  1
  Zn  Zn132  1  0.30936364  0.06111300  0.55034428  1
  Zn  Zn133  1  0.31365246  0.55642396  0.06110876  1
  Zn  Zn134  1  0.30804007  0.57208178  0.56862451  1
  Zn  Zn135  1  0.81495922  0.06130088  0.06201075  1
  Zn  Zn136  1  0.81590626  0.06131008  0.56327890  1
  Zn  Zn137  1  0.80570538  0.56199109  0.06383132  1
  Zn  Zn138  1  0.81188863  0.56694147  0.56600065  1
  Zn  Zn139  1  0.43883066  0.43659045  0.19358370  1
  Zn  Zn140  1  0.43308956  0.44180417  0.68881806  1
  Zn  Zn141  1  0.44391221  0.93865882  0.18882044  1
  Zn  Zn142  1  0.43783883  0.93287983  0.68455234  1
  Zn  Zn143  1  0.93920744  0.43811949  0.18073789  1
  Zn  Zn144  1  0.93684810  0.44111137  0.68765621  1
  Zn  Zn145  1  0.93649223  0.93333277  0.18360045  1
  Zn  Zn146  1  0.94641497  0.93419386  0.68844035  1
  Zn  Zn147  1  0.06710145  0.06391074  0.30887523  1
  Zn  Zn148  1  0.06009936  0.06038481  0.80826366  1
  Zn  Zn149  1  0.06283196  0.56713316  0.31774160  1
  Zn  Zn150  1  0.07978158  0.60756923  0.79965193  1
  Zn  Zn151  1  0.56751123  0.05659190  0.31269096  1
  Zn  Zn152  1  0.54627299  0.08705058  0.82598788  1
  Zn  Zn153  1  0.56339880  0.56606777  0.31320462  1
  Zn  Zn154  1  0.55899143  0.55538503  0.81724602  1
  Zn  Zn155  1  0.42795491  0.19853089  0.41676655  1
  Zn  Zn156  1  0.44298374  0.19521252  0.93645652  1
  Zn  Zn157  1  0.44189087  0.68829602  0.43314255  1
  Zn  Zn158  1  0.44024269  0.68148766  0.94359293  1
  Zn  Zn159  1  0.93676126  0.18933411  0.43829634  1
  Zn  Zn160  1  0.94412345  0.18585546  0.93510480  1
  Zn  Zn161  1  0.93733068  0.69225615  0.43731549  1
  Zn  Zn162  1  0.93746349  0.68366836  0.93196259  1
  Zn  Zn163  1  0.13099134  0.31844338  0.05726199  1
  Zn  Zn164  1  0.06316837  0.31575003  0.56224870  1
  Zn  Zn165  1  0.06544885  0.81308668  0.05753143  1
  Zn  Zn166  1  0.05405642  0.81529203  0.56697204  1
  Zn  Zn167  1  0.55985914  0.30805955  0.06589473  1
  Zn  Zn168  1  0.55967972  0.31476039  0.56983392  1
  Zn  Zn169  1  0.56507554  0.81533368  0.06244828  1
  Zn  Zn170  1  0.55818844  0.81359877  0.56320356  1
  O  O171  1  0.12039172  0.10901608  0.12193980  1
  O  O172  1  0.11291000  0.11590643  0.62484691  1
  O  O173  1  0.13346510  0.61391955  0.11988755  1
  O  O174  1  0.11949542  0.61708491  0.61447425  1
  O  O175  1  0.63002540  0.11675118  0.11785892  1
  O  O176  1  0.61651873  0.11537128  0.62024912  1
  O  O177  1  0.62798697  0.61033780  0.12340753  1
  O  O178  1  0.61973470  0.62072828  0.62292026  1
  O  O179  1  0.38343940  0.38590512  0.38278381  1
  O  O180  1  0.36852101  0.37782292  0.86908637  1
  O  O181  1  0.38019271  0.87960495  0.38263238  1
  O  O182  1  0.38114940  0.89076839  0.87271586  1
  O  O183  1  0.87728925  0.37846075  0.38659437  1
  O  O184  1  0.89026198  0.37461338  0.87681462  1
  O  O185  1  0.88257634  0.88084708  0.38051081  1
  O  O186  1  0.86556389  0.88005009  0.88583374  1
  O  O187  1  0.25857370  0.00967002  0.36291726  1
  O  O188  1  0.26030416  0.00370650  0.87250789  1
  O  O189  1  0.25296178  0.51109867  0.36866218  1
  O  O190  1  0.26339366  0.50347475  0.87560246  1
  O  O191  1  0.75653722  0.00414148  0.36849171  1
  O  O192  1  0.76257744  0.00588559  0.86911079  1
  O  O193  1  0.75455016  0.51310131  0.37222006  1
  O  O194  1  0.74279441  0.51582338  0.87988871  1
  O  O195  1  0.24588387  0.49119306  0.13506465  1
  O  O196  1  0.24086534  0.49416671  0.62671419  1
  O  O197  1  0.24307670  0.99409020  0.12883113  1
  O  O198  1  0.23323617  1.00347985  0.61481418  1
  O  O199  1  0.73582299  0.49487921  0.12810984  1
  O  O200  1  0.74115022  0.49343503  0.62452501  1
  O  O201  1  0.75189804  0.98985383  0.13280425  1
  O  O202  1  0.74001605  1.00533077  0.63268137  1
  O  O203  1  0.00029709  0.36989134  0.25754069  1
  O  O204  1  -0.00571449  0.37032013  0.75795513  1
  O  O205  1  0.00519642  0.86696809  0.25244493  1
  O  O206  1  0.01089679  0.86625780  0.74972531  1
  O  O207  1  0.50431924  0.36941153  0.26929528  1
  O  O208  1  0.50031958  0.36222405  0.72360881  1
  O  O209  1  0.49936311  0.86313488  0.26298611  1
  O  O210  1  0.51085297  0.88107258  0.75920459  1
  O  O211  1  0.51188633  0.12538740  0.24171227  1
  O  O212  1  0.48761914  0.11642415  0.72812291  1
  O  O213  1  0.49319949  0.64061737  0.25842330  1
  O  O214  1  0.49392535  0.61794166  0.74419723  1
  O  O215  1  0.99389565  0.13329228  0.24990828  1
  O  O216  1  0.99346199  0.13167712  0.74103139  1
  O  O217  1  0.99547473  0.63880122  0.25497776  1
  O  O218  1  0.97856543  0.62037904  0.74942969  1
  O  O219  1  0.37059265  0.21622541  0.01227832  1
  O  O220  1  0.36472048  0.26036291  0.50144821  1
  O  O221  1  0.36679961  0.74444376  0.00757588  1
  O  O222  1  0.37965667  0.76293858  0.49479794  1
  O  O223  1  0.88518506  0.24994755  0.01281816  1
  O  O224  1  0.86834186  0.26065454  0.50153908  1
  O  O225  1  0.86967563  0.75291483  0.00465129  1
  O  O226  1  0.87337856  0.76113237  0.50668953  1
  O  O227  1  0.12961173  0.25577549  0.48817192  1
  O  O228  1  0.10442400  0.24169611  0.97847494  1
  O  O229  1  0.11474966  0.74016424  0.49859347  1
  O  O230  1  0.13596503  0.73573537  1.01064256  1
  O  O231  1  0.63343450  0.24489320  0.49734836  1
  O  O232  1  0.62473066  0.23440522  0.99838914  1
  O  O233  1  0.62715836  0.73908134  0.50761111  1
  O  O234  1  0.63053990  0.74662567  0.99393258  1
  O  O235  1  0.50452102  0.23077997  0.13306569  1
  O  O236  1  0.48853149  0.23523634  0.61230409  1
  O  O237  1  0.50227975  0.75812440  0.13981686  1
  O  O238  1  0.49440716  0.73661354  0.62225615  1
  O  O239  1  0.99389085  0.24865404  0.13928207  1
  O  O240  1  1.00107665  0.24429276  0.62897689  1
  O  O241  1  0.99076237  0.75624958  0.13154260  1
  O  O242  1  0.97861146  0.74783362  0.62009647  1
  O  O243  1  0.00428853  0.25494897  0.36752684  1
  O  O244  1  0.00236080  0.25672102  0.86362213  1
  O  O245  1  0.00199944  0.75967579  0.36477629  1
  O  O246  1  -0.00424491  0.76338643  0.87836292  1
  O  O247  1  0.51693515  0.26352865  0.39110097  1
  O  O248  1  0.51722267  0.20362285  0.85940783  1
  O  O249  1  0.50199697  0.76085602  0.36555890  1
  O  O250  1  0.50956805  0.75864118  0.88251494  1
  O  O251  1  0.25699280  0.14356305  0.48479555  1
  O  O252  1  0.24041549  0.12492811  0.97899719  1
  O  O253  1  0.23931678  0.61939675  0.48975229  1
  O  O254  1  0.24791582  0.63078025  0.99930048  1
  O  O255  1  0.74691666  0.13003789  0.49495871  1
  O  O256  1  0.74571722  0.12167152  0.99435780  1
  O  O257  1  0.74209388  0.62603982  0.49388169  1
  O  O258  1  0.74833875  0.63650390  0.99343788  1
  O  O259  1  0.23172767  0.37134943  0.00818882  1
  O  O260  1  0.25248756  0.36939123  0.50395988  1
  O  O261  1  0.24573742  0.86433694  0.00837480  1
  O  O262  1  0.26205873  0.87819979  0.49659337  1
  O  O263  1  0.75728101  0.38221409  0.01531259  1
  O  O264  1  0.75710400  0.37383381  0.50811589  1
  O  O265  1  0.75661534  0.86297480  0.00448586  1
  O  O266  1  0.76607428  0.87826454  0.49540325  1
  O  O267  1  0.12921186  0.50074100  0.24656295  1
  O  O268  1  0.12604835  0.51412606  0.73784100  1
  O  O269  1  0.13284163  0.99408823  0.24135572  1
  O  O270  1  0.12368658  1.00014063  0.73403070  1
  O  O271  1  0.62161487  0.49791676  0.23984294  1
  O  O272  1  0.62670644  0.49770787  0.73880839  1
  O  O273  1  0.64408745  1.00226885  0.24275896  1
  O  O274  1  0.63161791  0.99708428  0.74224426  1
  O  O275  1  0.36659535  -0.00918440  0.25871457  1
  O  O276  1  0.36967570  0.00639630  0.74157793  1
  O  O277  1  0.36819281  0.50889540  0.25877866  1
  O  O278  1  0.37263919  0.50509498  0.76544085  1
  O  O279  1  0.86998558  0.00404059  0.25407160  1
  O  O280  1  0.87134541  0.00007806  0.75500029  1
  O  O281  1  0.88026983  0.51522062  0.24746572  1
  O  O282  1  0.86518512  0.51403743  0.74447232  1
  O  O283  1  0.11514944  0.37256786  0.36713934  1
  O  O284  1  0.10968227  0.36897783  0.87242726  1
  O  O285  1  0.12061598  0.87608009  0.36596967  1
  O  O286  1  0.12381437  0.86218827  0.87274793  1
  O  O287  1  0.62128408  0.37059749  0.37913388  1
  O  O288  1  0.63500804  0.37096392  0.86825059  1
  O  O289  1  0.61418994  0.87716371  0.37792791  1
  O  O290  1  0.61730227  0.87284467  0.86893915  1
  O  O291  1  0.39896273  0.10479531  0.13806719  1
  O  O292  1  0.37711592  0.12524976  0.62208797  1
  O  O293  1  0.36979994  0.62311548  0.13993767  1
  O  O294  1  0.38460762  0.62034425  0.63907553  1
  O  O295  1  0.87640903  0.13239106  0.13174987  1
  O  O296  1  0.88645591  0.12462296  0.63091340  1
  O  O297  1  0.86799162  0.63685429  0.13156882  1
  O  O298  1  0.87317650  0.63502309  0.63751967  1
  O  O299  1  0.22285525  0.26138469  0.10950255  1
  O  O300  1  0.24916458  0.25650057  0.61560636  1
  O  O301  1  0.25580655  0.76230831  0.12081008  1
  O  O302  1  0.25627205  0.74086717  0.61344293  1
  O  O303  1  0.76107785  0.25913921  0.13069123  1
  O  O304  1  0.75185042  0.25683361  0.61864147  1
  O  O305  1  0.75616141  0.75399026  0.11798582  1
  O  O306  1  0.76590049  0.74957384  0.61880140  1
  O  O307  1  0.23658076  0.25716403  0.38011883  1
  O  O308  1  0.23741245  0.24413977  0.87277525  1
  O  O309  1  0.24928896  0.73932564  0.36621620  1
  O  O310  1  0.26022574  0.73924180  0.88944512  1
  O  O311  1  0.74548385  0.24746466  0.38337401  1
  O  O312  1  0.75190566  0.23166567  0.86798098  1
  O  O313  1  0.75424311  0.73797686  0.37935111  1
  O  O314  1  0.73661656  0.74517805  0.88221464  1
  O  O315  1  -0.00091988  0.10713789  0.00103731  1
  O  O316  1  -0.00680218  0.11743703  0.50810721  1
  O  O317  1  0.01240164  0.61831828  -0.01053740  1
  O  O318  1  0.00545235  0.61827417  0.49897324  1
  O  O319  1  0.52058798  0.11713147  0.01575815  1
  O  O320  1  0.50384732  0.11491471  0.50521479  1
  O  O321  1  0.49856007  0.60219757  -0.00027735  1
  O  O322  1  0.50672918  0.62148811  0.50531201  1
  O  O323  1  0.49320246  0.38456640  0.49643734  1
  O  O324  1  0.50019650  0.38601804  1.00826230  1
  O  O325  1  0.49470188  0.87645009  0.48681038  1
  O  O326  1  0.50655192  0.88078376  0.98831665  1
  O  O327  1  0.99180652  0.38340355  0.49647112  1
  O  O328  1  0.99929274  0.39158954  0.98418479  1
  O  O329  1  0.99061776  0.88564861  0.49306097  1
  O  O330  1  0.98959592  0.88380948  1.00482751  1
  O  O331  1  0.49704665  0.49578825  0.38338303  1
  O  O332  1  0.48523738  0.49210173  0.88328658  1
  O  O333  1  0.49677697  0.98624542  0.37538681  1
  O  O334  1  0.48170194  0.99847855  0.87016048  1
  O  O335  1  0.99717488  0.49544244  0.38396551  1
  O  O336  1  1.00512430  0.49451885  0.87482791  1
  O  O337  1  0.99718887  0.99768337  0.37824613  1
  O  O338  1  0.98735627  1.00063691  0.87914464  1
  O  O339  1  0.00744752  -0.00287939  0.11650166  1
  O  O340  1  0.00791588  0.00680744  0.61590449  1
  O  O341  1  0.00916091  0.50289672  0.11489851  1
  O  O342  1  0.00630278  0.50352158  0.61777234  1
  O  O343  1  0.52098379  0.00474111  0.13664067  1
  O  O344  1  0.50673854  0.00205582  0.61526832  1
  O  O345  1  0.50904298  0.49365287  0.12307148  1
  O  O346  1  0.50688501  0.51057194  0.61912294  1
  O  O347  1  0.23418828  0.39249004  0.26108675  1
  O  O348  1  0.25027868  0.37580225  0.73401181  1
  O  O349  1  0.24545960  0.88380579  0.24152047  1
  O  O350  1  0.23658216  0.83916466  0.73872896  1
  O  O351  1  0.74929185  0.38169888  0.23913821  1
  O  O352  1  0.75739917  0.37558029  0.73612187  1
  O  O353  1  0.76056098  0.88080767  0.24135837  1
  O  O354  1  0.73801828  0.88957215  0.75733223  1
  O  O355  1  0.24838585  0.11392730  0.24612514  1
  O  O356  1  0.25437594  0.12919149  0.75670018  1
  O  O357  1  0.25505551  0.61785198  0.25653716  1
  O  O358  1  0.26088854  0.62506966  0.76488247  1
  O  O359  1  0.75802294  0.11707324  0.25708918  1
  O  O360  1  0.75710159  0.11270828  0.75565748  1
  O  O361  1  0.75998691  0.62426732  0.25738351  1
  O  O362  1  0.75459402  0.62352659  0.75789673  1
  O  O363  1  0.37797135  0.09946096  0.39002300  1
  O  O364  1  0.36533859  0.11134759  0.86011019  1
  O  O365  1  0.36832805  0.62249452  0.36912573  1
  O  O366  1  0.37102118  0.61739156  0.87318907  1
  O  O367  1  0.86991752  0.11986792  0.37027408  1
  O  O368  1  0.87101414  0.11597874  0.87029396  1
  O  O369  1  0.87024614  0.62653806  0.36618972  1
  O  O370  1  0.86172631  0.63498001  0.85986066  1
  O  O371  1  0.11285598  0.39039272  0.14416233  1
  O  O372  1  0.13190624  0.38949622  0.61724612  1
  O  O373  1  0.13171339  0.88407235  0.12809527  1
  O  O374  1  0.12448629  0.89261084  0.61189814  1
  O  O375  1  0.63118454  0.37987833  0.12758717  1
  O  O376  1  0.63575425  0.38556308  0.62031269  1
  O  O377  1  0.64169103  0.87985913  0.12216746  1
  O  O378  1  0.61802489  0.88651108  0.63138442  1
  O  O379  1  0.11585849  0.26111374  0.25545958  1
  O  O380  1  0.11013741  0.24733216  0.75595618  1
  O  O381  1  0.11860085  0.75638043  0.24790396  1
  O  O382  1  0.10563536  0.72094235  0.76609905  1
  O  O383  1  0.63470164  0.25079739  0.26679801  1
  O  O384  1  0.61914443  0.25185882  0.75060391  1
  O  O385  1  0.61516740  0.74461951  0.24813477  1
  O  O386  1  0.63064872  0.76278502  0.75803442  1
  O  O387  1  0.36867775  0.22286374  0.30931628  1
  O  O388  1  0.37551126  0.23374831  0.73633919  1
  O  O389  1  0.38484639  0.74375247  0.24612955  1
  O  O390  1  0.38025891  0.73648660  0.75423301  1
  O  O391  1  0.88105673  0.24537037  0.24658822  1
  O  O392  1  0.88593994  0.24322770  0.74598902  1
  O  O393  1  0.88288598  0.74230676  0.24150091  1
  O  O394  1  0.86624926  0.74557144  0.73990907  1
  O  O395  1  0.37834303  0.49933015  0.49734863  1
  O  O396  1  0.37887070  0.49314820  0.98832931  1
  O  O397  1  0.38116081  0.98479351  0.49365077  1
  O  O398  1  0.37094961  1.00939870  0.98839288  1
  O  O399  1  0.88498496  0.49664244  0.50212166  1
  O  O400  1  0.88885628  0.50668804  1.00625626  1
  O  O401  1  0.88364270  0.99510813  0.49375218  1
  O  O402  1  0.88000873  0.98943812  0.99301645  1
  O  O403  1  0.11721639  -0.00418556  0.00332791  1
  O  O404  1  0.11326682  0.00350018  0.49512001  1
  O  O405  1  0.11827816  0.50889647  0.00919240  1
  O  O406  1  0.11460973  0.50833150  0.50427156  1
  O  O407  1  0.63976905  0.00445144  0.01497668  1
  O  O408  1  0.62116917  0.00494657  0.50661891  1
  O  O409  1  0.61476496  0.50097282  0.01280634  1
  O  O410  1  0.61991324  0.51089375  0.51143771  1
  O  O411  1  0.36877296  0.34765900  0.18548761  1
  O  O412  1  0.36238689  0.37297595  0.61525063  1
  O  O413  1  0.36663491  0.87889113  0.12649970  1
  O  O414  1  0.37653255  0.87104214  0.60822895  1
  O  O415  1  0.86945943  0.36720338  0.12252516  1
  O  O416  1  0.86969396  0.37554592  0.61394566  1
  O  O417  1  0.86631773  0.86492774  0.11474185  1
  O  O418  1  0.87809131  0.86788592  0.61972438  1
  O  O419  1  0.13722906  0.14030079  0.36298861  1
  O  O420  1  0.12860789  0.13010786  0.86925579  1
  O  O421  1  0.13381551  0.62964356  0.38425977  1
  O  O422  1  0.14676745  0.61330300  0.89085328  1
  O  O423  1  0.63095103  0.13136899  0.38243836  1
  O  O424  1  0.63868050  0.10957575  0.89503834  1
  O  O425  1  0.63334044  0.62106610  0.38680237  1
  O  O426  1  0.62741941  0.63331735  0.87454356  1
