# generated using pymatgen
data_V85Zn86O256
_symmetry_space_group_name_H-M   'P 1'
_cell_length_a   16.92902755
_cell_length_b   16.93441091
_cell_length_c   16.91892072
_cell_angle_alpha   89.99195505
_cell_angle_beta   89.98728184
_cell_angle_gamma   90.06169769
_symmetry_Int_Tables_number   1
_chemical_formula_structural   V85Zn86O256
_chemical_formula_sum   'V85 Zn86 O256'
_cell_volume   4850.36580768
_cell_formula_units_Z   1
loop_
 _symmetry_equiv_pos_site_id
 _symmetry_equiv_pos_as_xyz
  1  'x, y, z'
loop_
 _atom_site_type_symbol
 _atom_site_label
 _atom_site_symmetry_multiplicity
 _atom_site_fract_x
 _atom_site_fract_y
 _atom_site_fract_z
 _atom_site_occupancy
  V  V0  1  0.74830893  0.25235677  0.51230030  1
  V  V1  1  -0.00279594  0.25042519  0.74928202  1
  V  V2  1  0.12949908  0.75132854  0.87463369  1
  V  V3  1  0.50044481  0.62632163  0.12707359  1
  V  V4  1  0.62725552  0.50164442  0.62456025  1
  V  V5  1  0.51154081  0.12262613  0.62743477  1
  V  V6  1  0.49422560  0.87764629  0.36948222  1
  V  V7  1  0.25409621  0.62799896  0.86985277  1
  V  V8  1  0.00489854  0.75490671  0.74993302  1
  V  V9  1  0.87538388  0.75225879  0.62427894  1
  V  V10  1  0.38488894  0.12662022  0.24836907  1
  V  V11  1  0.12967924  0.00052257  0.63274449  1
  V  V12  1  0.25610549  0.37624823  0.61659159  1
  V  V13  1  0.24834451  0.00309287  0.24850851  1
  V  V14  1  0.24921889  0.87633338  0.12553204  1
  V  V15  1  0.37366239  0.12413603  0.74828116  1
  V  V16  1  0.74733557  -0.01044133  0.24835419  1
  V  V17  1  0.12881359  0.50438420  0.61119978  1
  V  V18  1  0.12620760  0.37087578  0.24327458  1
  V  V19  1  0.12249338  0.74271104  0.37873410  1
  V  V20  1  0.50025119  0.25609895  0.75123847  1
  V  V21  1  0.00535391  0.12797340  0.62042471  1
  V  V22  1  0.75165926  0.62821645  0.87100056  1
  V  V23  1  0.74808392  0.49543010  0.24996017  1
  V  V24  1  0.25279190  0.75035760  -0.00104753  1
  V  V25  1  0.25081349  0.49442990  0.24504671  1
  V  V26  1  0.25115294  0.12568056  0.87228405  1
  V  V27  1  0.00700535  0.62776521  0.61587374  1
  V  V28  1  0.37947941  0.87762315  -0.00022446  1
  V  V29  1  0.37525294  0.49801189  0.87296814  1
  V  V30  1  0.38452943  0.74039936  0.62215652  1
  V  V31  1  0.61281405  0.36948398  0.25512893  1
  V  V32  1  0.87418823  0.00432938  0.37780545  1
  V  V33  1  0.62579234  0.49974653  0.12705156  1
  V  V34  1  0.88053324  0.87651905  0.01235118  1
  V  V35  1  0.73154581  0.87689754  0.62738519  1
  V  V36  1  0.87466642  0.87998727  0.50368247  1
  V  V37  1  0.87078087  0.37731134  0.51061314  1
  V  V38  1  0.37672581  0.25210298  0.61332325  1
  V  V39  1  0.88371672  -0.00738736  0.87024264  1
  V  V40  1  0.60856660  0.62657888  0.50129038  1
  V  V41  1  0.11140163  0.00254916  0.12061159  1
  V  V42  1  0.62462697  0.75641486  0.36938425  1
  V  V43  1  0.62577082  0.11828669  0.50324618  1
  V  V44  1  0.38842554  0.24655311  0.12815605  1
  V  V45  1  0.87545839  0.50059056  0.87597813  1
  V  V46  1  0.01044157  0.00432694  0.49863528  1
  V  V47  1  -0.00276073  0.63117156  0.12585543  1
  V  V48  1  0.12800690  0.37931055  0.74716045  1
  V  V49  1  -0.00364935  0.49872772  0.00217819  1
  V  V50  1  0.87577463  0.13218064  0.23467271  1
  V  V51  1  0.37120694  0.37527985  0.00741163  1
  V  V52  1  0.62550848  -0.01539174  0.12905392  1
  V  V53  1  0.37664986  0.75059997  0.12588892  1
  V  V54  1  0.37381275  0.00207058  0.87383840  1
  V  V55  1  0.50157394  0.01034740  0.00600703  1
  V  V56  1  0.87282287  0.49832544  0.37574317  1
  V  V57  1  0.12576120  0.62454607  0.00089558  1
  V  V58  1  0.25065238  0.74670933  0.49955072  1
  V  V59  1  0.23646794  0.24657387  0.49954492  1
  V  V60  1  -0.00264581  0.36922413  0.37152458  1
  V  V61  1  0.25126175  0.25101512  0.00999000  1
  V  V62  1  0.74734404  0.74746135  0.50395313  1
  V  V63  1  0.63848476  0.37579962  0.74793640  1
  V  V64  1  0.12192453  0.87318834  0.25193975  1
  V  V65  1  0.23995437  0.12237206  0.37857793  1
  V  V66  1  0.87736844  0.62835089  0.74896669  1
  V  V67  1  0.87262088  0.62990316  0.24754062  1
  V  V68  1  0.26249795  0.88096579  0.62252145  1
  V  V69  1  0.49593726  0.48083530  0.50019862  1
  V  V70  1  0.37538281  0.62593257  0.25613922  1
  V  V71  1  0.00038398  0.37736496  0.87664775  1
  V  V72  1  0.37918853  0.48124544  0.37584773  1
  V  V73  1  0.75049037  0.12854976  0.37448480  1
  V  V74  1  0.73212899  -0.00433007  0.74962239  1
  V  V75  1  0.62817099  0.62801171  0.00015680  1
  V  V76  1  0.75419270  0.75713856  0.01332828  1
  V  V77  1  0.63544799  0.13273033  0.00999144  1
  V  V78  1  0.60899327  0.25067369  0.37520365  1
  V  V79  1  0.13063210  0.25142323  0.87362180  1
  V  V80  1  0.75006135  0.36255664  0.11594875  1
  V  V81  1  0.11452730  0.12121967  0.00130087  1
  V  V82  1  0.49279260  -0.00345344  0.50275351  1
  V  V83  1  0.49966297  0.49984733  0.00242746  1
  V  V84  1  0.62507546  0.75722667  0.86170545  1
  Zn  Zn85  1  -0.00032076  0.87432768  0.37705640  1
  Zn  Zn86  1  0.11704197  0.24417697  0.37095441  1
  Zn  Zn87  1  0.74610248  0.62370097  0.37700934  1
  Zn  Zn88  1  0.75480940  0.49768129  0.74269550  1
  Zn  Zn89  1  0.63046361  0.25221107  0.88386505  1
  Zn  Zn90  1  0.25454318  0.50118530  0.74428416  1
  Zn  Zn91  1  0.00173672  0.50295175  0.49560404  1
  Zn  Zn92  1  0.00665740  0.87587303  0.88067504  1
  Zn  Zn93  1  0.36965212  -0.00310330  0.37749888  1
  Zn  Zn94  1  0.12858961  0.49887500  0.12465129  1
  Zn  Zn95  1  -0.00700676  0.75326930  0.24986380  1
  Zn  Zn96  1  0.87310179  0.25296620  0.63080209  1
  Zn  Zn97  1  0.50644780  0.75709029  0.24552381  1
  Zn  Zn98  1  0.50294536  0.37380405  0.87648622  1
  Zn  Zn99  1  0.13950616  0.87784447  0.75330291  1
  Zn  Zn100  1  0.75300571  0.12358285  0.87965394  1
  Zn  Zn101  1  0.89877202  0.29971538  0.05263040  1
  Zn  Zn102  1  0.39084504  0.62225697  0.74471128  1
  Zn  Zn103  1  0.24504723  0.61798624  0.37900456  1
  Zn  Zn104  1  0.87692582  0.11742001  0.74859734  1
  Zn  Zn105  1  -0.00433959  0.24785813  0.22381417  1
  Zn  Zn106  1  0.51436004  0.88107821  0.86503809  1
  Zn  Zn107  1  0.18543014  0.18626259  0.18650060  1
  Zn  Zn108  1  0.18619043  0.18829427  0.68658520  1
  Zn  Zn109  1  0.18836574  0.68509661  0.18958132  1
  Zn  Zn110  1  0.19238693  0.68953341  0.68662358  1
  Zn  Zn111  1  0.68362344  0.18430824  0.18972592  1
  Zn  Zn112  1  0.70438077  0.20074690  0.71608629  1
  Zn  Zn113  1  0.68936004  0.68640491  0.18951857  1
  Zn  Zn114  1  0.56339219  0.68887003  0.68632322  1
  Zn  Zn115  1  0.30919671  0.30698082  0.31144842  1
  Zn  Zn116  1  0.31486474  0.31373146  0.81087284  1
  Zn  Zn117  1  0.31253232  0.81247778  0.31423081  1
  Zn  Zn118  1  0.35016340  0.83244956  0.78942537  1
  Zn  Zn119  1  0.80603464  0.31087884  0.31376178  1
  Zn  Zn120  1  0.82014781  0.29976173  0.85300226  1
  Zn  Zn121  1  0.81250652  0.81313825  0.31907957  1
  Zn  Zn122  1  0.80956224  0.81558153  0.81254434  1
  Zn  Zn123  1  0.18944274  0.43155917  0.43074234  1
  Zn  Zn124  1  0.18917933  0.43857728  0.93867782  1
  Zn  Zn125  1  0.18852572  0.93210743  0.43941988  1
  Zn  Zn126  1  0.19117071  0.93892122  0.93752154  1
  Zn  Zn127  1  0.68508506  0.43457791  0.43848203  1
  Zn  Zn128  1  0.68694000  0.43876778  0.93548225  1
  Zn  Zn129  1  0.68478684  0.93836598  0.43741199  1
  Zn  Zn130  1  0.69221353  0.93863115  0.93944713  1
  Zn  Zn131  1  0.30854894  0.06538818  0.06429340  1
  Zn  Zn132  1  0.31347350  0.06628742  0.56190907  1
  Zn  Zn133  1  0.31281962  0.56356266  0.06411386  1
  Zn  Zn134  1  0.31511718  0.56340676  0.55462384  1
  Zn  Zn135  1  0.81005066  0.05273620  0.06198733  1
  Zn  Zn136  1  0.81320238  0.06300763  0.57070150  1
  Zn  Zn137  1  0.81256986  0.56262796  0.06294370  1
  Zn  Zn138  1  0.80971685  0.56638242  0.56271949  1
  Zn  Zn139  1  0.43455315  0.43602513  0.18700725  1
  Zn  Zn140  1  0.44158678  0.43959209  0.68472675  1
  Zn  Zn141  1  0.43947546  0.94185662  0.18851310  1
  Zn  Zn142  1  0.44425975  0.93863353  0.68554604  1
  Zn  Zn143  1  0.93588064  0.43766355  0.18653496  1
  Zn  Zn144  1  0.94136725  0.44199438  0.68882675  1
  Zn  Zn145  1  0.93499049  0.94174241  0.19219155  1
  Zn  Zn146  1  0.94065060  0.93684603  0.68635583  1
  Zn  Zn147  1  0.05739535  0.06312989  0.30757261  1
  Zn  Zn148  1  0.06306123  0.06288813  0.81183092  1
  Zn  Zn149  1  0.06077798  0.55940787  0.31037030  1
  Zn  Zn150  1  0.06503497  0.56549297  0.80851199  1
  Zn  Zn151  1  0.56523151  0.05951732  0.31380835  1
  Zn  Zn152  1  0.56071477  0.06834896  0.82007240  1
  Zn  Zn153  1  0.56064512  0.56267951  0.31735942  1
  Zn  Zn154  1  0.56534390  0.55967166  0.81594426  1
  Zn  Zn155  1  0.43140440  0.18093571  0.43678978  1
  Zn  Zn156  1  0.44205979  0.18916046  0.93885263  1
  Zn  Zn157  1  0.43352931  0.69163690  0.43550893  1
  Zn  Zn158  1  0.44224855  0.68715249  0.93272489  1
  Zn  Zn159  1  0.93436315  0.18892153  0.44040847  1
  Zn  Zn160  1  0.93778836  0.18167929  0.93002168  1
  Zn  Zn161  1  0.93590746  0.68816972  0.43500778  1
  Zn  Zn162  1  0.93768304  0.69177684  0.93941895  1
  Zn  Zn163  1  0.07018600  0.31324104  0.06133423  1
  Zn  Zn164  1  0.05963953  0.31836152  0.56096576  1
  Zn  Zn165  1  0.06193109  0.81204288  0.06456715  1
  Zn  Zn166  1  0.06814942  0.81763230  0.56180065  1
  Zn  Zn167  1  0.56337080  0.31474410  0.06594692  1
  Zn  Zn168  1  0.56859962  0.31013460  0.56807110  1
  Zn  Zn169  1  0.56186535  0.81314810  0.05458689  1
  Zn  Zn170  1  0.55894000  0.81720426  0.55194220  1
  O  O171  1  0.13053595  0.11514395  0.11379613  1
  O  O172  1  0.11609330  0.11781715  0.62750099  1
  O  O173  1  0.11878338  0.62142683  0.11942246  1
  O  O174  1  0.11958566  0.61608007  0.63039926  1
  O  O175  1  0.62693949  0.11610756  0.11385902  1
  O  O176  1  0.61417174  0.13128271  0.61980329  1
  O  O177  1  0.62044588  0.61963949  0.12099045  1
  O  O178  1  0.62013985  0.61904092  0.61177044  1
  O  O179  1  0.37530327  0.38207024  0.36844083  1
  O  O180  1  0.37618517  0.38254837  0.88488862  1
  O  O181  1  0.38834085  0.87723814  0.37306516  1
  O  O182  1  0.36018068  0.88748401  0.89279007  1
  O  O183  1  0.87727000  0.38327882  0.37906246  1
  O  O184  1  0.88457875  0.39501403  0.86289150  1
  O  O185  1  0.87546339  0.88334471  0.38907409  1
  O  O186  1  0.87830010  0.88124951  0.88096204  1
  O  O187  1  0.24871535  0.00379518  0.36869570  1
  O  O188  1  0.26367450  0.01188456  0.88037322  1
  O  O189  1  0.26041438  0.50000308  0.36833852  1
  O  O190  1  0.26208465  0.50671286  0.87578864  1
  O  O191  1  0.75122533  0.01150010  0.37211108  1
  O  O192  1  0.75802130  -0.00356887  0.86127727  1
  O  O193  1  0.75512983  0.49915818  0.36756668  1
  O  O194  1  0.76014103  0.50924902  0.87678961  1
  O  O195  1  0.25175857  0.50267140  0.14030274  1
  O  O196  1  0.24732341  0.49352176  0.62192404  1
  O  O197  1  0.24353839  0.99485838  0.13326885  1
  O  O198  1  0.24602219  0.98923614  0.61508997  1
  O  O199  1  0.74259900  0.49796785  0.13347455  1
  O  O200  1  0.73348304  0.50633444  0.62416044  1
  O  O201  1  0.73667583  0.99871933  0.13412009  1
  O  O202  1  0.75240583  0.98809198  0.63671345  1
  O  O203  1  0.00365847  0.37206132  0.25516132  1
  O  O204  1  0.00965638  0.37123615  0.75363233  1
  O  O205  1  0.00724684  0.87322680  0.25297053  1
  O  O206  1  0.00527668  0.86168597  0.74859563  1
  O  O207  1  0.51378135  0.37927230  0.24636868  1
  O  O208  1  0.50338818  0.36892484  0.75307753  1
  O  O209  1  0.49976458  0.87638396  0.26381836  1
  O  O210  1  0.45874081  0.86959663  0.76869639  1
  O  O211  1  0.48299315  0.11985734  0.25767108  1
  O  O212  1  0.49510599  0.13233435  0.74454035  1
  O  O213  1  0.49260099  0.62722752  0.24479694  1
  O  O214  1  0.50221893  0.62875790  0.75719302  1
  O  O215  1  0.98082548  0.12833100  0.25147335  1
  O  O216  1  1.00197382  0.13510302  0.74328668  1
  O  O217  1  0.99051721  0.62345134  0.24258672  1
  O  O218  1  0.99780636  0.63623902  0.74002088  1
  O  O219  1  0.37162207  0.25527226  0.00633626  1
  O  O220  1  0.36537536  0.24383795  0.51055555  1
  O  O221  1  0.37354176  0.75901223  0.00395744  1
  O  O222  1  0.36251481  0.74842164  0.50792581  1
  O  O223  1  0.86433942  0.26102206  -0.04445657  1
  O  O224  1  0.86597937  0.25977148  0.50383247  1
  O  O225  1  0.86372656  0.76139447  -0.00457210  1
  O  O226  1  0.86705273  0.75809619  0.50138232  1
  O  O227  1  0.13355580  0.25304027  0.49871654  1
  O  O228  1  0.13577007  0.24400457  0.99311274  1
  O  O229  1  0.13476547  0.75406295  0.49057657  1
  O  O230  1  0.13168865  0.74471651  0.99478653  1
  O  O231  1  0.63102460  0.24042863  0.49665862  1
  O  O232  1  0.62056247  0.23653660  1.00276578  1
  O  O233  1  0.62920384  0.74303989  0.49415759  1
  O  O234  1  0.63958392  0.74562367  0.99773413  1
  O  O235  1  0.48780202  0.25039112  0.12427237  1
  O  O236  1  0.49146150  0.24314468  0.62821326  1
  O  O237  1  0.49514429  0.74629405  0.12520025  1
  O  O238  1  0.48867341  0.75322420  0.61836577  1
  O  O239  1  0.98628355  0.26006108  0.11117629  1
  O  O240  1  1.00218020  0.24482603  0.63086285  1
  O  O241  1  1.00369996  0.73564888  0.12967998  1
  O  O242  1  0.99873557  0.74593797  0.62896933  1
  O  O243  1  -0.00289235  0.26193606  0.37604336  1
  O  O244  1  0.01343323  0.25522209  0.86512731  1
  O  O245  1  0.00769011  0.75309752  0.37284955  1
  O  O246  1  0.01059854  0.74881159  0.86660758  1
  O  O247  1  0.50991777  0.24425534  0.38301569  1
  O  O248  1  0.50490561  0.25086397  0.86414396  1
  O  O249  1  0.50498204  0.76246152  0.37476860  1
  O  O250  1  0.52274535  0.75261451  0.88655887  1
  O  O251  1  0.25101031  0.13284680  0.49085234  1
  O  O252  1  0.24775445  0.13385340  0.98867036  1
  O  O253  1  0.24876323  0.63976500  0.49699903  1
  O  O254  1  0.24714736  0.62907943  0.99188911  1
  O  O255  1  0.74316544  0.12766185  0.49735065  1
  O  O256  1  0.73876574  0.12099770  0.99987088  1
  O  O257  1  0.74157601  0.63530498  0.49834546  1
  O  O258  1  0.75152222  0.63529324  0.99131371  1
  O  O259  1  0.25866349  0.36484610  -0.00420372  1
  O  O260  1  0.24771382  0.36598843  0.50969097  1
  O  O261  1  0.25593067  0.86980954  0.00920826  1
  O  O262  1  0.24772402  0.86275577  0.51035814  1
  O  O263  1  0.74023358  0.37779240  0.01656201  1
  O  O264  1  0.75753585  0.36450782  0.49674871  1
  O  O265  1  0.75981340  0.86307364  -0.00058599  1
  O  O266  1  0.75529426  0.87342488  0.50731463  1
  O  O267  1  0.13449924  0.49230662  0.25116919  1
  O  O268  1  0.12832954  0.48999741  0.74238480  1
  O  O269  1  0.12927339  0.99105673  0.24444222  1
  O  O270  1  0.12514986  0.99861277  0.73726790  1
  O  O271  1  0.63150416  0.49466121  0.24926553  1
  O  O272  1  0.62631410  0.49282520  0.74200121  1
  O  O273  1  0.63156994  1.00525909  0.23751381  1
  O  O274  1  0.63311263  1.00033995  0.75700537  1
  O  O275  1  0.36545101  0.00946923  0.25018375  1
  O  O276  1  0.37716965  0.01725455  0.75860207  1
  O  O277  1  0.37109517  0.50499008  0.25676235  1
  O  O278  1  0.37432413  0.50146037  0.75879972  1
  O  O279  1  0.86728304  0.01050990  0.25780514  1
  O  O280  1  0.87405348  -0.00675741  0.76092823  1
  O  O281  1  0.86676448  0.50530994  0.25754025  1
  O  O282  1  0.87608338  0.51161091  0.75453878  1
  O  O283  1  0.11376924  0.37223456  0.36422875  1
  O  O284  1  0.12260008  0.37294557  0.86597384  1
  O  O285  1  0.12369454  0.86646297  0.36668981  1
  O  O286  1  0.12759049  0.86806595  0.87254088  1
  O  O287  1  0.62954724  0.36264502  0.36759992  1
  O  O288  1  0.62261216  0.37282787  0.86608234  1
  O  O289  1  0.61273973  0.86680845  0.38197174  1
  O  O290  1  0.62985518  0.86253046  0.87743573  1
  O  O291  1  0.37153241  0.13010815  0.13884837  1
  O  O292  1  0.38058790  0.13298193  0.63326068  1
  O  O293  1  0.38025816  0.62957232  0.13473019  1
  O  O294  1  0.37532917  0.63613750  0.62081420  1
  O  O295  1  0.86746220  0.12069343  0.13600035  1
  O  O296  1  0.89091524  0.12817590  0.62901851  1
  O  O297  1  0.88303303  0.61880707  0.13592495  1
  O  O298  1  0.88235705  0.63261708  0.62958506  1
  O  O299  1  0.25808526  0.24368688  0.11274684  1
  O  O300  1  0.25504298  0.25526355  0.61804631  1
  O  O301  1  0.25698483  0.75459292  0.11980604  1
  O  O302  1  0.25390125  0.75677692  0.61353425  1
  O  O303  1  0.74549697  0.26337124  0.12838592  1
  O  O304  1  0.75250516  0.24269889  0.61648437  1
  O  O305  1  0.75087331  0.74480489  0.11197325  1
  O  O306  1  0.75854295  0.76093270  0.61262975  1
  O  O307  1  0.24480733  0.24156244  0.38347755  1
  O  O308  1  0.24842753  0.24558482  0.88181571  1
  O  O309  1  0.24467307  0.75093033  0.38561060  1
  O  O310  1  0.24742624  0.74169435  0.88129242  1
  O  O311  1  0.74540162  0.23890112  0.38716228  1
  O  O312  1  0.73371051  0.23032755  0.83375741  1
  O  O313  1  0.74175006  0.75211252  0.38830909  1
  O  O314  1  0.74284992  0.74514778  0.88107462  1
  O  O315  1  0.01563287  0.12509290  -0.01037744  1
  O  O316  1  -0.00231587  0.11728265  0.50749535  1
  O  O317  1  0.00481682  0.62120682  0.00660647  1
  O  O318  1  -0.00437429  0.62413746  0.51213178  1
  O  O319  1  0.50716441  0.11425423  0.00056154  1
  O  O320  1  0.50617214  0.12050246  0.50755444  1
  O  O321  1  0.50489100  0.61930416  0.00761107  1
  O  O322  1  0.50707117  0.62195922  0.49356150  1
  O  O323  1  0.50404176  0.38257187  0.50076963  1
  O  O324  1  0.49267069  0.38242361  0.99977984  1
  O  O325  1  0.49849697  0.88703508  0.48796076  1
  O  O326  1  0.49248046  0.88665378  0.99385653  1
  O  O327  1  0.98939256  0.37941989  0.49121248  1
  O  O328  1  1.00489446  0.38672474  0.99091408  1
  O  O329  1  0.99187839  0.88467338  0.50134298  1
  O  O330  1  0.98512924  0.86567135  0.99803024  1
  O  O331  1  0.49314483  0.50013080  0.38878130  1
  O  O332  1  0.48873302  0.49961919  0.88493624  1
  O  O333  1  0.49935669  0.99112694  0.38042832  1
  O  O334  1  0.48762517  1.00099338  0.88402706  1
  O  O335  1  0.99082376  0.49011286  0.37492874  1
  O  O336  1  0.99594539  0.50070356  0.88055057  1
  O  O337  1  0.99437880  0.99984248  0.38374201  1
  O  O338  1  0.98921343  0.99425766  0.87007378  1
  O  O339  1  0.01236375  -0.00189047  0.12807576  1
  O  O340  1  0.00948445  0.00700089  0.61989390  1
  O  O341  1  0.00135264  0.50822001  0.11655762  1
  O  O342  1  0.01115413  0.50970288  0.62270334  1
  O  O343  1  0.51314051  -0.00249872  0.11970049  1
  O  O344  1  0.49638635  0.00966635  0.61687028  1
  O  O345  1  0.50534193  0.50506810  0.12085783  1
  O  O346  1  0.50675860  0.49850916  0.60814978  1
  O  O347  1  0.23946444  0.38135109  0.25633214  1
  O  O348  1  0.24391617  0.37514788  0.73831849  1
  O  O349  1  0.24476836  0.88509472  0.24686494  1
  O  O350  1  0.25560463  0.87166664  0.72867162  1
  O  O351  1  0.74314801  0.38362917  0.24408507  1
  O  O352  1  0.73943170  0.37778420  0.75391491  1
  O  O353  1  0.75526890  0.89049195  0.25919984  1
  O  O354  1  0.75152091  0.88501991  0.73987038  1
  O  O355  1  0.25131785  0.11397629  0.25413666  1
  O  O356  1  0.25878419  0.13596597  0.76228108  1
  O  O357  1  0.25901672  0.61699310  0.25372540  1
  O  O358  1  0.25027937  0.62098760  0.76250943  1
  O  O359  1  0.75694532  0.11937215  0.25879066  1
  O  O360  1  0.75689688  0.10157171  0.74127163  1
  O  O361  1  0.75509333  0.61310886  0.25322296  1
  O  O362  1  0.76019262  0.62322316  0.76554034  1
  O  O363  1  0.36057531  0.12369806  0.36250519  1
  O  O364  1  0.37095490  0.12254588  0.87024876  1
  O  O365  1  0.37457242  0.62045526  0.36392917  1
  O  O366  1  0.36860272  0.61770429  0.87628996  1
  O  O367  1  0.86505531  0.12039642  0.37546618  1
  O  O368  1  0.87277426  0.10489918  0.87044706  1
  O  O369  1  0.87293916  0.61191728  0.37054743  1
  O  O370  1  0.87363736  0.61952572  0.87058401  1
  O  O371  1  0.12424320  0.38017306  0.13819837  1
  O  O372  1  0.13198967  0.38355183  0.62980031  1
  O  O373  1  0.12987920  0.87990139  0.13198502  1
  O  O374  1  0.13729373  0.88376261  0.62815662  1
  O  O375  1  0.63251956  0.38101941  0.13418094  1
  O  O376  1  0.62166611  0.38695890  0.63439194  1
  O  O377  1  0.62275492  0.88548323  0.12281243  1
  O  O378  1  0.63245029  0.87120817  0.62129647  1
  O  O379  1  0.11772142  0.25552598  0.24850884  1
  O  O380  1  0.11991063  0.26258574  0.75126674  1
  O  O381  1  0.12771879  0.76214376  0.25507036  1
  O  O382  1  0.12138179  0.75072838  0.75699940  1
  O  O383  1  0.62848103  0.25608944  0.26257471  1
  O  O384  1  0.60928264  0.26165735  0.73698592  1
  O  O385  1  0.62613587  0.74511644  0.26491602  1
  O  O386  1  0.62969146  0.74962867  0.76289876  1
  O  O387  1  0.36758754  0.23550150  0.24234568  1
  O  O388  1  0.38418059  0.24383468  0.74307612  1
  O  O389  1  0.37610786  0.74246200  0.24413270  1
  O  O390  1  0.36266761  0.73793070  0.72506493  1
  O  O391  1  0.87038476  0.23520533  0.25283866  1
  O  O392  1  0.89072076  0.25240523  0.75246366  1
  O  O393  1  0.87246807  0.73428615  0.26047542  1
  O  O394  1  0.88332899  0.74701421  0.74561358  1
  O  O395  1  0.38758031  0.49846254  0.49234051  1
  O  O396  1  0.37750736  0.49232793  0.99693985  1
  O  O397  1  0.38844889  1.01109378  0.49410572  1
  O  O398  1  0.38183924  0.99795769  0.99879357  1
  O  O399  1  0.87235239  0.49468463  0.49238026  1
  O  O400  1  0.88760840  0.50721133  0.99114637  1
  O  O401  1  0.88228113  0.99531147  0.49929781  1
  O  O402  1  0.86703100  0.98415048  0.98718769  1
  O  O403  1  0.13197437  0.00867303  0.00841730  1
  O  O404  1  0.11418644  -0.00605370  0.50821995  1
  O  O405  1  0.11635294  0.50694610  -0.00007145  1
  O  O406  1  0.12514475  0.49506991  0.50810492  1
  O  O407  1  0.62097806  0.00347815  0.01058395  1
  O  O408  1  0.61567989  0.01350433  0.49639143  1
  O  O409  1  0.62003367  0.50838493  0.00471124  1
  O  O410  1  0.61502069  0.50530835  0.50235361  1
  O  O411  1  0.37548961  0.36681275  0.11472452  1
  O  O412  1  0.36634960  0.36528593  0.63036733  1
  O  O413  1  0.37195554  0.87337871  0.11621438  1
  O  O414  1  0.36588608  0.86658914  0.61929452  1
  O  O415  1  0.85616157  0.38118428  0.12476826  1
  O  O416  1  0.88075595  0.37692485  0.61402320  1
  O  O417  1  0.87736167  0.88170392  0.11177025  1
  O  O418  1  0.87369852  0.87056440  0.61520338  1
  O  O419  1  0.13499041  0.12499118  0.36722656  1
  O  O420  1  0.13502406  0.12918045  0.87750669  1
  O  O421  1  0.12573391  0.63859398  0.36562893  1
  O  O422  1  0.13384349  0.62974579  0.88030023  1
  O  O423  1  0.63120217  0.13055666  0.38258727  1
  O  O424  1  0.62657176  0.12232322  0.89572821  1
  O  O425  1  0.62584087  0.63370631  0.38413433  1
  O  O426  1  0.63618953  0.63160835  0.88244264  1
