# generated using pymatgen
data_V85Zn86O256
_symmetry_space_group_name_H-M   'P 1'
_cell_length_a   16.95018340
_cell_length_b   16.95464474
_cell_length_c   16.97304176
_cell_angle_alpha   90.03832325
_cell_angle_beta   90.05067013
_cell_angle_gamma   90.06361084
_symmetry_Int_Tables_number   1
_chemical_formula_structural   V85Zn86O256
_chemical_formula_sum   'V85 Zn86 O256'
_cell_volume   4877.78035939
_cell_formula_units_Z   1
loop_
 _symmetry_equiv_pos_site_id
 _symmetry_equiv_pos_as_xyz
  1  'x, y, z'
loop_
 _atom_site_type_symbol
 _atom_site_label
 _atom_site_symmetry_multiplicity
 _atom_site_fract_x
 _atom_site_fract_y
 _atom_site_fract_z
 _atom_site_occupancy
  V  V0  1  0.37790256  -0.00133369  0.85685284  1
  V  V1  1  0.27428897  0.12178406  0.37342652  1
  V  V2  1  0.00123217  0.75945595  0.75446456  1
  V  V3  1  0.75055239  0.87564051  0.12524897  1
  V  V4  1  0.74696199  0.24830003  0.50011282  1
  V  V5  1  0.25145604  0.00600199  0.24950263  1
  V  V6  1  0.74913037  0.87949610  0.63337650  1
  V  V7  1  0.60282970  0.50248385  0.62324627  1
  V  V8  1  0.49222227  0.11554895  0.12518878  1
  V  V9  1  0.12467343  0.24197732  0.37184551  1
  V  V10  1  0.49128135  0.24681212  0.25086295  1
  V  V11  1  0.25058660  0.50254916  0.24947624  1
  V  V12  1  0.04770330  0.93491720  0.93258817  1
  V  V13  1  0.74194068  0.74452076  0.50262033  1
  V  V14  1  0.87374569  0.37681907  0.50060285  1
  V  V15  1  0.63075182  0.87505447  0.25557006  1
  V  V16  1  0.87095452  0.25322069  0.12442052  1
  V  V17  1  0.86950441  0.11423381  0.74839623  1
  V  V18  1  0.37889282  0.38344175  0.50156646  1
  V  V19  1  0.75216347  0.62716873  0.87726409  1
  V  V20  1  0.74671251  0.25023003  0.00115897  1
  V  V21  1  0.87864134  0.62320943  0.75011459  1
  V  V22  1  0.25066652  0.62879311  0.38004758  1
  V  V23  1  0.60069396  0.62386702  0.50204955  1
  V  V24  1  0.25037625  0.12145886  0.87112935  1
  V  V25  1  0.38033651  0.75595078  0.12347415  1
  V  V26  1  0.50335112  0.87939803  0.87662397  1
  V  V27  1  0.37996793  0.24968358  0.62786170  1
  V  V28  1  0.50552389  0.12613525  0.63648831  1
  V  V29  1  0.74850088  0.11980408  0.87315872  1
  V  V30  1  0.11936555  0.75700649  0.88036692  1
  V  V31  1  0.86957824  0.74770678  0.11887319  1
  V  V32  1  0.50987130  0.75390539  0.25676713  1
  V  V33  1  -0.00283266  0.24822135  0.75078433  1
  V  V34  1  0.37617041  0.62805742  0.24809091  1
  V  V35  1  0.24923780  0.25021894  0.50039087  1
  V  V36  1  0.50096626  0.38398292  0.37535196  1
  V  V37  1  0.62491469  0.74780196  0.87491544  1
  V  V38  1  0.12638607  0.75487501  0.36750993  1
  V  V39  1  0.23518682  0.88372634  0.13329889  1
  V  V40  1  0.12447584  0.62555750  0.00464699  1
  V  V41  1  0.62885082  -0.00061181  0.11719382  1
  V  V42  1  0.13679442  0.00000002  0.62361432  1
  V  V43  1  0.86943680  0.11863095  0.24499314  1
  V  V44  1  0.62913296  0.62624374  0.00150294  1
  V  V45  1  0.12546428  0.24815342  0.88465056  1
  V  V46  1  0.62894570  0.00676878  0.64015841  1
  V  V47  1  0.87075915  -0.00054806  0.37156044  1
  V  V48  1  -0.00050086  -0.00148609  0.49744240  1
  V  V49  1  0.00056937  0.50139944  -0.00262963  1
  V  V50  1  0.00000272  0.37571822  0.37465151  1
  V  V51  1  0.61184516  0.25272263  0.87331770  1
  V  V52  1  0.87288464  0.62692785  0.25182777  1
  V  V53  1  0.00173213  0.87514025  0.36768197  1
  V  V54  1  0.13429987  0.87839653  0.74449044  1
  V  V55  1  0.25115736  0.76991495  0.50204307  1
  V  V56  1  0.86628605  0.87571800  -0.00896401  1
  V  V57  1  0.01274951  0.62563166  0.62633410  1
  V  V58  1  0.38375762  0.89086928  0.00516104  1
  V  V59  1  0.24202954  0.38466185  0.62176926  1
  V  V60  1  -0.00230327  0.24841361  0.24699625  1
  V  V61  1  0.49103874  0.48500342  -0.00848935  1
  V  V62  1  0.74874669  0.49799664  0.74626397  1
  V  V63  1  0.74377773  0.62531572  0.37975342  1
  V  V64  1  0.37894886  0.50668783  0.37747225  1
  V  V65  1  -0.00106262  0.37365974  0.87582511  1
  V  V66  1  0.87279071  0.24988378  0.62569543  1
  V  V67  1  0.12437435  0.37555302  0.25009341  1
  V  V68  1  0.75182815  0.11966699  0.37354287  1
  V  V69  1  0.87509071  0.74843940  0.62424387  1
  V  V70  1  0.86821090  0.37588307  0.00147690  1
  V  V71  1  0.57507950  0.07028133  0.45394051  1
  V  V72  1  0.61080624  0.37327480  0.75300597  1
  V  V73  1  0.86866819  0.87385029  0.49683614  1
  V  V74  1  0.62639064  0.48908347  0.12325225  1
  V  V75  1  -0.00055118  0.12270264  0.62068065  1
  V  V76  1  0.12463895  0.49957935  0.12525875  1
  V  V77  1  0.74824626  0.49352727  0.24825936  1
  V  V78  1  0.25203478  0.75226598  0.00239768  1
  V  V79  1  0.11918742  0.37861666  0.74518934  1
  V  V80  1  0.00448657  0.11241502  0.11913720  1
  V  V81  1  0.62395984  0.25498314  0.37745501  1
  V  V82  1  0.49998486  0.62259550  0.12033097  1
  V  V83  1  0.25556993  0.36778606  0.12060445  1
  V  V84  1  0.00799387  0.49992905  0.50474303  1
  Zn  Zn85  1  0.49767469  0.74314467  0.74958265  1
  Zn  Zn86  1  0.24541818  0.50386812  0.75299340  1
  Zn  Zn87  1  0.25017108  0.61858055  0.87541226  1
  Zn  Zn88  1  0.87392416  0.49881099  0.87481703  1
  Zn  Zn89  1  0.12144725  0.11799728  0.00109016  1
  Zn  Zn90  1  0.62233959  0.12170334  -0.00043606  1
  Zn  Zn91  1  0.87479810  0.50054865  0.37483545  1
  Zn  Zn92  1  0.38937927  0.74691865  0.62544141  1
  Zn  Zn93  1  0.87316831  -0.00391825  0.87248807  1
  Zn  Zn94  1  0.42531097  0.91135655  0.46820287  1
  Zn  Zn95  1  0.00043991  0.75059689  0.24977400  1
  Zn  Zn96  1  0.12500452  0.62525215  0.49799849  1
  Zn  Zn97  1  0.74552479  0.37626504  0.62656080  1
  Zn  Zn98  1  0.38664784  0.61900081  0.75583419  1
  Zn  Zn99  1  0.37104200  0.24391658  0.12738313  1
  Zn  Zn100  1  0.12694134  0.12185797  0.49648337  1
  Zn  Zn101  1  0.30839650  0.30071693  -0.03780936  1
  Zn  Zn102  1  0.27632063  0.88390143  0.63377952  1
  Zn  Zn103  1  0.36818877  0.12379009  0.74450753  1
  Zn  Zn104  1  0.62744884  0.37269167  0.24747473  1
  Zn  Zn105  1  0.63048228  0.87723713  0.75583653  1
  Zn  Zn106  1  -0.00242183  0.62483538  0.12889210  1
  Zn  Zn107  1  0.18593211  0.18241822  0.19044190  1
  Zn  Zn108  1  0.18662060  0.18752795  0.68744985  1
  Zn  Zn109  1  0.18959110  0.69157839  0.18809301  1
  Zn  Zn110  1  0.22374701  0.67765599  0.67461588  1
  Zn  Zn111  1  0.68515651  0.18787717  0.18807044  1
  Zn  Zn112  1  0.68649425  0.19064400  0.69080081  1
  Zn  Zn113  1  0.69073847  0.68584406  0.18506513  1
  Zn  Zn114  1  0.67947834  0.68372575  0.68697476  1
  Zn  Zn115  1  0.31185634  0.31565443  0.31231991  1
  Zn  Zn116  1  0.30698570  0.31267170  0.80264796  1
  Zn  Zn117  1  0.32309041  0.82936820  0.31203644  1
  Zn  Zn118  1  0.31587192  0.80741699  0.81733526  1
  Zn  Zn119  1  0.81230125  0.31128025  0.31334293  1
  Zn  Zn120  1  0.80766484  0.31116963  0.81440038  1
  Zn  Zn121  1  0.80566586  0.80906628  0.31389568  1
  Zn  Zn122  1  0.81103188  0.80548263  0.81287186  1
  Zn  Zn123  1  0.18879407  0.43797283  0.43403991  1
  Zn  Zn124  1  0.34790645  0.47224985  0.88055372  1
  Zn  Zn125  1  0.18688271  0.94319530  0.43034317  1
  Zn  Zn126  1  0.21351874  0.94814072  0.94583908  1
  Zn  Zn127  1  0.68576877  0.44293873  0.44074596  1
  Zn  Zn128  1  0.68403536  0.43846689  0.93518004  1
  Zn  Zn129  1  0.64212430  0.90324580  0.46238359  1
  Zn  Zn130  1  0.68983383  0.93752708  0.93996977  1
  Zn  Zn131  1  0.31442919  0.07720019  0.05587481  1
  Zn  Zn132  1  0.32485567  0.05669149  0.55634729  1
  Zn  Zn133  1  0.31170173  0.55949939  0.05869798  1
  Zn  Zn134  1  0.31926670  0.56621013  0.56448626  1
  Zn  Zn135  1  0.81236986  0.05936872  0.05887071  1
  Zn  Zn136  1  0.80831075  0.06116448  0.55968440  1
  Zn  Zn137  1  0.81031737  0.56037718  0.06456648  1
  Zn  Zn138  1  0.81552030  0.56165161  0.56570224  1
  Zn  Zn139  1  0.43848124  0.43691674  0.18791204  1
  Zn  Zn140  1  0.42804631  0.43801579  0.69712117  1
  Zn  Zn141  1  0.43867696  0.93959693  0.19925888  1
  Zn  Zn142  1  0.44878135  0.93041852  0.68096877  1
  Zn  Zn143  1  0.93522228  0.43812046  0.18563208  1
  Zn  Zn144  1  0.93714805  0.43945089  0.68550306  1
  Zn  Zn145  1  0.93245347  0.93614037  0.18645899  1
  Zn  Zn146  1  0.93940114  0.93685125  0.68289365  1
  Zn  Zn147  1  0.06388931  0.05687028  0.30299918  1
  Zn  Zn148  1  0.06590869  0.06734643  0.80291945  1
  Zn  Zn149  1  0.06086614  0.56436045  0.31494914  1
  Zn  Zn150  1  0.09382900  0.58018677  0.79914261  1
  Zn  Zn151  1  0.57141303  0.05946203  0.28832722  1
  Zn  Zn152  1  0.56010966  0.06424841  0.81454275  1
  Zn  Zn153  1  0.56405804  0.56777559  0.31130012  1
  Zn  Zn154  1  0.56063575  0.55892526  0.81541679  1
  Zn  Zn155  1  0.43847419  0.19482740  0.44385341  1
  Zn  Zn156  1  0.43553253  0.17920811  0.94326169  1
  Zn  Zn157  1  0.42974927  0.72352644  0.42712071  1
  Zn  Zn158  1  0.43773173  0.68489793  0.93368510  1
  Zn  Zn159  1  0.93642549  0.18781032  0.43618969  1
  Zn  Zn160  1  0.93530370  0.18375941  0.93786704  1
  Zn  Zn161  1  0.93531095  0.68756532  0.43704657  1
  Zn  Zn162  1  0.93764094  0.68857921  0.93769341  1
  Zn  Zn163  1  0.06029758  0.31333470  0.06434231  1
  Zn  Zn164  1  0.06095893  0.30921750  0.56024543  1
  Zn  Zn165  1  0.05814358  0.80904435  0.07084224  1
  Zn  Zn166  1  0.06539886  0.81240428  0.55918717  1
  Zn  Zn167  1  0.55878892  0.30641285  0.06353859  1
  Zn  Zn168  1  0.56121146  0.31524280  0.56285770  1
  Zn  Zn169  1  0.56557303  0.81092541  0.05960401  1
  Zn  Zn170  1  0.55122820  0.81480261  0.57292880  1
  O  O171  1  0.10943081  0.12780391  0.12326538  1
  O  O172  1  0.11930186  0.11726894  0.62110824  1
  O  O173  1  0.12247169  0.62265122  0.11965539  1
  O  O174  1  0.11417523  0.63313308  0.61782834  1
  O  O175  1  0.62039456  0.11442634  0.12718590  1
  O  O176  1  0.61984027  0.12152406  0.62943192  1
  O  O177  1  0.61892766  0.61787512  0.11787464  1
  O  O178  1  0.62513675  0.60890251  0.61690173  1
  O  O179  1  0.38086494  0.38309412  0.38206568  1
  O  O180  1  0.36434920  0.35931881  0.88445573  1
  O  O181  1  0.39828492  0.83028654  0.39057729  1
  O  O182  1  0.38273039  0.88253772  0.88375090  1
  O  O183  1  0.88207776  0.37446758  0.38314458  1
  O  O184  1  0.88067741  0.37522864  0.88337814  1
  O  O185  1  0.87471119  0.87924152  0.37949922  1
  O  O186  1  0.86805311  0.87427670  0.88644758  1
  O  O187  1  0.24831387  0.01888918  0.36977175  1
  O  O188  1  0.26556167  0.00382859  0.86591872  1
  O  O189  1  0.25646252  0.50816541  0.36784168  1
  O  O190  1  0.23813081  0.50384521  0.87045052  1
  O  O191  1  0.75530920  0.01806311  0.38098567  1
  O  O192  1  0.75051635  0.01507423  0.87932961  1
  O  O193  1  0.75342952  0.50734677  0.36930100  1
  O  O194  1  0.74767179  0.50844455  0.86323711  1
  O  O195  1  0.24406127  0.49292125  0.13079428  1
  O  O196  1  0.24807556  0.48602749  0.62464164  1
  O  O197  1  0.25457970  0.98996718  0.13204462  1
  O  O198  1  0.24057830  0.99937798  0.61719034  1
  O  O199  1  0.73813104  0.50510348  0.13543641  1
  O  O200  1  0.74868575  0.49893585  0.63754905  1
  O  O201  1  0.74476238  0.98828921  0.12046320  1
  O  O202  1  0.74479415  0.99062930  0.62246451  1
  O  O203  1  0.00345687  0.36945347  0.25434323  1
  O  O204  1  -0.00274659  0.36442241  0.75300441  1
  O  O205  1  -0.01080599  0.87284963  0.26404537  1
  O  O206  1  0.00356361  0.86363792  0.74394913  1
  O  O207  1  0.50305000  0.36810491  0.25923590  1
  O  O208  1  0.51166336  0.37535650  0.74620724  1
  O  O209  1  0.51899503  0.86801574  0.24815109  1
  O  O210  1  0.50825542  0.87263659  0.76673153  1
  O  O211  1  0.50702334  0.13554899  0.23921655  1
  O  O212  1  0.49539077  0.12742939  0.73890300  1
  O  O213  1  0.49814273  0.62771427  0.23375355  1
  O  O214  1  0.50140504  0.62716672  0.75589102  1
  O  O215  1  0.99078819  0.12978363  0.24119245  1
  O  O216  1  0.99016411  0.13171014  0.74125425  1
  O  O217  1  0.98660134  0.62522134  0.25004116  1
  O  O218  1  1.00159364  0.63576909  0.74263329  1
  O  O219  1  0.35905220  0.21749674  0.01621479  1
  O  O220  1  0.36534943  0.26223858  0.50430034  1
  O  O221  1  0.36928196  0.75741055  0.01007175  1
  O  O222  1  0.34855087  0.73406183  0.51038314  1
  O  O223  1  0.86841324  0.25583283  0.00586188  1
  O  O224  1  0.87025641  0.26061925  0.50293363  1
  O  O225  1  0.88160780  0.76330387  0.00704379  1
  O  O226  1  0.86580037  0.75478784  0.50551137  1
  O  O227  1  0.13378882  0.24880590  0.48987406  1
  O  O228  1  0.11491095  0.24772595  0.98692861  1
  O  O229  1  0.13468365  0.74942307  0.48689207  1
  O  O230  1  0.13046775  0.74746718  1.00287537  1
  O  O231  1  0.63392459  0.25778993  0.48834043  1
  O  O232  1  0.63181428  0.25016287  0.99176831  1
  O  O233  1  0.63841782  0.73384616  0.50917246  1
  O  O234  1  0.62370982  0.73387048  0.99237514  1
  O  O235  1  0.49841701  0.23954988  0.13512937  1
  O  O236  1  0.49100760  0.24162903  0.61574804  1
  O  O237  1  0.49504781  0.74165199  0.12495879  1
  O  O238  1  0.50518917  0.74016955  0.63352055  1
  O  O239  1  0.98990433  0.24301550  0.13031185  1
  O  O240  1  0.99259573  0.24253487  0.62943486  1
  O  O241  1  0.98542929  0.74816005  0.13223514  1
  O  O242  1  0.99423705  0.74491243  0.62865621  1
  O  O243  1  0.00615863  0.25518431  0.36871826  1
  O  O244  1  0.00058901  0.25106497  0.86666100  1
  O  O245  1  0.00650805  0.75749545  0.37540948  1
  O  O246  1  0.00501203  0.75015578  0.86601784  1
  O  O247  1  0.50746209  0.25780820  0.37096675  1
  O  O248  1  0.51421685  0.24128680  0.88302064  1
  O  O249  1  0.51874262  0.72640549  0.35121995  1
  O  O250  1  0.51126415  0.75795130  0.87755000  1
  O  O251  1  0.24964453  0.13513548  0.48539142  1
  O  O252  1  0.23509756  0.10550223  0.98052882  1
  O  O253  1  0.24529614  0.61911647  0.48506354  1
  O  O254  1  0.24072653  0.63697957  1.00632056  1
  O  O255  1  0.76046160  0.14225519  0.49077031  1
  O  O256  1  0.74889521  0.13315131  0.99239062  1
  O  O257  1  0.75202258  0.62739891  0.49437817  1
  O  O258  1  0.74094095  0.61417455  0.98997313  1
  O  O259  1  0.24022049  0.37286486  0.02293567  1
  O  O260  1  0.25427560  0.36823717  0.50243137  1
  O  O261  1  0.26142058  0.87174253  0.01650240  1
  O  O262  1  0.25290739  0.87017161  0.49151012  1
  O  O263  1  0.76147011  0.36970569  -0.00610903  1
  O  O264  1  0.75762202  0.36766115  0.49928230  1
  O  O265  1  0.76045913  0.87083570  0.00679147  1
  O  O266  1  0.74635772  0.86197056  0.51080138  1
  O  O267  1  0.12812766  0.49695748  0.24452349  1
  O  O268  1  0.10728909  0.47873816  0.74593878  1
  O  O269  1  0.14782175  0.99773186  0.25534810  1
  O  O270  1  0.11599979  0.99104028  0.73508465  1
  O  O271  1  0.63131871  0.50004683  0.24101452  1
  O  O272  1  0.62975768  0.49338431  0.74040599  1
  O  O273  1  0.63314065  0.98230908  0.23482275  1
  O  O274  1  0.62958866  1.00158390  0.74385408  1
  O  O275  1  0.35261532  -0.02174923  0.26144224  1
  O  O276  1  0.38242989  -0.00194708  0.75475487  1
  O  O277  1  0.37136909  0.50910639  0.25541130  1
  O  O278  1  0.36424296  0.49960007  0.76260231  1
  O  O279  1  0.87388461  0.01162696  0.25429453  1
  O  O280  1  0.87853793  0.01102884  0.74860432  1
  O  O281  1  0.86628960  0.50987043  0.24754101  1
  O  O282  1  0.86801708  0.50535963  0.75262332  1
  O  O283  1  0.12085521  0.36410301  0.36953378  1
  O  O284  1  0.11137945  0.35910257  0.86091223  1
  O  O285  1  0.11334506  0.86870334  0.37832645  1
  O  O286  1  0.11845314  0.88110525  0.87373156  1
  O  O287  1  0.61712180  0.37204380  0.37503288  1
  O  O288  1  0.62745567  0.36131801  0.86889042  1
  O  O289  1  0.65037543  0.87449197  0.35206022  1
  O  O290  1  0.62227352  0.86638599  0.87976007  1
  O  O291  1  0.38930669  0.11502893  0.13485030  1
  O  O292  1  0.38328817  0.13224383  0.62288743  1
  O  O293  1  0.38148417  0.63241898  0.12681793  1
  O  O294  1  0.33373855  0.63643388  0.64830326  1
  O  O295  1  0.87915107  0.13180321  0.12884889  1
  O  O296  1  0.87649984  0.13023202  0.63063275  1
  O  O297  1  0.87269512  0.63136325  0.13170128  1
  O  O298  1  0.88415254  0.63109597  0.63222063  1
  O  O299  1  0.24948925  0.26392979  0.14054078  1
  O  O300  1  0.25351700  0.25314705  0.61157961  1
  O  O301  1  0.25778486  0.76122044  0.11990365  1
  O  O302  1  0.23270868  0.76895703  0.60688207  1
  O  O303  1  0.75555319  0.24480720  0.11144488  1
  O  O304  1  0.75369991  0.25320579  0.61603986  1
  O  O305  1  0.76230613  0.75422684  0.12289423  1
  O  O306  1  0.75623885  0.75204305  0.62116396  1
  O  O307  1  0.24474068  0.24110659  0.37725958  1
  O  O308  1  0.23819873  0.24120427  0.87607248  1
  O  O309  1  0.24335429  0.74607192  0.38171613  1
  O  O310  1  0.23995497  0.76038520  0.89435651  1
  O  O311  1  0.74264099  0.24496006  0.38022191  1
  O  O312  1  0.74551182  0.24132048  0.88629307  1
  O  O313  1  0.75253436  0.73547696  0.38650949  1
  O  O314  1  0.74503424  0.73437213  0.87544071  1
  O  O315  1  -0.00157201  0.12489243  0.01462101  1
  O  O316  1  -0.00021483  0.11836677  0.50335579  1
  O  O317  1  0.00291254  0.61736175  0.00557003  1
  O  O318  1  -0.00157029  0.61647627  0.50640262  1
  O  O319  1  0.50575597  0.12613512  0.02161915  1
  O  O320  1  0.50834286  0.12799445  0.50669600  1
  O  O321  1  0.50670836  0.61805202  0.00829945  1
  O  O322  1  0.50468590  0.63862721  0.48852501  1
  O  O323  1  0.48926871  0.37114975  0.48834929  1
  O  O324  1  0.49846055  0.38756468  1.01018661  1
  O  O325  1  0.53399323  0.87889696  0.48733191  1
  O  O326  1  0.49341341  0.87022856  0.99006354  1
  O  O327  1  0.99313867  0.38003415  0.49652634  1
  O  O328  1  0.98968832  0.38008185  0.99665760  1
  O  O329  1  0.99108253  0.87997892  0.48955172  1
  O  O330  1  0.99299913  0.87531291  0.99677958  1
  O  O331  1  0.49473610  0.49170581  0.36816061  1
  O  O332  1  0.50922250  0.49300530  0.89305256  1
  O  O333  1  0.52918125  1.01326930  0.38604554  1
  O  O334  1  0.49293341  0.99306603  0.87614458  1
  O  O335  1  0.99579753  0.49301495  0.38271493  1
  O  O336  1  0.99955397  0.49350944  0.88987719  1
  O  O337  1  0.99333725  0.99469053  0.37784010  1
  O  O338  1  0.99587007  0.99881489  0.87229016  1
  O  O339  1  -0.00490490  0.01421429  0.13010453  1
  O  O340  1  0.00422262  0.00543275  0.61382083  1
  O  O341  1  0.00518716  0.49918603  0.11575085  1
  O  O342  1  -0.00539099  0.51161977  0.61588676  1
  O  O343  1  0.50926678  0.00975473  0.13699312  1
  O  O344  1  0.51670008  0.01168465  0.62684689  1
  O  O345  1  0.50555833  0.50641161  0.11858190  1
  O  O346  1  0.50485683  0.49720850  0.62750245  1
  O  O347  1  0.24186300  0.38479883  0.24911562  1
  O  O348  1  0.23372766  0.37109208  0.73624893  1
  O  O349  1  0.24922010  0.87176645  0.23643087  1
  O  O350  1  0.23712419  0.87214015  0.74861809  1
  O  O351  1  0.74954595  0.38929894  0.25623260  1
  O  O352  1  0.74197523  0.38287899  0.74960797  1
  O  O353  1  0.74527634  0.86606993  0.23318796  1
  O  O354  1  0.75306672  0.86936658  0.73699713  1
  O  O355  1  0.25374077  0.11949752  0.26129363  1
  O  O356  1  0.24864782  0.12742924  0.76266467  1
  O  O357  1  0.25579441  0.62268424  0.25736913  1
  O  O358  1  0.20168776  0.61569572  0.76333502  1
  O  O359  1  0.75919084  0.13356865  0.25932420  1
  O  O360  1  0.76069706  0.13463551  0.75946176  1
  O  O361  1  0.75245734  0.61738511  0.25943159  1
  O  O362  1  0.75524551  0.61765489  0.75597657  1
  O  O363  1  0.37130207  0.13521974  0.37113823  1
  O  O364  1  0.36946285  0.11516645  0.86962201  1
  O  O365  1  0.36824091  0.62690164  0.36698992  1
  O  O366  1  0.36226175  0.63483530  0.87148147  1
  O  O367  1  0.86964288  0.12357590  0.36433877  1
  O  O368  1  0.86779523  0.12233857  0.86610197  1
  O  O369  1  0.86626511  0.62233557  0.36744620  1
  O  O370  1  0.86867456  0.62216965  0.86967243  1
  O  O371  1  0.12933324  0.37972819  0.13358391  1
  O  O372  1  0.13115526  0.36461189  0.63051921  1
  O  O373  1  0.13734098  0.87517100  0.12281041  1
  O  O374  1  0.12151232  0.88578160  0.63168171  1
  O  O375  1  0.62114178  0.38573349  0.12655947  1
  O  O376  1  0.62512315  0.38690988  0.62960333  1
  O  O377  1  0.63428028  0.87911245  0.12347612  1
  O  O378  1  0.63393908  0.88782479  0.63194836  1
  O  O379  1  0.11810049  0.25421426  0.25622702  1
  O  O380  1  0.10897313  0.25150451  0.75207386  1
  O  O381  1  0.12187751  0.74668403  0.26279410  1
  O  O382  1  0.11649778  0.76495424  0.76196016  1
  O  O383  1  0.62099362  0.25316320  0.26328813  1
  O  O384  1  0.62862511  0.25879381  0.76480740  1
  O  O385  1  0.62100023  0.76344606  0.23371265  1
  O  O386  1  0.63028080  0.75104120  0.76673900  1
  O  O387  1  0.38828759  0.25519423  0.25090195  1
  O  O388  1  0.36801238  0.24801675  0.72989062  1
  O  O389  1  0.38637674  0.74783775  0.23638257  1
  O  O390  1  0.37676929  0.75200001  0.74509041  1
  O  O391  1  0.87671218  0.24317083  0.24139849  1
  O  O392  1  0.88223755  0.24456195  0.74603960  1
  O  O393  1  0.87071294  0.73745056  0.24441273  1
  O  O394  1  0.88336167  0.74334832  0.74525497  1
  O  O395  1  0.37015290  0.49102496  0.49483231  1
  O  O396  1  0.38679611  0.50374282  0.99368833  1
  O  O397  1  0.37543962  1.00802288  0.47473368  1
  O  O398  1  0.37234619  0.99176492  0.99509009  1
  O  O399  1  0.88106435  0.48756813  0.50051443  1
  O  O400  1  0.88013772  0.49114134  1.00162065  1
  O  O401  1  0.87897829  0.99379855  0.49190828  1
  O  O402  1  0.87517934  0.98084340  0.99765505  1
  O  O403  1  0.11174856  -0.00972346  -0.01125468  1
  O  O404  1  0.11718072  0.00140820  0.50482295  1
  O  O405  1  0.11519278  0.51156672  0.01152173  1
  O  O406  1  0.11113645  0.49896866  0.49441307  1
  O  O407  1  0.62677782  0.00093328  0.01221551  1
  O  O408  1  0.63833756  0.01357829  0.51022847  1
  O  O409  1  0.61908888  0.50625026  0.00735623  1
  O  O410  1  0.62216938  0.50588666  0.51565282  1
  O  O411  1  0.35964022  0.37409728  0.13083158  1
  O  O412  1  0.36682924  0.36988859  0.61719469  1
  O  O413  1  0.37990126  0.86958561  0.11995418  1
  O  O414  1  0.38613077  0.87057704  0.60988393  1
  O  O415  1  0.87773512  0.36133526  0.11790422  1
  O  O416  1  0.87250412  0.36790831  0.61687289  1
  O  O417  1  0.86874329  0.86861915  0.11681988  1
  O  O418  1  0.86805168  0.86999649  0.61636696  1
  O  O419  1  0.12082410  0.13663472  0.37297114  1
  O  O420  1  0.12728590  0.13238833  0.87355018  1
  O  O421  1  0.13283520  0.63306482  0.37546719  1
  O  O422  1  0.11908928  0.63858183  0.89690948  1
  O  O423  1  0.63051927  0.13180497  0.38176408  1
  O  O424  1  0.63120250  0.13533334  0.87569716  1
  O  O425  1  0.63562594  0.61199603  0.39070797  1
  O  O426  1  0.63244825  0.62849710  0.88310540  1
