# generated using pymatgen
data_V85Zn86O256
_symmetry_space_group_name_H-M   'P 1'
_cell_length_a   16.96959124
_cell_length_b   16.98576490
_cell_length_c   16.99015147
_cell_angle_alpha   90.03041911
_cell_angle_beta   89.97709849
_cell_angle_gamma   90.01507517
_symmetry_Int_Tables_number   1
_chemical_formula_structural   V85Zn86O256
_chemical_formula_sum   'V85 Zn86 O256'
_cell_volume   4897.26527661
_cell_formula_units_Z   1
loop_
 _symmetry_equiv_pos_site_id
 _symmetry_equiv_pos_as_xyz
  1  'x, y, z'
loop_
 _atom_site_type_symbol
 _atom_site_label
 _atom_site_symmetry_multiplicity
 _atom_site_fract_x
 _atom_site_fract_y
 _atom_site_fract_z
 _atom_site_occupancy
  V  V0  1  0.87357957  0.24791313  0.62657547  1
  V  V1  1  0.37162574  0.01010652  0.88019509  1
  V  V2  1  0.88035540  0.12491664  0.24755699  1
  V  V3  1  0.87262798  0.62473458  0.74309044  1
  V  V4  1  0.87636889  -0.00055369  0.87849359  1
  V  V5  1  0.87630760  0.87175373  0.49648474  1
  V  V6  1  0.62391658  0.37450847  0.25062936  1
  V  V7  1  0.62559023  0.25152795  0.37585431  1
  V  V8  1  0.74564868  0.12225339  0.87511890  1
  V  V9  1  -0.00097198  0.62406804  0.61801728  1
  V  V10  1  0.12410489  0.50099993  0.12474052  1
  V  V11  1  0.00496795  -0.00370159  0.50370237  1
  V  V12  1  0.11700442  0.75753821  0.37834564  1
  V  V13  1  0.62418621  0.88435109  0.74720080  1
  V  V14  1  0.12334616  0.75459258  0.87658979  1
  V  V15  1  0.61335629  0.11241122  0.50413246  1
  V  V16  1  -0.00034986  0.24862485  0.24865178  1
  V  V17  1  -0.00457938  0.75619329  0.74672267  1
  V  V18  1  0.00076535  0.49709011  -0.00119534  1
  V  V19  1  0.87335862  0.37340123  -0.00175161  1
  V  V20  1  0.37400562  0.62120251  0.24926534  1
  V  V21  1  0.75460231  0.12329302  0.37600328  1
  V  V22  1  0.50078053  0.87571484  0.87831739  1
  V  V23  1  0.25251779  0.00347846  0.75639485  1
  V  V24  1  0.44708223  0.44751188  0.55702806  1
  V  V25  1  0.38156521  0.49487365  0.37754662  1
  V  V26  1  0.76212796  0.86722295  0.12083413  1
  V  V27  1  0.25060374  0.37409154  0.12143728  1
  V  V28  1  0.37695673  0.62671248  0.74918245  1
  V  V29  1  0.75287743  0.24888703  0.50138431  1
  V  V30  1  -0.00662874  0.75504976  0.24539022  1
  V  V31  1  0.24444908  0.50495032  0.72252671  1
  V  V32  1  0.62896402  0.75438866  0.38517535  1
  V  V33  1  -0.00034101  0.37723370  0.37303059  1
  V  V34  1  0.75109935  0.62931540  0.38177370  1
  V  V35  1  0.13090678  0.24396996  0.87312027  1
  V  V36  1  0.24999138  0.50028099  0.24953621  1
  V  V37  1  0.00236748  0.12359197  0.63015335  1
  V  V38  1  0.24976538  0.62311395  0.87327247  1
  V  V39  1  0.37785758  0.87466077  0.00495215  1
  V  V40  1  0.75581438  -0.00197997  0.24854808  1
  V  V41  1  0.62387325  0.87412889  0.25282013  1
  V  V42  1  0.62621405  0.50014068  0.12437804  1
  V  V43  1  -0.05985853  0.83277775  0.93015112  1
  V  V44  1  0.74985239  0.49264716  0.74366046  1
  V  V45  1  0.62786366  0.62970372  -0.00063205  1
  V  V46  1  0.50220142  0.37316395  0.85335852  1
  V  V47  1  0.63198336  0.48721180  0.62175732  1
  V  V48  1  0.25023783  0.75058121  0.00295218  1
  V  V49  1  0.00347461  0.36789478  0.86986892  1
  V  V50  1  0.50449954  0.63057806  0.62168216  1
  V  V51  1  0.62275831  0.00193818  0.12841903  1
  V  V52  1  0.50145813  0.24101731  0.24730478  1
  V  V53  1  0.87501794  0.49556891  0.86829581  1
  V  V54  1  0.25109022  0.62672576  0.37952391  1
  V  V55  1  0.74382537  0.87803820  0.61490185  1
  V  V56  1  0.13507574  0.24658272  0.37218923  1
  V  V57  1  0.37664361  0.74880371  0.12545989  1
  V  V58  1  0.38067250  0.24876896  0.12391936  1
  V  V59  1  0.13031396  0.00137684  0.12601854  1
  V  V60  1  0.74737541  0.24982221  -0.00000444  1
  V  V61  1  0.89374074  -0.00243719  0.37316090  1
  V  V62  1  0.61872417  0.12774433  0.00538743  1
  V  V63  1  0.74927686  0.50075293  0.25186964  1
  V  V64  1  0.13082648  0.87481083  0.24861675  1
  V  V65  1  0.74816411  0.62456076  0.87209147  1
  V  V66  1  0.49997023  0.00159255  0.01055024  1
  V  V67  1  0.87494595  0.37569377  0.50266473  1
  V  V68  1  0.25906381  0.26203305  0.51372630  1
  V  V69  1  0.50176315  0.62578651  0.12486458  1
  V  V70  1  0.87745062  0.49997815  0.37674494  1
  V  V71  1  0.11324434  0.60348173  0.49595438  1
  V  V72  1  0.26757994  0.86416378  0.63064249  1
  V  V73  1  0.38129513  0.37885283  -0.00244686  1
  V  V74  1  0.50072879  0.74944769  0.26322353  1
  V  V75  1  0.13013743  0.12635695  0.50158657  1
  V  V76  1  0.49684472  0.75290859  0.74659650  1
  V  V77  1  0.35778688  0.12115581  0.24880284  1
  V  V78  1  0.62518756  0.75092468  0.87608931  1
  V  V79  1  0.00079696  0.00316688  -0.00322569  1
  V  V80  1  0.62196868  0.62376310  0.50146565  1
  V  V81  1  -0.00901171  0.62505155  0.12566594  1
  V  V82  1  0.12223266  0.87533266  0.74868363  1
  V  V83  1  0.87840172  0.12681254  0.75131199  1
  V  V84  1  0.49132483  0.11920774  0.64071482  1
  Zn  Zn85  1  0.25596489  0.88102862  0.13016631  1
  Zn  Zn86  1  0.00011092  0.12601934  0.12024012  1
  Zn  Zn87  1  0.13211679  -0.00192400  0.62624365  1
  Zn  Zn88  1  0.13505268  0.12300107  -0.00144070  1
  Zn  Zn89  1  0.87026403  0.62877724  0.24720105  1
  Zn  Zn90  1  0.12568300  0.62580125  0.00123952  1
  Zn  Zn91  1  0.37390427  0.50100702  0.87300902  1
  Zn  Zn92  1  0.86835303  0.75198929  0.61610490  1
  Zn  Zn93  1  0.05378275  0.29708940  0.70679373  1
  Zn  Zn94  1  0.76761869  0.75221706  0.00069867  1
  Zn  Zn95  1  0.44634683  0.94825454  0.43524025  1
  Zn  Zn96  1  0.74882655  -0.00003536  0.74453001  1
  Zn  Zn97  1  0.29000395  0.08100327  0.40552802  1
  Zn  Zn98  1  0.12426816  0.37334833  0.24782496  1
  Zn  Zn99  1  0.36976759  0.14186931  0.75839830  1
  Zn  Zn100  1  0.61146555  0.24796005  0.85792187  1
  Zn  Zn101  1  0.75003756  0.37419674  0.12420902  1
  Zn  Zn102  1  0.49731066  0.37665940  0.38034120  1
  Zn  Zn103  1  0.50211527  0.50134858  -0.00908433  1
  Zn  Zn104  1  0.87549809  0.24949545  0.12352720  1
  Zn  Zn105  1  0.25446944  0.24173282  -0.00487224  1
  Zn  Zn106  1  0.24324431  0.75025213  0.51221473  1
  Zn  Zn107  1  0.18479829  0.18939987  0.17976895  1
  Zn  Zn108  1  0.19653485  0.18646042  0.68844719  1
  Zn  Zn109  1  0.18380249  0.68690103  0.18823245  1
  Zn  Zn110  1  0.17983020  0.67807361  0.68704583  1
  Zn  Zn111  1  0.69093851  0.18624199  0.18698223  1
  Zn  Zn112  1  0.68286208  0.17892868  0.68146911  1
  Zn  Zn113  1  0.69034723  0.69014766  0.19027112  1
  Zn  Zn114  1  0.68673319  0.69367159  0.68526660  1
  Zn  Zn115  1  0.31363163  0.31311802  0.30964107  1
  Zn  Zn116  1  0.30153664  0.32850467  0.80725727  1
  Zn  Zn117  1  0.30929031  0.80603266  0.31046309  1
  Zn  Zn118  1  0.31292483  0.81453967  0.81555534  1
  Zn  Zn119  1  0.81135807  0.31301502  0.31169786  1
  Zn  Zn120  1  0.76683581  0.28812555  0.78356026  1
  Zn  Zn121  1  0.81264175  0.81508666  0.31371324  1
  Zn  Zn122  1  0.80258349  0.80943401  0.80377293  1
  Zn  Zn123  1  0.18982975  0.43652404  0.43488771  1
  Zn  Zn124  1  0.18659007  0.43462153  0.93693371  1
  Zn  Zn125  1  0.27546419  0.92645044  0.43416980  1
  Zn  Zn126  1  0.18710764  0.93606888  0.93945180  1
  Zn  Zn127  1  0.69076307  0.43617248  0.44104600  1
  Zn  Zn128  1  0.68398341  0.43686136  0.93213341  1
  Zn  Zn129  1  0.69290164  0.93937062  0.43224605  1
  Zn  Zn130  1  0.68890254  0.93720432  0.94138128  1
  Zn  Zn131  1  0.31216394  0.06612178  0.06696377  1
  Zn  Zn132  1  0.31989768  0.05469202  0.57285115  1
  Zn  Zn133  1  0.31271824  0.56163371  0.05925406  1
  Zn  Zn134  1  0.32613117  0.59810242  0.54914956  1
  Zn  Zn135  1  0.81158142  0.05984233  0.06218471  1
  Zn  Zn136  1  0.81194431  0.05914801  0.56053379  1
  Zn  Zn137  1  0.81091093  0.56071764  0.05886245  1
  Zn  Zn138  1  0.81240299  0.56251154  0.55971991  1
  Zn  Zn139  1  0.44068531  0.43406505  0.18979194  1
  Zn  Zn140  1  0.43264001  0.29811559  0.68251742  1
  Zn  Zn141  1  0.45837681  0.95861510  0.23524262  1
  Zn  Zn142  1  0.43985754  0.94478502  0.68762883  1
  Zn  Zn143  1  0.93452497  0.43760441  0.18768675  1
  Zn  Zn144  1  0.96688845  0.42486388  0.66563769  1
  Zn  Zn145  1  0.94460143  0.93841245  0.18456192  1
  Zn  Zn146  1  0.93304397  0.93802431  0.68710689  1
  Zn  Zn147  1  0.11443437  0.03063560  0.34259981  1
  Zn  Zn148  1  0.06200804  0.06174711  0.81540037  1
  Zn  Zn149  1  0.06008949  0.56408893  0.30914346  1
  Zn  Zn150  1  0.06348707  0.56457366  0.80955103  1
  Zn  Zn151  1  0.56441209  0.06609468  0.31985724  1
  Zn  Zn152  1  0.55838102  0.06117537  0.81909899  1
  Zn  Zn153  1  0.56265615  0.56419984  0.31510133  1
  Zn  Zn154  1  0.56304451  0.55609365  0.80677995  1
  Zn  Zn155  1  0.43729772  0.19118270  0.43577083  1
  Zn  Zn156  1  0.43892916  0.19255350  0.93837350  1
  Zn  Zn157  1  0.41692125  0.77967552  0.46147414  1
  Zn  Zn158  1  0.43908997  0.68716451  0.93640084  1
  Zn  Zn159  1  0.94476631  0.18548732  0.43651866  1
  Zn  Zn160  1  0.93858229  0.18797905  0.93669419  1
  Zn  Zn161  1  0.93738469  0.68929441  0.43193786  1
  Zn  Zn162  1  0.94025523  0.66933956  0.93296806  1
  Zn  Zn163  1  0.06414517  0.31052201  0.05942757  1
  Zn  Zn164  1  0.08257982  0.33130622  0.54245339  1
  Zn  Zn165  1  0.06531122  0.81078825  0.06957596  1
  Zn  Zn166  1  0.06195024  0.81295128  0.56411512  1
  Zn  Zn167  1  0.56231021  0.31353613  0.06099738  1
  Zn  Zn168  1  0.56732866  0.30293628  0.56421615  1
  Zn  Zn169  1  0.56568072  0.81339514  0.06933906  1
  Zn  Zn170  1  0.56224889  0.82088471  0.56233396  1
  O  O171  1  0.11868648  0.11522884  0.12389150  1
  O  O172  1  0.11728074  0.12434670  0.62157085  1
  O  O173  1  0.11499649  0.61664220  0.12319210  1
  O  O174  1  0.11340382  0.63253385  0.60299969  1
  O  O175  1  0.63337959  0.11416035  0.11737379  1
  O  O176  1  0.61782329  0.12121536  0.60918145  1
  O  O177  1  0.62121403  0.62198104  0.11927339  1
  O  O178  1  0.62230438  0.62154789  0.61981678  1
  O  O179  1  0.37302811  0.39068822  0.37040163  1
  O  O180  1  0.38350648  0.38025055  0.88236787  1
  O  O181  1  0.36107992  0.86022604  0.39112931  1
  O  O182  1  0.38204590  0.87846654  0.88943211  1
  O  O183  1  0.87849621  0.38162301  0.37890833  1
  O  O184  1  0.88562613  0.38009540  0.88900895  1
  O  O185  1  0.87091285  0.88832462  0.38153132  1
  O  O186  1  0.86950427  0.88282258  0.86877435  1
  O  O187  1  0.21937843  0.00061408  0.37178838  1
  O  O188  1  0.26157011  -0.01100142  0.87015364  1
  O  O189  1  0.25209944  0.50702758  0.36834761  1
  O  O190  1  0.24490772  0.51836871  0.88069337  1
  O  O191  1  0.76321467  0.00655517  0.36544137  1
  O  O192  1  0.75646668  0.00996045  0.87933130  1
  O  O193  1  0.75729683  0.50593502  0.37053261  1
  O  O194  1  0.75283318  0.50709927  0.86693922  1
  O  O195  1  0.24232735  0.49659348  0.12797988  1
  O  O196  1  0.26063137  0.52313818  0.62595654  1
  O  O197  1  0.23435281  0.99701421  0.12044952  1
  O  O198  1  0.25148406  0.98492920  0.63949913  1
  O  O199  1  0.73881295  0.50240473  0.13044561  1
  O  O200  1  0.74066603  0.50420033  0.62967510  1
  O  O201  1  0.74305259  0.99107582  0.12965299  1
  O  O202  1  0.75471309  0.98475482  0.62704457  1
  O  O203  1  -0.00270762  0.36757959  0.25745723  1
  O  O204  1  -0.01669263  0.37246534  0.77003441  1
  O  O205  1  0.00745702  0.85902636  0.24156008  1
  O  O206  1  0.00349750  0.86444695  0.74725128  1
  O  O207  1  0.50966357  0.36590285  0.25376863  1
  O  O208  1  0.49795599  0.37316511  0.75588619  1
  O  O209  1  0.51438814  0.85820911  0.23576078  1
  O  O210  1  0.50571227  0.87013366  0.75445129  1
  O  O211  1  0.49952801  0.13953528  0.25055047  1
  O  O212  1  0.49846870  0.12367612  0.74456313  1
  O  O213  1  0.49733733  0.63177834  0.24289831  1
  O  O214  1  0.49720054  0.63303134  0.74649525  1
  O  O215  1  0.98693284  0.13408400  0.24830982  1
  O  O216  1  0.98895855  0.11852408  0.74461440  1
  O  O217  1  0.99624433  0.63361419  0.24113830  1
  O  O218  1  0.99184154  0.63760207  0.74412303  1
  O  O219  1  0.37515259  0.26002579  0.00791963  1
  O  O220  1  0.35705536  0.24888530  0.49216930  1
  O  O221  1  0.37054652  0.75494222  0.00424806  1
  O  O222  1  0.34487533  0.70284530  0.49284334  1
  O  O223  1  0.86861149  0.25708864  0.00193395  1
  O  O224  1  0.87085513  0.25122918  0.50346456  1
  O  O225  1  0.88497308  0.75859890  -0.01739778  1
  O  O226  1  0.88149238  0.76799831  0.49370802  1
  O  O227  1  0.13043236  0.24491962  0.49043978  1
  O  O228  1  0.12746253  0.24830862  0.98916278  1
  O  O229  1  0.12231881  0.75022559  0.48523404  1
  O  O230  1  0.13322440  0.75120337  0.99445762  1
  O  O231  1  0.63547592  0.24141978  0.49183210  1
  O  O232  1  0.63134888  0.24264075  0.99980950  1
  O  O233  1  0.62647977  0.74606913  0.48817529  1
  O  O234  1  0.62340435  0.73898309  0.99696911  1
  O  O235  1  0.49146813  0.25739436  0.13362051  1
  O  O236  1  0.50455285  0.23072632  0.62288247  1
  O  O237  1  0.49785319  0.73754734  0.13035635  1
  O  O238  1  0.51295735  0.74292957  0.63823144  1
  O  O239  1  0.99875746  0.25185288  0.13732333  1
  O  O240  1  0.98631938  0.23287758  0.62821094  1
  O  O241  1  1.00294821  0.73962818  0.13606466  1
  O  O242  1  0.99334869  0.74543899  0.63263379  1
  O  O243  1  0.00473765  0.25641538  0.36300769  1
  O  O244  1  0.00859820  0.26170278  0.87955431  1
  O  O245  1  0.01089202  0.74263230  0.35978821  1
  O  O246  1  0.00304355  0.75634910  0.87289676  1
  O  O247  1  0.51048303  0.25510302  0.36869604  1
  O  O248  1  0.49878337  0.26761637  0.87744413  1
  O  O249  1  0.50978754  0.74560446  0.36482305  1
  O  O250  1  0.50769042  0.75664058  0.87064708  1
  O  O251  1  0.23806646  0.13364188  0.50329655  1
  O  O252  1  0.24953894  0.12859624  1.00084451  1
  O  O253  1  0.22471283  0.61750972  0.48908658  1
  O  O254  1  0.24994116  0.63711857  0.99415229  1
  O  O255  1  0.74600708  0.13098822  0.49344918  1
  O  O256  1  0.74052510  0.12882758  0.99565569  1
  O  O257  1  0.74369602  0.62552780  0.48788588  1
  O  O258  1  0.74452601  0.63092402  0.99375759  1
  O  O259  1  0.26168186  0.37874922  0.00931292  1
  O  O260  1  0.23928114  0.36165593  0.50169825  1
  O  O261  1  0.25827573  0.86300283  0.00139782  1
  O  O262  1  0.24384016  0.86826049  0.52791253  1
  O  O263  1  0.75530511  0.36670279  -0.00346769  1
  O  O264  1  0.76101982  0.35746187  0.49242777  1
  O  O265  1  0.74569157  0.87066415  0.01582056  1
  O  O266  1  0.75746999  0.88046844  0.50787757  1
  O  O267  1  0.12814637  0.49792784  0.23838530  1
  O  O268  1  0.14630363  0.53498543  0.73987587  1
  O  O269  1  0.10783625  0.98312335  0.23828450  1
  O  O270  1  0.13202062  0.99021635  0.75466320  1
  O  O271  1  0.63033897  0.49631276  0.24440916  1
  O  O272  1  0.63509140  0.50447736  0.73201757  1
  O  O273  1  0.63599280  0.99331809  0.24526757  1
  O  O274  1  0.62425924  0.98684058  0.75924037  1
  O  O275  1  0.36552328  0.02228134  0.23194990  1
  O  O276  1  0.36843395  -0.00372339  0.76619832  1
  O  O277  1  0.37019872  0.50414561  0.25294165  1
  O  O278  1  0.35852256  0.52242519  0.75633862  1
  O  O279  1  0.87872673  0.00592436  0.25603669  1
  O  O280  1  0.87444427  0.00674798  0.76316666  1
  O  O281  1  0.86475599  0.50127894  0.25697545  1
  O  O282  1  0.87122755  0.51551971  0.75072224  1
  O  O283  1  0.11477361  0.36800330  0.37037579  1
  O  O284  1  0.10964109  0.36997283  0.87871368  1
  O  O285  1  0.12187818  0.85757061  0.36515065  1
  O  O286  1  0.13075133  0.86182873  0.86505715  1
  O  O287  1  0.62831179  0.36360941  0.37199952  1
  O  O288  1  0.60588374  0.37428312  0.87843832  1
  O  O289  1  0.63713157  0.86663636  0.36195964  1
  O  O290  1  0.62060213  0.87054157  0.87094441  1
  O  O291  1  0.37313056  0.14233521  0.13378809  1
  O  O292  1  0.38654638  0.12365848  0.63478617  1
  O  O293  1  0.38423259  0.62691967  0.12870676  1
  O  O294  1  0.39724767  0.62607119  0.63648285  1
  O  O295  1  0.87694094  0.12529886  0.13322307  1
  O  O296  1  0.87975999  0.12562821  0.63251297  1
  O  O297  1  0.88684065  0.61808579  0.12503854  1
  O  O298  1  0.87401425  0.63469416  0.62825638  1
  O  O299  1  0.25730984  0.26251284  0.12312944  1
  O  O300  1  0.24850315  0.25182668  0.61286352  1
  O  O301  1  0.25740133  0.74654267  0.11710309  1
  O  O302  1  0.24447243  0.76120607  0.63511542  1
  O  O303  1  0.75209589  0.25171423  0.11225274  1
  O  O304  1  0.76364634  0.23881573  0.61240652  1
  O  O305  1  0.75146928  0.76169846  0.12335978  1
  O  O306  1  0.75217945  0.77093837  0.62976982  1
  O  O307  1  0.23675630  0.25555328  0.37412081  1
  O  O308  1  0.23205950  0.26653215  0.87973722  1
  O  O309  1  0.22989416  0.73498604  0.36766838  1
  O  O310  1  0.24328835  0.74383228  0.88228932  1
  O  O311  1  0.74555943  0.24225132  0.37886422  1
  O  O312  1  0.75503229  0.23397742  0.88992718  1
  O  O313  1  0.74132583  0.74012821  0.36699223  1
  O  O314  1  0.74187399  0.74351046  0.87772657  1
  O  O315  1  0.00238739  0.11563747  0.00074709  1
  O  O316  1  0.00578742  0.11885058  0.51067403  1
  O  O317  1  0.00423770  0.61470197  0.00787924  1
  O  O318  1  0.00699975  0.63063532  0.50193446  1
  O  O319  1  0.51241134  0.12120929  -0.00093310  1
  O  O320  1  0.51205657  0.12626390  0.49544183  1
  O  O321  1  0.50815627  0.62292811  0.00780231  1
  O  O322  1  0.51844543  0.63118467  0.50965752  1
  O  O323  1  0.50181591  0.38012474  0.50061439  1
  O  O324  1  0.48844981  0.38195201  1.00509609  1
  O  O325  1  0.48616528  0.86064361  0.49584782  1
  O  O326  1  0.49559423  0.87915880  1.00049793  1
  O  O327  1  0.98769943  0.36708213  0.47926792  1
  O  O328  1  0.99299329  0.37953343  0.99388510  1
  O  O329  1  0.99310666  0.88870093  0.50844810  1
  O  O330  1  1.00196054  0.87961519  0.99983158  1
  O  O331  1  0.48959703  0.49765213  0.37044128  1
  O  O332  1  0.49737030  0.48861297  0.87186262  1
  O  O333  1  0.49708319  0.98326416  0.34134560  1
  O  O334  1  0.49244104  0.99249934  0.88829422  1
  O  O335  1  0.98561276  0.49272471  0.36491818  1
  O  O336  1  0.99784626  0.49352512  0.87812285  1
  O  O337  1  0.99781015  1.00410268  0.38534309  1
  O  O338  1  0.99292202  0.99655625  0.88607338  1
  O  O339  1  0.00680798  -0.00099712  0.11030821  1
  O  O340  1  -0.00072430  0.00935008  0.62065852  1
  O  O341  1  0.00643928  0.50435841  0.12187207  1
  O  O342  1  -0.01571105  0.52640597  0.62428650  1
  O  O343  1  0.51682318  -0.00585097  0.12841640  1
  O  O344  1  0.49952611  0.01822812  0.62415998  1
  O  O345  1  0.51212191  0.51118983  0.12837552  1
  O  O346  1  0.51396646  0.50850363  0.61536879  1
  O  O347  1  0.24908975  0.38232301  0.23692230  1
  O  O348  1  0.24618932  0.40678004  0.74524047  1
  O  O349  1  0.23527921  0.86413133  0.24510910  1
  O  O350  1  0.24236059  0.87785638  0.74628621  1
  O  O351  1  0.74261639  0.38177520  0.24691907  1
  O  O352  1  0.76877132  0.39623435  0.75259013  1
  O  O353  1  0.74524654  0.87842084  0.24052953  1
  O  O354  1  0.74011375  0.88035150  0.74068870  1
  O  O355  1  0.25873613  0.13479167  0.24857082  1
  O  O356  1  0.25224316  0.10672774  0.74881602  1
  O  O357  1  0.25190244  0.61873689  0.25560429  1
  O  O358  1  0.26139852  0.63651702  0.75843247  1
  O  O359  1  0.76260063  0.12016349  0.25471786  1
  O  O360  1  0.75728431  0.11620239  0.75927859  1
  O  O361  1  0.74999072  0.61847303  0.26060731  1
  O  O362  1  0.75621508  0.62282879  0.75251080  1
  O  O363  1  0.37589849  0.13514578  0.35369192  1
  O  O364  1  0.38198771  0.11272127  0.87718109  1
  O  O365  1  0.36058082  0.61038901  0.36381077  1
  O  O366  1  0.36695254  0.62696673  0.86988955  1
  O  O367  1  0.87523755  0.11675812  0.36847873  1
  O  O368  1  0.86969712  0.11929485  0.86906066  1
  O  O369  1  0.86775330  0.61691805  0.37450366  1
  O  O370  1  0.86858151  0.61551139  0.86388818  1
  O  O371  1  0.13320924  0.38198438  0.12448978  1
  O  O372  1  0.07087495  0.38146071  0.63674896  1
  O  O373  1  0.12955276  0.88042111  0.13198932  1
  O  O374  1  0.12421418  0.87564491  0.64107261  1
  O  O375  1  0.62690088  0.38595964  0.12881269  1
  O  O376  1  0.62668468  0.38888874  0.61588122  1
  O  O377  1  0.63566105  0.87972344  0.13575479  1
  O  O378  1  0.63492701  0.87604377  0.63146428  1
  O  O379  1  0.11637505  0.25053155  0.25482976  1
  O  O380  1  0.13012463  0.24300868  0.76464194  1
  O  O381  1  0.11385027  0.75282325  0.25461488  1
  O  O382  1  0.11326247  0.75299987  0.75804921  1
  O  O383  1  0.62230436  0.25314342  0.25583576  1
  O  O384  1  0.66099831  0.25475927  0.75754981  1
  O  O385  1  0.61981127  0.75523351  0.25780288  1
  O  O386  1  0.61756159  0.76071040  0.75780343  1
  O  O387  1  0.38359207  0.24903851  0.24171186  1
  O  O388  1  0.36067632  0.25325582  0.75269132  1
  O  O389  1  0.38329413  0.74142968  0.24463315  1
  O  O390  1  0.39050057  0.74489843  0.76125739  1
  O  O391  1  0.88009365  0.24335807  0.24804738  1
  O  O392  1  0.86372286  0.23674657  0.74034271  1
  O  O393  1  0.88978053  0.74848509  0.25668066  1
  O  O394  1  0.88018969  0.74072599  0.75183985  1
  O  O395  1  0.38218559  0.50407391  0.49547482  1
  O  O396  1  0.37928873  0.49422635  0.99624341  1
  O  O397  1  0.35537669  1.00917399  0.47734853  1
  O  O398  1  0.38129962  0.99271402  1.00141689  1
  O  O399  1  0.86724855  0.48691089  0.49023177  1
  O  O400  1  0.87920988  0.49412490  0.99068573  1
  O  O401  1  0.88434311  0.99486982  0.49165504  1
  O  O402  1  0.88095040  1.00259887  0.98707649  1
  O  O403  1  0.11697314  -0.00125600  0.00515532  1
  O  O404  1  0.11400379  0.01188577  0.50829206  1
  O  O405  1  0.12038919  0.50001266  0.01118980  1
  O  O406  1  0.11191102  0.50524641  0.49087317  1
  O  O407  1  0.61998267  0.00612663  0.00924095  1
  O  O408  1  0.62756684  0.01535538  0.48718663  1
  O  O409  1  0.62610054  0.51195070  0.00759776  1
  O  O410  1  0.63562667  0.50959634  0.51136449  1
  O  O411  1  0.36942206  0.37043320  0.11975286  1
  O  O412  1  0.39577755  0.39167326  0.61880933  1
  O  O413  1  0.37432893  0.86643153  0.11333023  1
  O  O414  1  0.36647889  0.86965742  0.63703039  1
  O  O415  1  0.87152740  0.37713678  0.11081224  1
  O  O416  1  0.88314037  0.36240885  0.61110412  1
  O  O417  1  0.86020470  0.88087763  0.12980384  1
  O  O418  1  0.86531455  0.87475494  0.61533168  1
  O  O419  1  0.11295221  0.13699912  0.39003258  1
  O  O420  1  0.11886840  0.14058506  0.87799282  1
  O  O421  1  0.12394264  0.62827543  0.38287420  1
  O  O422  1  0.12898112  0.63972593  0.87842704  1
  O  O423  1  0.63210234  0.13608997  0.38032150  1
  O  O424  1  0.63102038  0.12647932  0.88408703  1
  O  O425  1  0.63137750  0.63086654  0.38259081  1
  O  O426  1  0.62759677  0.62803500  0.88206786  1
