# generated using pymatgen
data_V85Zn86O256
_symmetry_space_group_name_H-M   'P 1'
_cell_length_a   16.96333896
_cell_length_b   16.97279836
_cell_length_c   16.97746121
_cell_angle_alpha   90.05190226
_cell_angle_beta   89.96282117
_cell_angle_gamma   90.00569414
_symmetry_Int_Tables_number   1
_chemical_formula_structural   V85Zn86O256
_chemical_formula_sum   'V85 Zn86 O256'
_cell_volume   4888.06831582
_cell_formula_units_Z   1
loop_
 _symmetry_equiv_pos_site_id
 _symmetry_equiv_pos_as_xyz
  1  'x, y, z'
loop_
 _atom_site_type_symbol
 _atom_site_label
 _atom_site_symmetry_multiplicity
 _atom_site_fract_x
 _atom_site_fract_y
 _atom_site_fract_z
 _atom_site_occupancy
  V  V0  1  0.19938501  0.56981935  0.42505478  1
  V  V1  1  0.12712478  0.37699794  0.26010870  1
  V  V2  1  0.24564970  0.00000164  0.74552000  1
  V  V3  1  0.37602539  0.87575446  -0.00201882  1
  V  V4  1  0.54666611  0.19955713  0.69891418  1
  V  V5  1  0.37099559  0.38831873  0.50357560  1
  V  V6  1  0.87995351  0.12331420  0.75155945  1
  V  V7  1  0.12838326  0.25423214  0.87549174  1
  V  V8  1  0.49851907  0.62145132  0.62187039  1
  V  V9  1  0.01182050  0.62065612  0.60665453  1
  V  V10  1  0.87880421  0.24874798  0.62388816  1
  V  V11  1  0.62141456  0.86621091  0.24807612  1
  V  V12  1  0.24961592  0.87578077  0.12497017  1
  V  V13  1  -0.00109624  0.50103590  -0.00111317  1
  V  V14  1  0.50199026  0.75525719  0.75226052  1
  V  V15  1  0.37634639  0.12790788  0.74421755  1
  V  V16  1  0.49933359  0.86719747  0.37175799  1
  V  V17  1  0.37482325  0.12644892  0.24963775  1
  V  V18  1  0.36987375  0.25593350  0.62755401  1
  V  V19  1  0.37255280  0.62326781  0.75056656  1
  V  V20  1  0.87622941  0.37342887  0.00080346  1
  V  V21  1  0.62582810  0.37285211  0.25685214  1
  V  V22  1  0.00580466  0.00474103  0.01804209  1
  V  V23  1  0.49611824  0.12679062  0.12237467  1
  V  V24  1  0.62448626  0.12399492  0.00050704  1
  V  V25  1  0.11900736  0.87442083  0.76630116  1
  V  V26  1  0.50427444  0.25101638  0.24691156  1
  V  V27  1  0.12337617  0.62892438  -0.00186374  1
  V  V28  1  0.89189867  0.24203396  0.12342604  1
  V  V29  1  0.24623831  0.75129869  -0.00547510  1
  V  V30  1  0.38221250  0.74432282  0.13317662  1
  V  V31  1  0.23383107  0.49211950  0.74873810  1
  V  V32  1  0.75061958  0.49880718  0.74898433  1
  V  V33  1  0.00101622  0.87563089  0.37910486  1
  V  V34  1  0.23647438  0.87515900  0.62240683  1
  V  V35  1  0.00501088  0.11199756  0.62464926  1
  V  V36  1  0.23452487  0.37396431  0.62155573  1
  V  V37  1  0.75003609  0.24823415  0.00411401  1
  V  V38  1  0.37736908  0.87786550  0.50368534  1
  V  V39  1  0.75368646  0.25072680  0.49049639  1
  V  V40  1  0.75088261  0.37147193  0.62366448  1
  V  V41  1  0.62384738  0.50061205  0.61581420  1
  V  V42  1  0.56867071  0.19329245  0.42932893  1
  V  V43  1  -0.00199627  0.62755016  0.12217258  1
  V  V44  1  0.75598997  0.49751343  0.25103551  1
  V  V45  1  0.37427348  0.49887687  0.87364201  1
  V  V46  1  0.00242617  0.37461677  0.86417356  1
  V  V47  1  0.61966704  0.37879194  0.75147692  1
  V  V48  1  0.88783799  -0.00478281  0.87662586  1
  V  V49  1  0.36199968  0.25606250  0.12372964  1
  V  V50  1  0.13683952  0.12307408  0.50382459  1
  V  V51  1  0.49614184  0.38033056  0.38173398  1
  V  V52  1  0.85938113  0.87204132  0.50090762  1
  V  V53  1  0.75331496  0.74805205  0.00468765  1
  V  V54  1  0.75477882  0.87072301  0.12557281  1
  V  V55  1  0.62961518  0.63725447  0.50470991  1
  V  V56  1  0.12869872  0.48986723  0.12063942  1
  V  V57  1  0.88608163  0.49571784  0.38108902  1
  V  V58  1  0.12483232  0.87724324  0.24697375  1
  V  V59  1  0.36067458  0.37220686  0.00121201  1
  V  V60  1  0.37372211  0.00051333  0.87441015  1
  V  V61  1  0.87406603  0.62899723  0.24500859  1
  V  V62  1  0.75434566  0.63205089  0.38130189  1
  V  V63  1  0.37248055  0.75203190  0.62636501  1
  V  V64  1  0.37796316  0.00146262  0.37554681  1
  V  V65  1  0.49871074  -0.00065687  0.00009676  1
  V  V66  1  0.24651695  0.00001147  0.25051458  1
  V  V67  1  0.42240679  0.56209703  0.31271092  1
  V  V68  1  0.13235575  0.74921240  0.37973273  1
  V  V69  1  0.86741011  0.74972677  0.62225807  1
  V  V70  1  -0.00284281  0.75285555  0.24364547  1
  V  V71  1  0.24859391  0.51370751  0.24356745  1
  V  V72  1  0.88310844  0.87030268  0.00042081  1
  V  V73  1  0.74864288  0.62498041  0.87392173  1
  V  V74  1  0.24955005  0.13098330  0.87958755  1
  V  V75  1  0.62554367  0.49969487  0.12470577  1
  V  V76  1  0.00434358  0.24995295  0.26768940  1
  V  V77  1  0.87338642  0.49753067  0.87273231  1
  V  V78  1  0.49943427  0.36785416  0.87622940  1
  V  V79  1  0.00374278  0.74704372  0.75731088  1
  V  V80  1  0.75276877  0.11916536  0.87695722  1
  V  V81  1  0.24311847  0.62888996  0.87094659  1
  V  V82  1  0.75369638  0.12619072  0.37441235  1
  V  V83  1  0.49897640  0.50220158  -0.00024490  1
  V  V84  1  0.75003996  0.00083721  0.25003568  1
  Zn  Zn85  1  0.88702154  0.11969816  0.24662308  1
  Zn  Zn86  1  0.75173800  0.37180764  0.12782988  1
  Zn  Zn87  1  0.24965829  0.74309478  0.49669859  1
  Zn  Zn88  1  0.15071084  0.26063883  0.39138254  1
  Zn  Zn89  1  0.11670537  0.13266530  0.01370653  1
  Zn  Zn90  1  0.00594666  0.25164370  0.74792570  1
  Zn  Zn91  1  0.49837291  0.62538247  0.13702790  1
  Zn  Zn92  1  0.00613131  -0.00628113  0.50522303  1
  Zn  Zn93  1  0.88777966  0.37512006  0.49780184  1
  Zn  Zn94  1  0.50155189  0.02047966  0.50814203  1
  Zn  Zn95  1  0.62359438  0.24684530  0.87497867  1
  Zn  Zn96  1  0.61802357  -0.00641645  0.62221423  1
  Zn  Zn97  1  0.24685895  0.12536123  0.37446703  1
  Zn  Zn98  1  0.75525537  -0.01218344  0.73291752  1
  Zn  Zn99  1  0.62692908  0.75233735  0.37597911  1
  Zn  Zn100  1  0.62647544  0.75221785  0.87605494  1
  Zn  Zn101  1  0.87688854  -0.00059479  0.37556143  1
  Zn  Zn102  1  0.62317473  0.62709803  0.00196455  1
  Zn  Zn103  1  0.64347311  0.87465020  0.74840167  1
  Zn  Zn104  1  0.62575722  -0.00202053  0.12295545  1
  Zn  Zn105  1  0.50563012  0.87306199  0.87530615  1
  Zn  Zn106  1  0.87873074  0.62260872  0.74376842  1
  Zn  Zn107  1  0.18023648  0.18949328  0.19128381  1
  Zn  Zn108  1  0.18535594  0.18891155  0.68913967  1
  Zn  Zn109  1  0.18328871  0.69210916  0.18231371  1
  Zn  Zn110  1  0.18329866  0.68869800  0.68532676  1
  Zn  Zn111  1  0.68716357  0.18570223  0.18592546  1
  Zn  Zn112  1  0.71657020  0.14838490  0.66055220  1
  Zn  Zn113  1  0.68808523  0.68634065  0.18687974  1
  Zn  Zn114  1  0.68796473  0.68959999  0.69104735  1
  Zn  Zn115  1  0.30897904  0.32486519  0.30482262  1
  Zn  Zn116  1  0.31365704  0.31151051  0.80863527  1
  Zn  Zn117  1  0.31367750  0.81070401  0.31346450  1
  Zn  Zn118  1  0.31072076  0.81336029  0.81110924  1
  Zn  Zn119  1  0.81951579  0.31257323  0.31031779  1
  Zn  Zn120  1  0.81108469  0.30760633  0.81216905  1
  Zn  Zn121  1  0.81366462  0.81303601  0.31274611  1
  Zn  Zn122  1  0.81769053  0.81029671  0.81477590  1
  Zn  Zn123  1  0.06047886  0.43649470  0.44160630  1
  Zn  Zn124  1  0.18375089  0.44021091  0.93211239  1
  Zn  Zn125  1  0.18748615  0.93991704  0.43857274  1
  Zn  Zn126  1  0.18687375  0.94170946  0.93700203  1
  Zn  Zn127  1  0.69155947  0.43916232  0.43763758  1
  Zn  Zn128  1  0.68725915  0.43610744  0.93852778  1
  Zn  Zn129  1  0.67850360  0.94666023  0.43992641  1
  Zn  Zn130  1  0.68930384  0.93470403  0.93333030  1
  Zn  Zn131  1  0.27634895  0.08497042  0.08498631  1
  Zn  Zn132  1  0.31731193  0.06019692  0.56714995  1
  Zn  Zn133  1  0.31149906  0.56399211  0.06188743  1
  Zn  Zn134  1  0.30874886  0.55789859  0.57160790  1
  Zn  Zn135  1  0.81651358  0.05985598  0.06445517  1
  Zn  Zn136  1  0.81583221  0.05688943  0.55382793  1
  Zn  Zn137  1  0.81195718  0.56217778  0.06350072  1
  Zn  Zn138  1  0.81495788  0.56554143  0.56363368  1
  Zn  Zn139  1  0.43937348  0.43275656  0.18294813  1
  Zn  Zn140  1  0.43687601  0.43893550  0.68884961  1
  Zn  Zn141  1  0.43560488  0.93580133  0.18568959  1
  Zn  Zn142  1  0.44293787  0.94076758  0.68346172  1
  Zn  Zn143  1  0.94268510  0.43332130  0.18703616  1
  Zn  Zn144  1  0.94028642  0.43975528  0.67947203  1
  Zn  Zn145  1  0.93388966  0.93549738  0.18719441  1
  Zn  Zn146  1  0.93319221  0.93117352  0.68924276  1
  Zn  Zn147  1  0.06539834  0.06632067  0.31820383  1
  Zn  Zn148  1  0.06601367  0.06262790  0.81539376  1
  Zn  Zn149  1  0.06152554  0.56607594  0.30510559  1
  Zn  Zn150  1  0.05959309  0.56636177  0.81151154  1
  Zn  Zn151  1  0.56091076  0.05300686  0.30823582  1
  Zn  Zn152  1  0.56852497  0.05218091  0.81417765  1
  Zn  Zn153  1  0.58145639  0.55542139  0.32110227  1
  Zn  Zn154  1  0.56215835  0.56380671  0.81125010  1
  Zn  Zn155  1  0.37559952  0.22015311  0.42004350  1
  Zn  Zn156  1  0.43088641  0.18807800  0.93828566  1
  Zn  Zn157  1  0.44133878  0.69159007  0.44564360  1
  Zn  Zn158  1  0.43364944  0.68675567  0.93860993  1
  Zn  Zn159  1  0.93849999  0.18136648  0.44046541  1
  Zn  Zn160  1  0.94268601  0.18620463  0.93819588  1
  Zn  Zn161  1  0.93833363  0.69163862  0.43482166  1
  Zn  Zn162  1  0.93241229  0.68745354  0.93473832  1
  Zn  Zn163  1  0.06590334  0.31395044  0.05568426  1
  Zn  Zn164  1  0.06214717  0.30294042  0.56293232  1
  Zn  Zn165  1  0.06435495  0.81512251  0.06291765  1
  Zn  Zn166  1  0.05774813  0.80384092  0.56284895  1
  Zn  Zn167  1  0.56113393  0.31499698  0.06282971  1
  Zn  Zn168  1  0.56078806  0.32089633  0.56021870  1
  Zn  Zn169  1  0.56529562  0.81105247  0.06214622  1
  Zn  Zn170  1  0.56243780  0.81838467  0.56522079  1
  O  O171  1  0.16815869  0.11575853  0.11076646  1
  O  O172  1  0.11786395  0.12723488  0.61702890  1
  O  O173  1  0.11649509  0.61879412  0.11614302  1
  O  O174  1  0.11189953  0.63104763  0.62055898  1
  O  O175  1  0.61538458  0.12165785  0.11789123  1
  O  O176  1  0.60429495  0.15054645  0.63558939  1
  O  O177  1  0.62062850  0.61266938  0.12632089  1
  O  O178  1  0.62061904  0.62013289  0.62176102  1
  O  O179  1  0.38245762  0.36472853  0.38980322  1
  O  O180  1  0.38243594  0.37912406  0.87935138  1
  O  O181  1  0.37967996  0.88072089  0.38183587  1
  O  O182  1  0.37264860  0.87839029  0.88665274  1
  O  O183  1  0.87276599  0.39285401  0.37466250  1
  O  O184  1  0.87861150  0.37637528  0.88407459  1
  O  O185  1  0.88315420  0.87161011  0.38574329  1
  O  O186  1  0.87186563  0.88388457  0.88979018  1
  O  O187  1  0.26328932  -0.00284913  0.36742699  1
  O  O188  1  0.25402045  0.00747419  0.86498038  1
  O  O189  1  0.25438811  0.51331951  0.36089740  1
  O  O190  1  0.25369503  0.50659733  0.86461209  1
  O  O191  1  0.75031434  0.00909865  0.36705651  1
  O  O192  1  0.76348043  0.01331145  0.88570659  1
  O  O193  1  0.75711548  0.50957336  0.36435599  1
  O  O194  1  0.75403089  0.50336946  0.87009563  1
  O  O195  1  0.23861826  0.50354571  0.12638563  1
  O  O196  1  0.24816063  0.48866523  0.64042543  1
  O  O197  1  0.26413249  0.98114412  0.13686292  1
  O  O198  1  0.25645467  0.98978769  0.63890650  1
  O  O199  1  0.74506406  0.49772235  0.13537183  1
  O  O200  1  0.74484284  0.49407625  0.63052018  1
  O  O201  1  0.74846335  0.99181972  0.13195200  1
  O  O202  1  0.73732474  1.03846920  0.62947442  1
  O  O203  1  0.01219256  0.36089085  0.24363194  1
  O  O204  1  -0.00763025  0.37513119  0.76157911  1
  O  O205  1  0.00605189  0.86965968  0.25237532  1
  O  O206  1  0.01312368  0.86650641  0.74527508  1
  O  O207  1  0.50126896  0.36831847  0.26070319  1
  O  O208  1  0.51201101  0.38399910  0.76042709  1
  O  O209  1  0.50982220  0.88283568  0.25688246  1
  O  O210  1  0.48555987  0.85902896  0.75421250  1
  O  O211  1  0.49542979  0.13100773  0.24422094  1
  O  O212  1  0.49444518  0.13068466  0.75889188  1
  O  O213  1  0.49428525  0.61143425  0.25782462  1
  O  O214  1  0.49355071  0.63260472  0.74257528  1
  O  O215  1  1.00543385  0.14301210  0.25278762  1
  O  O216  1  0.99255353  0.12449901  0.74676590  1
  O  O217  1  0.99276768  0.63398632  0.24363865  1
  O  O218  1  0.99975781  0.63745672  0.74617302  1
  O  O219  1  0.37715603  0.26035066  0.01025435  1
  O  O220  1  0.38077094  0.26395584  0.52259305  1
  O  O221  1  0.36393426  0.75668787  0.00484103  1
  O  O222  1  0.37189899  0.75732499  0.51246099  1
  O  O223  1  0.87176543  0.25444994  0.00620767  1
  O  O224  1  0.86931321  0.25207481  0.50538629  1
  O  O225  1  0.86487506  0.75765600  -0.00269176  1
  O  O226  1  0.87770648  0.76096670  0.50887763  1
  O  O227  1  0.12392694  0.23092319  0.49999561  1
  O  O228  1  0.12144574  0.24592827  0.98420943  1
  O  O229  1  0.12617677  0.75436861  0.48337627  1
  O  O230  1  0.13857997  0.74714462  1.00520774  1
  O  O231  1  0.62848717  0.25076886  0.49318636  1
  O  O232  1  0.63417265  0.24513823  1.00073647  1
  O  O233  1  0.62101084  0.73981367  0.49966871  1
  O  O234  1  0.63806626  0.74682936  0.99791718  1
  O  O235  1  0.49483870  0.24560179  0.13105560  1
  O  O236  1  0.49310239  0.26176737  0.63608294  1
  O  O237  1  0.48722951  0.74578251  0.11846818  1
  O  O238  1  0.48966313  0.74241142  0.63266923  1
  O  O239  1  0.99387999  0.25133883  0.12313671  1
  O  O240  1  0.98899088  0.23810221  0.62837934  1
  O  O241  1  1.00507910  0.74541164  0.13649779  1
  O  O242  1  0.99249145  0.74011437  0.63209261  1
  O  O243  1  -0.00382496  0.25306951  0.36695181  1
  O  O244  1  0.00492861  0.25951171  0.87348596  1
  O  O245  1  0.00660658  0.75908256  0.36360354  1
  O  O246  1  -0.00761574  0.74728633  0.85660588  1
  O  O247  1  0.50384481  0.25657655  0.36991201  1
  O  O248  1  0.50154759  0.26444405  0.88378023  1
  O  O249  1  0.50091579  0.76350570  0.37612855  1
  O  O250  1  0.49985364  0.74748240  0.86684531  1
  O  O251  1  0.24051201  0.11822697  0.50306616  1
  O  O252  1  0.26792149  0.12146941  0.97683256  1
  O  O253  1  0.25367517  0.62368405  0.49624511  1
  O  O254  1  0.24541182  0.63314316  0.99104907  1
  O  O255  1  0.75557260  0.13355186  0.48216060  1
  O  O256  1  0.74678731  0.13062347  0.99780791  1
  O  O257  1  0.74289088  0.62169067  0.49255887  1
  O  O258  1  0.75068111  0.63146867  0.99493487  1
  O  O259  1  0.26224047  0.38152902  -0.00824620  1
  O  O260  1  0.25693256  0.37619675  0.52135229  1
  O  O261  1  0.25431096  0.87171275  0.00562868  1
  O  O262  1  0.26020475  0.87685108  0.50764218  1
  O  O263  1  0.75822194  0.36608242  0.00105197  1
  O  O264  1  0.75139409  0.36615490  0.50583471  1
  O  O265  1  0.75714543  0.86804718  0.00742387  1
  O  O266  1  0.76176855  0.87677145  0.49004444  1
  O  O267  1  0.12792985  0.49495258  0.24025568  1
  O  O268  1  0.13584460  0.49953592  0.75657711  1
  O  O269  1  0.13889279  0.99280670  0.25829260  1
  O  O270  1  0.13135230  0.98582455  0.75503353  1
  O  O271  1  0.63717424  0.49388771  0.24355605  1
  O  O272  1  0.63161447  0.49427872  0.74299461  1
  O  O273  1  0.63597032  0.98918363  0.24694138  1
  O  O274  1  0.63547920  0.99843811  0.74562711  1
  O  O275  1  0.36840724  0.00257575  0.25670489  1
  O  O276  1  0.36759322  0.00637460  0.75695789  1
  O  O277  1  0.36762778  0.50200803  0.24523907  1
  O  O278  1  0.36825602  0.50699374  0.75676385  1
  O  O279  1  0.86239448  -0.00042913  0.25178678  1
  O  O280  1  0.87559788  0.00588035  0.75943572  1
  O  O281  1  0.87215083  0.50453962  0.25605430  1
  O  O282  1  0.86708736  0.49935785  0.75481831  1
  O  O283  1  0.12407439  0.37361435  0.36442984  1
  O  O284  1  0.11404841  0.36820348  0.87811248  1
  O  O285  1  0.12077291  0.86892134  0.36490259  1
  O  O286  1  0.12803234  0.87168876  0.86412451  1
  O  O287  1  0.61195749  0.39016257  0.36852085  1
  O  O288  1  0.61943972  0.37276587  0.86777265  1
  O  O289  1  0.61701850  0.87416683  0.36712431  1
  O  O290  1  0.62272020  0.87081104  0.86828790  1
  O  O291  1  0.37666965  0.13448902  0.13066837  1
  O  O292  1  0.36940617  0.13572651  0.63747062  1
  O  O293  1  0.37700451  0.63999745  0.11932879  1
  O  O294  1  0.38125544  0.63045214  0.62972712  1
  O  O295  1  0.86970946  0.13783452  0.13040472  1
  O  O296  1  0.88251026  0.12983676  0.63256534  1
  O  O297  1  0.88075073  0.61867468  0.13779877  1
  O  O298  1  0.88234383  0.63741700  0.62319886  1
  O  O299  1  0.26427573  0.25623479  0.13943684  1
  O  O300  1  0.25720305  0.26584030  0.63946018  1
  O  O301  1  0.25818637  0.75968579  0.11784870  1
  O  O302  1  0.25662357  0.75707744  0.62337842  1
  O  O303  1  0.75674109  0.25133037  0.11503701  1
  O  O304  1  0.76085585  0.24650337  0.61115560  1
  O  O305  1  0.74801341  0.75660448  0.11689861  1
  O  O306  1  0.76840144  0.74275317  0.62977427  1
  O  O307  1  0.26714114  0.24287631  0.37295116  1
  O  O308  1  0.24561813  0.23850539  0.86808304  1
  O  O309  1  0.24084871  0.75350525  0.37703415  1
  O  O310  1  0.25452083  0.74082893  0.88200429  1
  O  O311  1  0.75629190  0.24638981  0.38233728  1
  O  O312  1  0.75206322  0.23907153  0.88870345  1
  O  O313  1  0.75003240  0.73517985  0.36958572  1
  O  O314  1  0.75251661  0.73863830  0.88297014  1
  O  O315  1  0.00045261  0.10989486  0.00242011  1
  O  O316  1  0.00588476  0.11816915  0.50977596  1
  O  O317  1  0.00183928  0.62174680  0.00169311  1
  O  O318  1  -0.00034882  0.62926398  0.50660762  1
  O  O319  1  0.50211689  0.11805654  0.00184409  1
  O  O320  1  0.50231549  0.14218472  0.48066004  1
  O  O321  1  0.50090314  0.61101542  -0.00214998  1
  O  O322  1  0.50873904  0.62729075  0.51536550  1
  O  O323  1  0.49451858  0.37784288  0.48775544  1
  O  O324  1  0.49640724  0.38639501  0.99296503  1
  O  O325  1  0.48529367  0.87160227  0.49264989  1
  O  O326  1  0.49281825  0.88110303  0.99946147  1
  O  O327  1  0.99949051  0.37830992  0.51101369  1
  O  O328  1  0.99152846  0.38193455  0.99088473  1
  O  O329  1  0.99876249  0.87423363  0.49063148  1
  O  O330  1  0.98860598  0.88138223  1.00874013  1
  O  O331  1  0.48631087  0.49791232  0.36645734  1
  O  O332  1  0.49591532  0.49284012  0.88107804  1
  O  O333  1  0.48848966  0.99073635  0.37577712  1
  O  O334  1  0.49281073  0.99845864  0.88553669  1
  O  O335  1  0.98971469  0.50314996  0.37074420  1
  O  O336  1  0.99372603  0.49457535  0.87941103  1
  O  O337  1  0.99908780  0.98450163  0.36975297  1
  O  O338  1  0.98992492  1.00270750  0.88152990  1
  O  O339  1  -0.00151474  -0.00010157  0.11716789  1
  O  O340  1  -0.00493811  0.00963707  0.62827386  1
  O  O341  1  0.00614310  0.50608110  0.11747220  1
  O  O342  1  -0.00567739  0.52241428  0.62768559  1
  O  O343  1  0.49746929  0.00572583  0.11295229  1
  O  O344  1  0.49835891  0.01173777  0.62240843  1
  O  O345  1  0.50721044  0.50200594  0.11773931  1
  O  O346  1  0.51184145  0.50989835  0.63403035  1
  O  O347  1  0.23706412  0.39195043  0.24871773  1
  O  O348  1  0.25251464  0.38830515  0.74674852  1
  O  O349  1  0.24363421  0.87806715  0.24413351  1
  O  O350  1  0.23807394  0.87863384  0.74481710  1
  O  O351  1  0.74776737  0.38184215  0.24938607  1
  O  O352  1  0.73796177  0.37539218  0.74534619  1
  O  O353  1  0.74612563  0.88012155  0.24382896  1
  O  O354  1  0.75989828  0.87689307  0.74949489  1
  O  O355  1  0.25730707  0.11385343  0.25248178  1
  O  O356  1  0.25550870  0.11640573  0.75550843  1
  O  O357  1  0.24473974  0.61398436  0.23781420  1
  O  O358  1  0.25078310  0.61735871  0.75395167  1
  O  O359  1  0.74796368  0.11833591  0.25820277  1
  O  O360  1  0.76769518  0.12889125  0.76432198  1
  O  O361  1  0.75774146  0.61776699  0.25447827  1
  O  O362  1  0.75318545  0.61813780  0.75829971  1
  O  O363  1  0.37564398  0.11621089  0.36686234  1
  O  O364  1  0.36800572  0.12429063  0.86163381  1
  O  O365  1  0.37781307  0.62760319  0.37281285  1
  O  O366  1  0.36276425  0.61871851  0.87098592  1
  O  O367  1  0.86804017  0.12099236  0.36753061  1
  O  O368  1  0.87363270  0.11931995  0.87011709  1
  O  O369  1  0.87212958  0.61718667  0.36599406  1
  O  O370  1  0.86402970  0.61521433  0.87279896  1
  O  O371  1  0.11987646  0.38703842  0.12730406  1
  O  O372  1  0.13618694  0.36739104  0.62749060  1
  O  O373  1  0.13440421  0.87078210  0.13846306  1
  O  O374  1  0.13514069  0.86870716  0.62639740  1
  O  O375  1  0.62566721  0.38614532  0.13310082  1
  O  O376  1  0.62902860  0.38273348  0.63149618  1
  O  O377  1  0.63464830  0.87633777  0.13050172  1
  O  O378  1  0.61689060  0.87723700  0.63720128  1
  O  O379  1  0.11878246  0.25808550  0.25738564  1
  O  O380  1  0.12053676  0.24145337  0.76800617  1
  O  O381  1  0.11840270  0.75757868  0.25654895  1
  O  O382  1  0.11382971  0.76064968  0.74797378  1
  O  O383  1  0.61279440  0.25617630  0.24359975  1
  O  O384  1  0.61609012  0.25733064  0.75320803  1
  O  O385  1  0.62900851  0.76225582  0.25143315  1
  O  O386  1  0.61276210  0.74708637  0.75423802  1
  O  O387  1  0.38864395  0.24974217  0.24369821  1
  O  O388  1  0.37822507  0.24249853  0.74210102  1
  O  O389  1  0.37298261  0.75688365  0.23126647  1
  O  O390  1  0.37521885  0.74276535  0.74120859  1
  O  O391  1  0.89138697  0.25263902  0.24151916  1
  O  O392  1  0.87723349  0.24185873  0.74141498  1
  O  O393  1  0.88451386  0.74104344  0.25397099  1
  O  O394  1  0.88856439  0.75083506  0.73811701  1
  O  O395  1  0.37566640  0.48782301  0.50999651  1
  O  O396  1  0.38145166  0.49460025  0.99421252  1
  O  O397  1  0.37951435  0.99531191  0.49304308  1
  O  O398  1  0.38180499  0.98995223  0.99417220  1
  O  O399  1  0.86853324  0.50032976  0.48264443  1
  O  O400  1  0.87729799  0.49083052  0.99515551  1
  O  O401  1  0.88156715  0.98425460  0.49658750  1
  O  O402  1  0.88633909  0.99274430  0.99726612  1
  O  O403  1  0.10666227  -0.00473384  -0.00283230  1
  O  O404  1  0.12163406  0.01385987  0.49578265  1
  O  O405  1  0.11911391  0.50638750  0.00452389  1
  O  O406  1  0.14369602  0.50742210  0.47731983  1
  O  O407  1  0.61582690  0.00464323  -0.00012096  1
  O  O408  1  0.61415784  0.00534101  0.50538583  1
  O  O409  1  0.61898248  0.49935949  0.00902225  1
  O  O410  1  0.63031320  0.50820976  0.51266148  1
  O  O411  1  0.38031146  0.36770142  0.11211858  1
  O  O412  1  0.36972269  0.37211904  0.62504577  1
  O  O413  1  0.37159928  0.86542097  0.11363072  1
  O  O414  1  0.36740919  0.86818137  0.62043697  1
  O  O415  1  0.87545997  0.36813026  0.11318079  1
  O  O416  1  0.86764838  0.36438108  0.62570444  1
  O  O417  1  0.86191827  0.87648170  0.11761466  1
  O  O418  1  0.87954498  0.86413064  0.61042245  1
  O  O419  1  0.12985163  0.13080053  0.38891320  1
  O  O420  1  0.13840858  0.12782505  0.88144113  1
  O  O421  1  0.13163639  0.63175983  0.36935713  1
  O  O422  1  0.13591651  0.62149722  0.88140709  1
  O  O423  1  0.62658645  0.13006892  0.37099445  1
  O  O424  1  0.63596634  0.12635922  0.88200766  1
  O  O425  1  0.63539660  0.62695973  0.38731124  1
  O  O426  1  0.63847550  0.62212382  0.87803452  1
