# generated using pymatgen
data_V85Zn86O256
_symmetry_space_group_name_H-M   'P 1'
_cell_length_a   16.93203407
_cell_length_b   16.93605839
_cell_length_c   16.93856406
_cell_angle_alpha   89.95365778
_cell_angle_beta   89.95666343
_cell_angle_gamma   90.00818370
_symmetry_Int_Tables_number   1
_chemical_formula_structural   V85Zn86O256
_chemical_formula_sum   'V85 Zn86 O256'
_cell_volume   4857.33208072
_cell_formula_units_Z   1
loop_
 _symmetry_equiv_pos_site_id
 _symmetry_equiv_pos_as_xyz
  1  'x, y, z'
loop_
 _atom_site_type_symbol
 _atom_site_label
 _atom_site_symmetry_multiplicity
 _atom_site_fract_x
 _atom_site_fract_y
 _atom_site_fract_z
 _atom_site_occupancy
  V  V0  1  0.87139665  0.00098125  0.87547223  1
  V  V1  1  0.74503221  0.87323188  0.12796952  1
  V  V2  1  0.75783977  0.50439208  0.24862639  1
  V  V3  1  0.24992488  0.50100184  0.75003817  1
  V  V4  1  0.12478508  0.37822080  0.74789912  1
  V  V5  1  -0.00313315  0.87229955  0.87686670  1
  V  V6  1  0.74964738  0.12803431  0.87488562  1
  V  V7  1  0.62556473  -0.00139814  0.12569871  1
  V  V8  1  0.24953659  0.23188576  0.49888694  1
  V  V9  1  0.50238584  0.62725562  0.12672782  1
  V  V10  1  -0.00404339  0.37449981  0.88043822  1
  V  V11  1  0.24777378  0.37780005  0.62279119  1
  V  V12  1  0.62612219  0.25612381  0.86534215  1
  V  V13  1  0.62567046  0.12785219  0.00003746  1
  V  V14  1  0.17873249  0.79767233  0.42502398  1
  V  V15  1  0.24256094  0.61631519  0.36623834  1
  V  V16  1  0.75238807  0.37515144  0.61718961  1
  V  V17  1  0.87869228  0.48274166  0.37664065  1
  V  V18  1  0.12259734  0.74759892  0.87792406  1
  V  V19  1  0.12940534  0.87458753  0.74925655  1
  V  V20  1  0.76040042  0.62591639  0.37273040  1
  V  V21  1  0.12384485  0.87031004  0.24736889  1
  V  V22  1  0.36908361  0.37629470  0.00262859  1
  V  V23  1  0.62165988  0.62484028  0.49566183  1
  V  V24  1  0.12691617  0.25025692  0.87635392  1
  V  V25  1  0.61229334  0.75436034  0.87053188  1
  V  V26  1  0.11345394  0.01178298  0.63657636  1
  V  V27  1  0.75162043  0.63577418  0.86877746  1
  V  V28  1  0.87550873  0.62197753  0.74345034  1
  V  V29  1  0.00008438  0.74852439  0.73963742  1
  V  V30  1  0.25297782  -0.00118510  0.75356523  1
  V  V31  1  0.88462922  0.12742623  0.74753256  1
  V  V32  1  0.87587815  -0.00470817  0.38298621  1
  V  V33  1  0.37780401  0.12147108  0.75557879  1
  V  V34  1  0.37417905  0.75261773  0.12199208  1
  V  V35  1  0.12393590  0.24549979  0.37464041  1
  V  V36  1  0.74639199  0.00432594  0.73840715  1
  V  V37  1  0.12629947  0.61367555  0.49515025  1
  V  V38  1  0.50269962  -0.00851085  0.49461986  1
  V  V39  1  0.50534372  0.76549856  0.24835169  1
  V  V40  1  0.50096482  0.37591228  0.37535634  1
  V  V41  1  0.37376559  0.12696665  0.26051976  1
  V  V42  1  0.00173133  0.24825674  0.25158992  1
  V  V43  1  0.75316450  0.12639233  0.37082989  1
  V  V44  1  0.38286284  0.63599019  0.74634861  1
  V  V45  1  0.74713678  -0.00429644  0.25133134  1
  V  V46  1  0.62303243  0.88179053  0.74197429  1
  V  V47  1  0.12336627  0.62187025  0.00295697  1
  V  V48  1  0.13769769  0.37636387  0.25312405  1
  V  V49  1  0.37180174  0.37332768  0.49898228  1
  V  V50  1  0.50075865  0.49975496  -0.00120667  1
  V  V51  1  0.62717151  0.50089520  0.12459120  1
  V  V52  1  0.49488895  0.00224939  -0.00847068  1
  V  V53  1  0.87367332  0.74488623  0.13054663  1
  V  V54  1  0.10897172  0.12773303  0.50592306  1
  V  V55  1  0.88552487  0.24952357  0.11811798  1
  V  V56  1  0.37491972  0.24423044  0.62397553  1
  V  V57  1  0.49928105  0.12776590  0.12633906  1
  V  V58  1  0.50114677  0.37707003  0.86548817  1
  V  V59  1  0.37094517  0.50031327  0.36678324  1
  V  V60  1  0.38136005  -0.01613900  0.37533136  1
  V  V61  1  0.75177613  0.26089037  0.00068066  1
  V  V62  1  0.49644692  0.50407408  0.50203002  1
  V  V63  1  0.75920814  0.75166737  0.50713913  1
  V  V64  1  0.50295584  0.11782662  0.62410136  1
  V  V65  1  0.87228833  0.87293437  -0.00142955  1
  V  V66  1  0.87333651  0.49674976  0.88311484  1
  V  V67  1  0.62674977  0.25025572  0.37368334  1
  V  V68  1  0.74686459  0.49589260  0.74839184  1
  V  V69  1  -0.00344583  0.48439803  0.50176470  1
  V  V70  1  0.88263863  0.25150693  0.61705101  1
  V  V71  1  0.00541274  0.61814770  0.62193259  1
  V  V72  1  0.62702780  0.12285886  0.50246023  1
  V  V73  1  0.24853818  0.00375180  0.25228222  1
  V  V74  1  0.14140882  0.49416859  0.12875794  1
  V  V75  1  -0.00311441  0.61846730  0.13263577  1
  V  V76  1  0.36646564  0.25336266  0.12751575  1
  V  V77  1  -0.00148380  0.00709554  0.00986867  1
  V  V78  1  -0.00430975  0.87028579  0.38885666  1
  V  V79  1  0.62211423  0.49521695  0.62529069  1
  V  V80  1  0.37182723  0.87901978  -0.00885493  1
  V  V81  1  0.62339551  0.76165979  0.36985042  1
  V  V82  1  0.62739872  0.37554830  0.24695025  1
  V  V83  1  -0.00119802  0.74756517  0.25532982  1
  V  V84  1  0.25472943  0.12362917  0.88160038  1
  Zn  Zn85  1  0.37429537  0.50218439  0.87327247  1
  Zn  Zn86  1  0.74997135  0.74912785  -0.00260347  1
  Zn  Zn87  1  0.75941258  0.37937355  0.11993552  1
  Zn  Zn88  1  0.50391374  0.25374111  0.74382612  1
  Zn  Zn89  1  0.62624907  0.62816477  -0.00447981  1
  Zn  Zn90  1  -0.00384499  0.49288945  0.00816887  1
  Zn  Zn91  1  0.88718051  0.11999689  0.24450295  1
  Zn  Zn92  1  0.50111738  0.25082950  0.24933766  1
  Zn  Zn93  1  0.24943511  0.62404485  0.87494594  1
  Zn  Zn94  1  0.49402515  0.87917900  0.86708086  1
  Zn  Zn95  1  0.24646769  0.87639689  0.12238165  1
  Zn  Zn96  1  0.76293165  0.87910364  0.61551451  1
  Zn  Zn97  1  0.24722155  0.75189650  0.00144825  1
  Zn  Zn98  1  0.12051915  0.13105141  0.00712920  1
  Zn  Zn99  1  0.31304299  0.81322043  0.57458039  1
  Zn  Zn100  1  -0.00694527  -0.00622107  0.51103406  1
  Zn  Zn101  1  0.37072529  0.62342857  0.24651460  1
  Zn  Zn102  1  0.00289885  0.24830009  0.74800670  1
  Zn  Zn103  1  0.75566743  0.25593296  0.49470497  1
  Zn  Zn104  1  0.45164474  0.68838896  0.59398706  1
  Zn  Zn105  1  0.11784257  0.00565882  0.13273542  1
  Zn  Zn106  1  0.24787117  0.25468774  0.00378957  1
  Zn  Zn107  1  0.18593348  0.18248662  0.18762350  1
  Zn  Zn108  1  0.18985722  0.18685896  0.68955431  1
  Zn  Zn109  1  0.18568329  0.68728842  0.18729157  1
  Zn  Zn110  1  0.19477635  0.68325632  0.68333464  1
  Zn  Zn111  1  0.69243547  0.18841783  0.18563509  1
  Zn  Zn112  1  0.69123211  0.18862462  0.68439323  1
  Zn  Zn113  1  0.68793564  0.68585268  0.18829079  1
  Zn  Zn114  1  0.64367426  0.70227574  0.66862622  1
  Zn  Zn115  1  0.30948715  0.30811419  0.31648486  1
  Zn  Zn116  1  0.31512123  0.31067624  0.81284095  1
  Zn  Zn117  1  0.31708258  0.81291890  0.30285596  1
  Zn  Zn118  1  0.31000825  0.80833536  0.81218033  1
  Zn  Zn119  1  0.81419461  0.31144620  0.30470858  1
  Zn  Zn120  1  0.81255299  0.31449415  0.80655023  1
  Zn  Zn121  1  0.81251680  0.81274510  0.31388417  1
  Zn  Zn122  1  0.81966494  0.81916703  0.78114595  1
  Zn  Zn123  1  0.18497716  0.43326266  0.43519219  1
  Zn  Zn124  1  0.18602835  0.43966347  0.93648769  1
  Zn  Zn125  1  0.19661539  0.97234651  0.44523577  1
  Zn  Zn126  1  0.18545327  0.93837275  0.93640620  1
  Zn  Zn127  1  0.68907651  0.43871626  0.43601192  1
  Zn  Zn128  1  0.68543454  0.43989821  0.93341964  1
  Zn  Zn129  1  0.68879587  0.93687680  0.43991776  1
  Zn  Zn130  1  0.68524599  0.93757480  0.93421934  1
  Zn  Zn131  1  0.31115375  0.06327134  0.06823692  1
  Zn  Zn132  1  0.32752376  0.02127761  0.58173084  1
  Zn  Zn133  1  0.31336014  0.56599421  0.06044723  1
  Zn  Zn134  1  0.30860682  0.56330303  0.56075123  1
  Zn  Zn135  1  0.81346814  0.06711298  0.06329108  1
  Zn  Zn136  1  0.81573017  0.07048832  0.56030413  1
  Zn  Zn137  1  0.81152728  0.56610934  0.05902929  1
  Zn  Zn138  1  0.81415417  0.56574459  0.56086725  1
  Zn  Zn139  1  0.43895573  0.43677669  0.18654297  1
  Zn  Zn140  1  0.43282481  0.44086484  0.68490037  1
  Zn  Zn141  1  0.43518226  0.94035388  0.18160855  1
  Zn  Zn142  1  0.43690395  0.93066509  0.68228199  1
  Zn  Zn143  1  0.94253649  0.42905449  0.19240220  1
  Zn  Zn144  1  0.93679437  0.43506799  0.68853059  1
  Zn  Zn145  1  0.93202238  0.93249651  0.19249856  1
  Zn  Zn146  1  0.93484279  0.93413429  0.68841580  1
  Zn  Zn147  1  0.06271300  0.06331463  0.31881390  1
  Zn  Zn148  1  0.06191384  0.06233813  0.82440340  1
  Zn  Zn149  1  0.05925766  0.55540078  0.31202053  1
  Zn  Zn150  1  0.06256442  0.55839127  0.81293829  1
  Zn  Zn151  1  0.56418694  0.06089047  0.31144284  1
  Zn  Zn152  1  0.56398555  0.06528839  0.81179787  1
  Zn  Zn153  1  0.56328264  0.56533781  0.31235057  1
  Zn  Zn154  1  0.56336496  0.56436235  0.80994227  1
  Zn  Zn155  1  0.44167930  0.18729528  0.43900067  1
  Zn  Zn156  1  0.43820044  0.19234518  0.93792429  1
  Zn  Zn157  1  0.42806010  0.69743440  0.42895345  1
  Zn  Zn158  1  0.43423733  0.68548335  0.93591002  1
  Zn  Zn159  1  0.93866766  0.18840139  0.43264978  1
  Zn  Zn160  1  0.93642550  0.19046972  0.93538138  1
  Zn  Zn161  1  0.93817593  0.68215064  0.43836271  1
  Zn  Zn162  1  0.93771087  0.68396836  0.93935382  1
  Zn  Zn163  1  0.06433978  0.31506659  0.06531434  1
  Zn  Zn164  1  0.06388513  0.31195118  0.56444450  1
  Zn  Zn165  1  0.05916600  0.81351305  0.06623041  1
  Zn  Zn166  1  0.10727022  0.79424854  0.58476404  1
  Zn  Zn167  1  0.56138664  0.31395670  0.05960084  1
  Zn  Zn168  1  0.56386762  0.31151741  0.56105574  1
  Zn  Zn169  1  0.56255793  0.81380125  0.05522517  1
  Zn  Zn170  1  0.57141681  0.81762580  0.56043305  1
  O  O171  1  0.13075328  0.11666309  0.11792193  1
  O  O172  1  0.11980184  0.12380076  0.62269877  1
  O  O173  1  0.11777229  0.61669614  0.12144269  1
  O  O174  1  0.11331833  0.62127959  0.61381902  1
  O  O175  1  0.61921709  0.12191104  0.12000832  1
  O  O176  1  0.61860459  0.13198695  0.61355211  1
  O  O177  1  0.61930115  0.61976855  0.11997797  1
  O  O178  1  0.63388008  0.60552733  0.60453305  1
  O  O179  1  0.37829225  0.38074233  0.37982249  1
  O  O180  1  0.38433386  0.37551808  0.88363517  1
  O  O181  1  0.37803531  0.88509814  0.37110551  1
  O  O182  1  0.37693530  0.86880404  0.88640975  1
  O  O183  1  0.86854943  0.38417611  0.37786235  1
  O  O184  1  0.88377907  0.38343450  0.86656331  1
  O  O185  1  0.88295221  0.88303275  0.37232106  1
  O  O186  1  0.87734143  0.87767833  0.88117927  1
  O  O187  1  0.26800866  0.00071073  0.36472563  1
  O  O188  1  0.24290098  0.01171743  0.86634293  1
  O  O189  1  0.25882462  0.50472024  0.37824221  1
  O  O190  1  0.25188582  0.50186746  0.86517522  1
  O  O191  1  0.75506733  0.00395733  0.36891281  1
  O  O192  1  0.75455555  0.01280585  0.87544978  1
  O  O193  1  0.76039081  0.50429291  0.36946256  1
  O  O194  1  0.75432387  0.50603974  0.86654094  1
  O  O195  1  0.24044898  0.50635128  0.12650325  1
  O  O196  1  0.25285644  0.48388154  0.62939191  1
  O  O197  1  0.25362877  0.99510029  0.14215135  1
  O  O198  1  0.23068136  1.01351223  0.64846756  1
  O  O199  1  0.74866227  0.49951185  0.13147391  1
  O  O200  1  0.74729232  0.49396280  0.62890931  1
  O  O201  1  0.74800586  0.99355366  0.13135416  1
  O  O202  1  0.75736375  1.00186407  0.63543720  1
  O  O203  1  0.01439579  0.35617431  0.24660635  1
  O  O204  1  0.01025011  0.37598745  0.75863640  1
  O  O205  1  0.00658030  0.86820180  0.25788489  1
  O  O206  1  0.00612985  0.86397080  0.75919548  1
  O  O207  1  0.51332175  0.37626700  0.25547081  1
  O  O208  1  0.49307544  0.37533835  0.76150978  1
  O  O209  1  0.50175548  0.86468513  0.23890176  1
  O  O210  1  0.51602362  0.88852913  0.75010353  1
  O  O211  1  0.49509786  0.12641660  0.24107378  1
  O  O212  1  0.49459950  0.12634002  0.74216849  1
  O  O213  1  0.50048415  0.62888950  0.23576051  1
  O  O214  1  0.48213022  0.61961292  0.75131142  1
  O  O215  1  1.00409782  0.13876692  0.25484245  1
  O  O216  1  0.98733266  0.12532374  0.75870174  1
  O  O217  1  1.00506922  0.63180905  0.24056026  1
  O  O218  1  0.99865348  0.62511153  0.74066490  1
  O  O219  1  0.37544752  0.25957189  0.00936595  1
  O  O220  1  0.36656667  0.25134784  0.50335168  1
  O  O221  1  0.37314861  0.75686555  0.00602267  1
  O  O222  1  0.38648501  0.74578435  0.51896756  1
  O  O223  1  0.86885733  0.24764698  0.00982882  1
  O  O224  1  0.87467151  0.24408705  0.51307069  1
  O  O225  1  0.87468045  0.75701044  0.00947773  1
  O  O226  1  0.85807979  0.74216053  0.49661794  1
  O  O227  1  0.12872805  0.24471938  0.49603759  1
  O  O228  1  0.12820192  0.25272303  0.98969352  1
  O  O229  1  0.11649245  0.73769767  0.48140587  1
  O  O230  1  0.12107855  0.74286125  0.99593556  1
  O  O231  1  0.62841578  0.24146633  0.49039279  1
  O  O232  1  0.63238176  0.24643880  0.99257531  1
  O  O233  1  0.63109382  0.74125198  0.48364043  1
  O  O234  1  0.63056593  0.75043174  0.98533334  1
  O  O235  1  0.49594261  0.23949302  0.12498171  1
  O  O236  1  0.49349790  0.24060122  0.62331269  1
  O  O237  1  0.49796258  0.74417133  0.12718192  1
  O  O238  1  0.54051396  0.74025910  0.63287918  1
  O  O239  1  0.99102154  0.24833935  0.12740376  1
  O  O240  1  0.98668784  0.25500785  0.62930828  1
  O  O241  1  0.99226622  0.74392775  0.13501982  1
  O  O242  1  1.01027455  0.74174493  0.63613683  1
  O  O243  1  0.01384820  0.24904597  0.36996226  1
  O  O244  1  0.00749253  0.25676199  0.87165768  1
  O  O245  1  -0.01121579  0.75327472  0.36192023  1
  O  O246  1  0.00802279  0.75057599  0.87053415  1
  O  O247  1  0.50794600  0.25838980  0.37236819  1
  O  O248  1  0.50955385  0.25924822  0.87328511  1
  O  O249  1  0.51439758  0.74368733  0.36304265  1
  O  O250  1  0.50994901  0.75073719  0.87494991  1
  O  O251  1  0.23959755  0.13230251  0.50921409  1
  O  O252  1  0.25402164  0.12602416  0.98954052  1
  O  O253  1  0.23335655  0.61560771  0.49060011  1
  O  O254  1  0.23539910  0.62764278  0.99902440  1
  O  O255  1  0.74386684  0.12700508  0.48708732  1
  O  O256  1  0.74537951  0.13637897  0.99392439  1
  O  O257  1  0.74397748  0.63037399  0.49014918  1
  O  O258  1  0.74715579  0.62733317  0.98504742  1
  O  O259  1  0.26535033  0.37733482  -0.00443118  1
  O  O260  1  0.25238562  0.36707358  0.50752591  1
  O  O261  1  0.25634498  0.87527798  0.00202079  1
  O  O262  1  0.22978716  0.86418750  0.48242821  1
  O  O263  1  0.74651170  0.36463451  -0.00191724  1
  O  O264  1  0.74875518  0.37567508  0.51180029  1
  O  O265  1  0.76054903  0.87536622  0.00426251  1
  O  O266  1  0.74749133  0.85888983  0.50088389  1
  O  O267  1  0.12141817  0.48373993  0.24507652  1
  O  O268  1  0.13687507  0.49076819  0.75287665  1
  O  O269  1  0.13280115  0.99099530  0.25701041  1
  O  O270  1  0.12602824  0.99566875  0.75313132  1
  O  O271  1  0.63258433  0.49459598  0.24482983  1
  O  O272  1  0.63366834  0.50719107  0.73736944  1
  O  O273  1  0.63857071  1.00375135  0.24269172  1
  O  O274  1  0.63374091  0.99595706  0.75327487  1
  O  O275  1  0.37311906  0.00567107  0.25847945  1
  O  O276  1  0.36718243  0.01307117  0.75033492  1
  O  O277  1  0.38233856  0.50117983  0.26291662  1
  O  O278  1  0.36218445  0.50298171  0.75151010  1
  O  O279  1  0.86484341  0.00213301  0.25817716  1
  O  O280  1  0.86686193  0.01088239  0.75813697  1
  O  O281  1  0.86981823  0.49253207  0.26262354  1
  O  O282  1  0.87071249  0.50704659  0.75739998  1
  O  O283  1  0.12738488  0.36606086  0.36109521  1
  O  O284  1  0.12086978  0.36962188  0.86630110  1
  O  O285  1  0.12073847  0.86627538  0.36889522  1
  O  O286  1  0.11626617  0.86725496  0.87109862  1
  O  O287  1  0.62320973  0.37051166  0.36718843  1
  O  O288  1  0.61478159  0.36775639  0.87832734  1
  O  O289  1  0.63013257  0.86006713  0.37310256  1
  O  O290  1  0.61689429  0.87018215  0.87074391  1
  O  O291  1  0.38313840  0.13238419  0.13396685  1
  O  O292  1  0.38250438  0.12476905  0.63144372  1
  O  O293  1  0.38269760  0.63589799  0.12400232  1
  O  O294  1  0.37228735  0.61690133  0.63924110  1
  O  O295  1  0.86729208  0.14310669  0.12985127  1
  O  O296  1  0.86937860  0.14058618  0.63424642  1
  O  O297  1  0.88306196  0.63352752  0.12061153  1
  O  O298  1  0.88874494  0.62023978  0.63227730  1
  O  O299  1  0.26359117  0.24615317  0.12323849  1
  O  O300  1  0.25595042  0.25682806  0.61954105  1
  O  O301  1  0.26012250  0.75251647  0.12431756  1
  O  O302  1  0.21696236  0.76499342  0.61421034  1
  O  O303  1  0.75676679  0.25513778  0.11545596  1
  O  O304  1  0.75826866  0.25951431  0.62242869  1
  O  O305  1  0.75586112  0.75519884  0.12385054  1
  O  O306  1  0.74005145  0.74202211  0.60719357  1
  O  O307  1  0.23771641  0.25145279  0.38749361  1
  O  O308  1  0.24324674  0.24405802  0.87758385  1
  O  O309  1  0.24894732  0.74365012  0.37219116  1
  O  O310  1  0.23322514  0.74696568  0.87772287  1
  O  O311  1  0.74754457  0.24266905  0.37329279  1
  O  O312  1  0.74512610  0.24876986  0.87945988  1
  O  O313  1  0.74196637  0.74211945  0.37634364  1
  O  O314  1  0.75321171  0.73992922  0.86847037  1
  O  O315  1  -0.00316159  0.10953814  -0.00608731  1
  O  O316  1  0.00646713  0.12073048  0.50018875  1
  O  O317  1  0.00873506  0.62241041  0.01291687  1
  O  O318  1  0.00664065  0.61590370  0.50392011  1
  O  O319  1  0.50321364  0.12148392  0.00721695  1
  O  O320  1  0.50906886  0.12063695  0.50536328  1
  O  O321  1  0.50106654  0.61816105  0.00856897  1
  O  O322  1  0.50635764  0.61752434  0.49578996  1
  O  O323  1  0.49246878  0.38015713  0.49334038  1
  O  O324  1  0.49329843  0.38341598  0.99229541  1
  O  O325  1  0.51289538  0.89221908  0.50072596  1
  O  O326  1  0.49163583  0.88640864  0.99842227  1
  O  O327  1  1.00083382  0.38563505  0.50240976  1
  O  O328  1  1.00508401  0.37580415  0.98497101  1
  O  O329  1  1.00957479  0.87230097  0.48851228  1
  O  O330  1  0.98701453  0.88038094  0.99835779  1
  O  O331  1  0.49475148  0.49608359  0.38373955  1
  O  O332  1  0.50072059  0.49475741  0.88228656  1
  O  O333  1  0.49015487  1.00253105  0.37755829  1
  O  O334  1  0.50131568  1.00467513  0.88887214  1
  O  O335  1  0.98522035  0.49962434  0.38257248  1
  O  O336  1  0.99035302  0.49310091  0.87723648  1
  O  O337  1  0.99172246  0.98894349  0.37764201  1
  O  O338  1  0.99002445  0.99183640  0.88513908  1
  O  O339  1  -0.00810002  -0.00466013  0.11271462  1
  O  O340  1  0.00683255  -0.00046495  0.62974469  1
  O  O341  1  0.00278839  0.50569618  0.12719828  1
  O  O342  1  -0.00604038  0.50237796  0.61013807  1
  O  O343  1  0.50494894  0.01167558  0.11882084  1
  O  O344  1  0.49889047  0.01303215  0.61338822  1
  O  O345  1  0.50486874  0.50759332  0.11820643  1
  O  O346  1  0.50632470  0.49238475  0.61090485  1
  O  O347  1  0.23719177  0.36832300  0.24906058  1
  O  O348  1  0.24597825  0.37923405  0.74407352  1
  O  O349  1  0.23934172  0.87986709  0.24969039  1
  O  O350  1  0.24024431  0.88601076  0.76307703  1
  O  O351  1  0.74108482  0.38586160  0.24825504  1
  O  O352  1  0.75238596  0.38940044  0.74010557  1
  O  O353  1  0.75410021  0.88293934  0.23997738  1
  O  O354  1  0.73404082  0.89598097  0.76869981  1
  O  O355  1  0.26151450  0.11652230  0.24904884  1
  O  O356  1  0.25789374  0.12260778  0.76246595  1
  O  O357  1  0.25007412  0.62766923  0.26185358  1
  O  O358  1  0.25382913  0.61504033  0.75067163  1
  O  O359  1  0.75016239  0.11812100  0.26037485  1
  O  O360  1  0.75485715  0.12038604  0.75610479  1
  O  O361  1  0.74652165  0.61118503  0.25611385  1
  O  O362  1  0.76112837  0.61386963  0.75324897  1
  O  O363  1  0.38226265  0.12530706  0.36206356  1
  O  O364  1  0.36899773  0.13280108  0.86726277  1
  O  O365  1  0.36491055  0.61675449  0.37221794  1
  O  O366  1  0.36961953  0.62368371  0.86333011  1
  O  O367  1  0.86784744  0.11763777  0.37112489  1
  O  O368  1  0.86719216  0.12450747  0.86751284  1
  O  O369  1  0.86325269  0.61569646  0.37563318  1
  O  O370  1  0.87004991  0.61532549  0.86974508  1
  O  O371  1  0.12492483  0.38269759  0.13544932  1
  O  O372  1  0.13314248  0.36628401  0.63936972  1
  O  O373  1  0.12346144  0.88309522  0.13441253  1
  O  O374  1  0.11844016  0.89120011  0.64599482  1
  O  O375  1  0.62633736  0.38177412  0.13180113  1
  O  O376  1  0.63273576  0.38623109  0.61986268  1
  O  O377  1  0.63885905  0.87962985  0.11583158  1
  O  O378  1  0.64049123  0.87863225  0.64043850  1
  O  O379  1  0.12454784  0.25367197  0.25724892  1
  O  O380  1  0.12538065  0.25609605  0.76137186  1
  O  O381  1  0.11449389  0.76076339  0.24470232  1
  O  O382  1  0.11851306  0.75551600  0.75917394  1
  O  O383  1  0.62674534  0.25934673  0.25393757  1
  O  O384  1  0.62526069  0.24717551  0.76163542  1
  O  O385  1  0.62083955  0.74453772  0.26158724  1
  O  O386  1  0.63804709  0.77178463  0.76137721  1
  O  O387  1  0.37802767  0.24488666  0.24502728  1
  O  O388  1  0.37702743  0.23877523  0.74203754  1
  O  O389  1  0.38700400  0.74727117  0.23996153  1
  O  O390  1  0.36917053  0.73692609  0.74530877  1
  O  O391  1  0.88522860  0.24680434  0.24214393  1
  O  O392  1  0.87615998  0.24260533  0.74166242  1
  O  O393  1  0.88089503  0.75439743  0.23764479  1
  O  O394  1  0.89020749  0.72862726  0.76274160  1
  O  O395  1  0.38080987  0.49555815  0.49194144  1
  O  O396  1  0.38582899  0.49605317  0.99978736  1
  O  O397  1  0.38536114  1.00967013  0.48008113  1
  O  O398  1  0.38316512  0.99138073  1.00874110  1
  O  O399  1  0.88467503  0.50230334  0.48831745  1
  O  O400  1  0.87482068  0.50057623  0.98716832  1
  O  O401  1  0.87495434  1.00216509  0.48910968  1
  O  O402  1  0.88016492  0.99416855  0.99667273  1
  O  O403  1  0.10460460  -0.00434508  -0.00028388  1
  O  O404  1  0.12133697  0.01140857  0.51689518  1
  O  O405  1  0.12199931  0.50516671  0.00987147  1
  O  O406  1  0.10773246  0.50145034  0.49228727  1
  O  O407  1  0.61860943  0.00788153  0.00648143  1
  O  O408  1  0.61925694  0.01497332  0.48920218  1
  O  O409  1  0.61489056  0.50166778  0.00464771  1
  O  O410  1  0.61540131  0.50391780  0.50007993  1
  O  O411  1  0.38466814  0.36504164  0.11672636  1
  O  O412  1  0.36809041  0.36644729  0.61806395  1
  O  O413  1  0.37528442  0.86456247  0.11537486  1
  O  O414  1  0.35398824  0.91119667  0.61390561  1
  O  O415  1  0.87442592  0.35700749  0.12986437  1
  O  O416  1  0.86755279  0.36125304  0.63042704  1
  O  O417  1  0.86490527  0.86776236  0.11789466  1
  O  O418  1  0.85654593  0.85812664  0.67374899  1
  O  O419  1  0.12573221  0.13079387  0.39122890  1
  O  O420  1  0.13263682  0.13464985  0.88215697  1
  O  O421  1  0.13060670  0.61628949  0.37921678  1
  O  O422  1  0.12093818  0.63013682  0.88522524  1
  O  O423  1  0.63232331  0.13247125  0.37752978  1
  O  O424  1  0.62955837  0.13545768  0.88111413  1
  O  O425  1  0.63604889  0.62417597  0.38259358  1
  O  O426  1  0.63284114  0.63661363  0.86959513  1
