# generated using pymatgen
data_V85Zn86O256
_symmetry_space_group_name_H-M   'P 1'
_cell_length_a   16.95678529
_cell_length_b   16.95992901
_cell_length_c   16.97033210
_cell_angle_alpha   90.06687912
_cell_angle_beta   90.02530039
_cell_angle_gamma   89.99794869
_symmetry_Int_Tables_number   1
_chemical_formula_structural   V85Zn86O256
_chemical_formula_sum   'V85 Zn86 O256'
_cell_volume   4880.42399850
_cell_formula_units_Z   1
loop_
 _symmetry_equiv_pos_site_id
 _symmetry_equiv_pos_as_xyz
  1  'x, y, z'
loop_
 _atom_site_type_symbol
 _atom_site_label
 _atom_site_symmetry_multiplicity
 _atom_site_fract_x
 _atom_site_fract_y
 _atom_site_fract_z
 _atom_site_occupancy
  V  V0  1  0.87422630  0.00011261  0.87361600  1
  V  V1  1  0.12558591  0.49749967  0.64381467  1
  V  V2  1  0.73781738  -0.00374028  0.75448368  1
  V  V3  1  0.12181687  0.87230132  0.25281313  1
  V  V4  1  0.49933879  0.62297244  0.11952047  1
  V  V5  1  -0.00235686  0.74652568  0.23575969  1
  V  V6  1  0.80624661  0.44489222  0.19178057  1
  V  V7  1  0.24654402  0.49567531  0.25042163  1
  V  V8  1  0.75027383  0.87301384  0.63228643  1
  V  V9  1  0.61841653  0.48782321  0.13168105  1
  V  V10  1  0.24837793  0.62238501  0.37625827  1
  V  V11  1  0.62040322  0.24893849  0.37025395  1
  V  V12  1  0.37114055  0.00923855  0.87639455  1
  V  V13  1  0.00264493  0.37255501  0.88348964  1
  V  V14  1  0.87343090  0.62927903  0.23620558  1
  V  V15  1  0.24467571  0.37601272  0.63334383  1
  V  V16  1  0.24958922  0.87449329  0.12712694  1
  V  V17  1  0.12945252  0.74317257  0.87137563  1
  V  V18  1  0.36820716  0.61330758  0.75070288  1
  V  V19  1  0.88119207  0.13306832  0.24579478  1
  V  V20  1  0.87697149  0.49427839  0.87952803  1
  V  V21  1  0.26002620  0.24364492  -0.00058377  1
  V  V22  1  0.38047535  0.24321687  0.62339004  1
  V  V23  1  0.74976900  0.62640413  0.87303773  1
  V  V24  1  0.87182264  -0.00320457  0.38622674  1
  V  V25  1  0.24020702  0.24856140  0.50117476  1
  V  V26  1  0.00253877  0.87900026  0.87199834  1
  V  V27  1  0.62221915  0.62321909  -0.00018569  1
  V  V28  1  0.12039725  0.36235482  0.25057231  1
  V  V29  1  0.50321627  -0.00617564  0.00256152  1
  V  V30  1  0.12403404  0.61967731  0.50015357  1
  V  V31  1  0.87817544  0.86452732  0.00372644  1
  V  V32  1  0.87213535  0.37521381  0.50481866  1
  V  V33  1  0.38356750  0.75257012  0.63307166  1
  V  V34  1  0.24978305  0.74962649  0.50031510  1
  V  V35  1  0.37440228  0.13041821  0.24431529  1
  V  V36  1  0.37419876  0.00078609  0.37442055  1
  V  V37  1  0.75020512  0.62210481  0.37207017  1
  V  V38  1  0.24316944  0.12636292  0.37788387  1
  V  V39  1  0.75202764  0.25895476  0.00873374  1
  V  V40  1  0.00021407  0.75447826  0.74534716  1
  V  V41  1  -0.00546602  0.87046744  0.38173124  1
  V  V42  1  0.10327120  0.49926490  0.12829016  1
  V  V43  1  0.62091459  0.24303262  0.87760313  1
  V  V44  1  0.37531330  0.62537174  0.25312004  1
  V  V45  1  0.49841144  0.25652732  0.24322379  1
  V  V46  1  0.50172877  0.87245611  0.85738898  1
  V  V47  1  -0.00282323  0.36521771  0.37342376  1
  V  V48  1  0.13427977  0.24294044  0.87400227  1
  V  V49  1  0.00054114  0.00783359  0.49938137  1
  V  V50  1  0.62668955  0.87369999  0.24970377  1
  V  V51  1  0.74359889  0.12390592  0.37496724  1
  V  V52  1  0.37660348  0.37864357  0.50160097  1
  V  V53  1  0.50045592  0.12538422  0.12073566  1
  V  V54  1  0.25023432  0.87864678  0.62340622  1
  V  V55  1  0.24686054  0.74885616  -0.00437764  1
  V  V56  1  0.62090133  0.75283309  0.86383348  1
  V  V57  1  0.37670578  0.87506490  0.49985398  1
  V  V58  1  0.50684047  0.01548645  0.50056178  1
  V  V59  1  0.50452046  0.37991923  0.37650698  1
  V  V60  1  -0.00001617  0.25407337  0.75172826  1
  V  V61  1  0.00096278  0.62305165  0.62530729  1
  V  V62  1  0.75745213  0.75501897  0.49837475  1
  V  V63  1  -0.00326536  0.00336677  0.00334512  1
  V  V64  1  0.61982906  0.61884693  0.49759519  1
  V  V65  1  0.62487791  0.74812010  0.37575392  1
  V  V66  1  0.87005205  0.49921860  0.37402901  1
  V  V67  1  0.37319707  0.12874063  0.75076352  1
  V  V68  1  0.50080485  0.87426127  0.37666180  1
  V  V69  1  0.75161114  0.50025919  0.74190363  1
  V  V70  1  0.12506954  0.88190844  0.74667723  1
  V  V71  1  0.75497695  0.86476782  0.12628125  1
  V  V72  1  0.50927281  0.23886000  0.74081693  1
  V  V73  1  0.73750945  0.24893329  0.50432389  1
  V  V74  1  0.37418210  0.75141093  0.12506582  1
  V  V75  1  0.12260278  0.00203558  0.12531600  1
  V  V76  1  0.87183366  0.24801212  0.62880302  1
  V  V77  1  0.88059685  0.62655862  0.74889148  1
  V  V78  1  0.37780330  0.49891124  0.37855826  1
  V  V79  1  0.59899045  0.40715357  0.77345428  1
  V  V80  1  0.75270650  -0.00036522  0.24756746  1
  V  V81  1  0.24974144  0.00069555  0.24999976  1
  V  V82  1  0.26066192  0.37006504  0.12092036  1
  V  V83  1  0.12599112  0.01137758  0.61967773  1
  V  V84  1  0.49805823  0.61814502  0.62386710  1
  Zn  Zn85  1  0.50054953  0.74984362  0.24896770  1
  Zn  Zn86  1  0.62676480  -0.00177645  0.12487147  1
  Zn  Zn87  1  -0.00120571  0.13812033  0.12650684  1
  Zn  Zn88  1  0.87862536  0.75264730  0.61776607  1
  Zn  Zn89  1  0.75123721  0.12295373  0.88020679  1
  Zn  Zn90  1  0.24730588  0.00787047  0.75517844  1
  Zn  Zn91  1  0.61818765  0.00453354  0.62694668  1
  Zn  Zn92  1  0.28932459  0.43190754  0.81560819  1
  Zn  Zn93  1  0.11426683  0.24086531  0.37822638  1
  Zn  Zn94  1  0.61832732  0.49550981  0.61569127  1
  Zn  Zn95  1  0.62993999  0.12343681  0.00522529  1
  Zn  Zn96  1  0.86992023  0.37674050  0.00973747  1
  Zn  Zn97  1  0.73961382  0.37290538  0.63219575  1
  Zn  Zn98  1  0.87436619  0.12305252  0.75116182  1
  Zn  Zn99  1  0.11469987  0.62036760  0.01530558  1
  Zn  Zn100  1  0.75240974  0.74862220  0.00039134  1
  Zn  Zn101  1  0.28328469  0.58056055  0.90792959  1
  Zn  Zn102  1  0.37527936  0.87273050  -0.00463105  1
  Zn  Zn103  1  0.12589681  0.12356869  -0.00233728  1
  Zn  Zn104  1  0.12086650  0.74553671  0.37406258  1
  Zn  Zn105  1  0.00009463  0.49762811  0.50040574  1
  Zn  Zn106  1  0.00077699  0.12867339  0.62222724  1
  Zn  Zn107  1  0.18727019  0.18786677  0.18372243  1
  Zn  Zn108  1  0.19066647  0.19232944  0.69292984  1
  Zn  Zn109  1  0.18427574  0.68412012  0.18788002  1
  Zn  Zn110  1  0.18733886  0.69040142  0.68698652  1
  Zn  Zn111  1  0.68421194  0.18998555  0.18784848  1
  Zn  Zn112  1  0.68728372  0.17693149  0.68958868  1
  Zn  Zn113  1  0.68731221  0.68502113  0.18841474  1
  Zn  Zn114  1  0.68638477  0.68619401  0.68394041  1
  Zn  Zn115  1  0.31261108  0.31136738  0.31389768  1
  Zn  Zn116  1  0.41930733  0.44986480  0.95843532  1
  Zn  Zn117  1  0.31088676  0.81063723  0.31390235  1
  Zn  Zn118  1  0.31377344  0.81949308  0.81073615  1
  Zn  Zn119  1  0.80911948  0.30942407  0.31954422  1
  Zn  Zn120  1  0.80407427  0.31270879  0.81700812  1
  Zn  Zn121  1  0.81523464  0.80941439  0.31267399  1
  Zn  Zn122  1  0.81309379  0.81260409  0.81235482  1
  Zn  Zn123  1  0.18599570  0.43384149  0.43999987  1
  Zn  Zn124  1  0.17707018  0.42981009  0.94957602  1
  Zn  Zn125  1  0.18353017  0.93803563  0.43745725  1
  Zn  Zn126  1  0.18883607  0.93577813  0.93910012  1
  Zn  Zn127  1  0.68822900  0.43542675  0.43449054  1
  Zn  Zn128  1  0.66718579  0.44076318  0.93202625  1
  Zn  Zn129  1  0.68775489  0.93457015  0.44109534  1
  Zn  Zn130  1  0.68626978  0.93315804  0.93971557  1
  Zn  Zn131  1  0.31490638  0.06471318  0.06044045  1
  Zn  Zn132  1  0.31412782  0.06359652  0.56037722  1
  Zn  Zn133  1  0.30478711  0.56469219  0.07339062  1
  Zn  Zn134  1  0.30999271  0.56016128  0.56770314  1
  Zn  Zn135  1  0.81031510  0.06226787  0.06251341  1
  Zn  Zn136  1  0.77838297  0.07795777  0.57740928  1
  Zn  Zn137  1  0.80896957  0.56333890  0.05598222  1
  Zn  Zn138  1  0.81143667  0.56578040  0.55951894  1
  Zn  Zn139  1  0.43943726  0.43962679  0.18862665  1
  Zn  Zn140  1  0.43383124  0.43424922  0.68881450  1
  Zn  Zn141  1  0.43769834  0.93765384  0.18888911  1
  Zn  Zn142  1  0.43736129  0.94498296  0.68446695  1
  Zn  Zn143  1  0.93871323  0.31076308  0.18718277  1
  Zn  Zn144  1  0.93997078  0.43601315  0.69085950  1
  Zn  Zn145  1  0.93538294  0.93710213  0.19028461  1
  Zn  Zn146  1  0.93089387  0.93823563  0.68081033  1
  Zn  Zn147  1  0.06013477  0.05938324  0.31298869  1
  Zn  Zn148  1  0.05790368  0.06838459  0.80971694  1
  Zn  Zn149  1  0.05534438  0.55665585  0.30961969  1
  Zn  Zn150  1  0.07667175  0.55944095  0.84254386  1
  Zn  Zn151  1  0.56237933  0.06330396  0.31138198  1
  Zn  Zn152  1  0.55723756  0.06479545  0.81593951  1
  Zn  Zn153  1  0.56190738  0.56102511  0.30757830  1
  Zn  Zn154  1  0.56034813  0.57521861  0.80455595  1
  Zn  Zn155  1  0.43042987  0.19199067  0.43309375  1
  Zn  Zn156  1  0.42670595  0.29881088  0.91121325  1
  Zn  Zn157  1  0.43773301  0.68852224  0.44107344  1
  Zn  Zn158  1  0.43560066  0.68481438  0.93662833  1
  Zn  Zn159  1  0.92693776  0.18492982  0.43970244  1
  Zn  Zn160  1  0.93349915  0.18996944  0.94305505  1
  Zn  Zn161  1  0.93855604  0.68388615  0.43282180  1
  Zn  Zn162  1  0.94611216  0.68435357  0.93146669  1
  Zn  Zn163  1  0.06811414  0.31415526  0.05836736  1
  Zn  Zn164  1  0.05985719  0.31434323  0.56408590  1
  Zn  Zn165  1  0.06425302  0.81588834  0.06014609  1
  Zn  Zn166  1  0.06329536  0.81466688  0.56007136  1
  Zn  Zn167  1  0.55175521  0.31388477  0.05580112  1
  Zn  Zn168  1  0.56173348  0.31860029  0.56584983  1
  Zn  Zn169  1  0.56524944  0.80959708  0.05989608  1
  Zn  Zn170  1  0.56786433  0.81281919  0.56461750  1
  O  O171  1  0.12071504  0.11072893  0.12860444  1
  O  O172  1  0.12536000  0.11402775  0.63103619  1
  O  O173  1  0.12156098  0.60732933  0.13232196  1
  O  O174  1  0.12130389  0.61836354  0.61858905  1
  O  O175  1  0.61481817  0.11826476  0.12834523  1
  O  O176  1  0.66745727  0.10552629  0.60757913  1
  O  O177  1  0.61569507  0.62440143  0.11880093  1
  O  O178  1  0.61507693  0.62631295  0.61419804  1
  O  O179  1  0.38175000  0.37838014  0.38286373  1
  O  O180  1  0.37388047  0.38826211  0.87065879  1
  O  O181  1  0.38218187  0.87907662  0.37860503  1
  O  O182  1  0.38863104  0.88292614  0.87470299  1
  O  O183  1  0.87775422  0.37882567  0.38300922  1
  O  O184  1  0.88046751  0.38079113  0.87431619  1
  O  O185  1  0.88277625  0.88419760  0.36965759  1
  O  O186  1  0.88203318  0.88265614  0.88168813  1
  O  O187  1  0.25422840  0.00626494  0.37079140  1
  O  O188  1  0.26700235  -0.00691567  0.87548923  1
  O  O189  1  0.25419036  0.50032940  0.36590689  1
  O  O190  1  0.21515298  0.49985722  0.87029342  1
  O  O191  1  0.75405134  0.00565370  0.37155124  1
  O  O192  1  0.75716154  -0.00628580  0.86987497  1
  O  O193  1  0.76149885  0.50431288  0.37811615  1
  O  O194  1  0.75298820  0.51257999  0.86571194  1
  O  O195  1  0.24672276  0.48977091  0.13884540  1
  O  O196  1  0.23868760  0.48904976  0.62228322  1
  O  O197  1  0.24374433  0.99476659  0.12982847  1
  O  O198  1  0.24282281  0.99519782  0.62264995  1
  O  O199  1  0.74268455  0.49695897  0.12738073  1
  O  O200  1  0.75467451  0.49813618  0.63280809  1
  O  O201  1  0.74963972  0.98944397  0.13410996  1
  O  O202  1  0.76224391  0.98380018  0.64148098  1
  O  O203  1  0.00740448  0.37036353  0.26171129  1
  O  O204  1  -0.00584502  0.35974535  0.75930563  1
  O  O205  1  0.00214138  0.86722377  0.25848109  1
  O  O206  1  0.00637930  0.87465987  0.75000792  1
  O  O207  1  0.49151953  0.36437179  0.25976618  1
  O  O208  1  0.50703388  0.36383874  0.74547835  1
  O  O209  1  0.50477575  0.87523885  0.26217809  1
  O  O210  1  0.50059912  0.87978319  0.75928936  1
  O  O211  1  0.49249624  0.13015436  0.24331930  1
  O  O212  1  0.49098108  0.12811285  0.74563259  1
  O  O213  1  0.49279102  0.62764407  0.23876506  1
  O  O214  1  0.48409987  0.62709122  0.73763934  1
  O  O215  1  0.98386567  0.12004704  0.25164592  1
  O  O216  1  0.99207322  0.13717570  0.74530813  1
  O  O217  1  0.98406009  0.63261515  0.25611390  1
  O  O218  1  0.99156680  0.63235935  0.74577756  1
  O  O219  1  0.35766862  0.24092893  -0.01150855  1
  O  O220  1  0.36698640  0.25812271  0.50547279  1
  O  O221  1  0.36512664  0.74973923  0.00802199  1
  O  O222  1  0.36755538  0.75695317  0.50600021  1
  O  O223  1  0.85771939  0.25529267  -0.00049912  1
  O  O224  1  0.86419629  0.25823796  0.50680302  1
  O  O225  1  0.88090625  0.76112281  -0.00950490  1
  O  O226  1  0.86116446  0.73963230  0.49873562  1
  O  O227  1  0.13633662  0.25303789  0.49886171  1
  O  O228  1  0.13007092  0.24535388  0.98905669  1
  O  O229  1  0.13151372  0.73778293  0.49991434  1
  O  O230  1  0.12982381  0.75284978  0.98855476  1
  O  O231  1  0.63371120  0.25602497  0.49279110  1
  O  O232  1  0.62627543  0.24697067  0.98797125  1
  O  O233  1  0.63328473  0.74107035  0.49228119  1
  O  O234  1  0.62828698  0.73929934  0.99174246  1
  O  O235  1  0.50587240  0.24085894  0.13589907  1
  O  O236  1  0.49255670  0.24996769  0.62797553  1
  O  O237  1  0.49022693  0.74454021  0.12612371  1
  O  O238  1  0.49074766  0.74235602  0.61541186  1
  O  O239  1  1.00450346  0.25015562  0.12315331  1
  O  O240  1  0.99196458  0.24970953  0.63192155  1
  O  O241  1  1.00453799  0.75462384  0.13624221  1
  O  O242  1  1.00024683  0.74417792  0.62861510  1
  O  O243  1  -0.00298923  0.25972838  0.38478531  1
  O  O244  1  0.00093436  0.25558683  0.87080082  1
  O  O245  1  -0.00019391  0.75774351  0.36876604  1
  O  O246  1  0.01132851  0.76196115  0.86267803  1
  O  O247  1  0.50465579  0.25574943  0.36808077  1
  O  O248  1  0.51418030  0.24402960  0.85911473  1
  O  O249  1  0.50490974  0.75793422  0.37370614  1
  O  O250  1  0.50412674  0.76567873  0.87961685  1
  O  O251  1  0.25725010  0.13436432  0.48833314  1
  O  O252  1  0.24411887  0.13939891  1.01042126  1
  O  O253  1  0.24390064  0.62910476  0.49621009  1
  O  O254  1  0.23596712  0.63858865  1.00274446  1
  O  O255  1  0.76219909  0.13850204  0.48029819  1
  O  O256  1  0.74814939  0.13368563  0.99990977  1
  O  O257  1  0.74237509  0.63293212  0.49197664  1
  O  O258  1  0.74435729  0.62983656  0.98902527  1
  O  O259  1  0.24686683  0.36370009  0.01454403  1
  O  O260  1  0.25730582  0.36545487  0.50357799  1
  O  O261  1  0.25245442  0.86830948  0.01162036  1
  O  O262  1  0.25488453  0.87021196  0.50297495  1
  O  O263  1  0.74584913  0.36238791  -0.00887713  1
  O  O264  1  0.75755252  0.36665695  0.50148431  1
  O  O265  1  0.76013181  0.87156726  0.00802905  1
  O  O266  1  0.74889433  0.86351948  0.50670092  1
  O  O267  1  0.13065252  0.48900237  0.24835183  1
  O  O268  1  0.11441703  0.50665347  0.74086417  1
  O  O269  1  0.12897267  0.99288585  0.24424588  1
  O  O270  1  0.12478276  0.99516113  0.74394746  1
  O  O271  1  0.62533450  0.50445015  0.23075049  1
  O  O272  1  0.63673578  0.50979117  0.73403546  1
  O  O273  1  0.63886742  0.99298946  0.25376852  1
  O  O274  1  0.63486365  1.00300636  0.75126465  1
  O  O275  1  0.36808284  0.00528927  0.25628060  1
  O  O276  1  0.37498571  0.00679507  0.75879969  1
  O  O277  1  0.36620069  0.50580644  0.25668552  1
  O  O278  1  0.37037144  0.50952402  0.75029968  1
  O  O279  1  0.86439974  0.00474775  0.25936311  1
  O  O280  1  0.87072211  -0.00303572  0.76140168  1
  O  O281  1  0.86597043  0.50769869  0.25445586  1
  O  O282  1  0.87018802  0.50787758  0.75702958  1
  O  O283  1  0.11372254  0.37358884  0.36975293  1
  O  O284  1  0.10817515  0.36009191  0.88075680  1
  O  O285  1  0.11534912  0.87301018  0.36785579  1
  O  O286  1  0.12109620  0.87478874  0.86386715  1
  O  O287  1  0.61233928  0.36768502  0.37967529  1
  O  O288  1  0.63758145  0.34989138  0.86152977  1
  O  O289  1  0.61857255  0.86881225  0.37054413  1
  O  O290  1  0.61051339  0.86787554  0.87973831  1
  O  O291  1  0.38203758  0.11867940  0.13798431  1
  O  O292  1  0.37117942  0.13713543  0.62895041  1
  O  O293  1  0.37936356  0.63514905  0.13212104  1
  O  O294  1  0.38202351  0.63333891  0.62573876  1
  O  O295  1  0.87519133  0.11633782  0.14345258  1
  O  O296  1  0.87152266  0.13967854  0.62322974  1
  O  O297  1  0.86873176  0.61935335  0.13747419  1
  O  O298  1  0.88065333  0.62707745  0.63377027  1
  O  O299  1  0.24667459  0.26105236  0.11538824  1
  O  O300  1  0.25545088  0.25460460  0.61678589  1
  O  O301  1  0.25406013  0.75361710  0.11994163  1
  O  O302  1  0.25539265  0.75919964  0.61548062  1
  O  O303  1  0.73657159  0.25183801  0.10767574  1
  O  O304  1  0.75404796  0.25386114  0.61888211  1
  O  O305  1  0.74793248  0.76122765  0.12359859  1
  O  O306  1  0.74920016  0.75725726  0.61743217  1
  O  O307  1  0.24907641  0.24211690  0.38375862  1
  O  O308  1  0.23483300  0.25510475  0.88680671  1
  O  O309  1  0.24711009  0.74247163  0.38407662  1
  O  O310  1  0.24472698  0.76836326  0.88866069  1
  O  O311  1  0.73795242  0.24449426  0.38006692  1
  O  O312  1  0.73889244  0.24165303  0.88150593  1
  O  O313  1  0.74453066  0.74559892  0.38139103  1
  O  O314  1  0.74429397  0.74009518  0.87426316  1
  O  O315  1  -0.00217682  0.11203387  0.00495807  1
  O  O316  1  -0.00402327  0.11237088  0.49921851  1
  O  O317  1  0.03401897  0.61778100  -0.06163403  1
  O  O318  1  0.00801155  0.62303354  0.50528596  1
  O  O319  1  0.50004194  0.11171638  0.01663141  1
  O  O320  1  0.49293677  0.11313439  0.48988659  1
  O  O321  1  0.50694445  0.63184531  0.01119410  1
  O  O322  1  0.50975987  0.62765759  0.50570403  1
  O  O323  1  0.48831543  0.37009694  0.49006475  1
  O  O324  1  0.48465790  0.36605859  0.98720899  1
  O  O325  1  0.49677448  0.87753840  0.48811770  1
  O  O326  1  0.49632537  0.88534779  1.00252924  1
  O  O327  1  0.98603381  0.37621606  0.49576198  1
  O  O328  1  0.99033922  0.36978721  0.98595051  1
  O  O329  1  1.00304003  0.88324405  0.48731186  1
  O  O330  1  0.99577300  0.88480693  0.99478520  1
  O  O331  1  0.49298362  0.48999391  0.36813923  1
  O  O332  1  0.56417902  0.47276336  0.85436125  1
  O  O333  1  0.49362217  0.99356993  0.37938234  1
  O  O334  1  0.49451299  0.98949486  0.88282539  1
  O  O335  1  0.98518991  0.48880634  0.37615258  1
  O  O336  1  0.99157934  0.47819293  0.86335191  1
  O  O337  1  0.99252951  0.99289004  0.38073435  1
  O  O338  1  0.99515644  0.99646783  0.88227638  1
  O  O339  1  0.00701291  -0.00243158  0.11881101  1
  O  O340  1  0.00533356  0.00157844  0.61530207  1
  O  O341  1  0.00855366  0.49330855  0.13706435  1
  O  O342  1  0.00577076  0.50542036  0.62247412  1
  O  O343  1  0.50122432  0.00353037  0.11995418  1
  O  O344  1  0.50144889  -0.00214360  0.60571125  1
  O  O345  1  0.50724163  0.50927046  0.12547564  1
  O  O346  1  0.49532414  0.51364463  0.62436188  1
  O  O347  1  0.24416032  0.37832891  0.24506847  1
  O  O348  1  0.24745964  0.36644917  0.73179000  1
  O  O349  1  0.24297679  0.87998474  0.24716246  1
  O  O350  1  0.24164465  0.88203914  0.74113713  1
  O  O351  1  0.75505562  0.38254785  0.24914520  1
  O  O352  1  0.74264718  0.39218012  0.75378816  1
  O  O353  1  0.74968796  0.88053623  0.24456210  1
  O  O354  1  0.74843125  0.87653070  0.74127858  1
  O  O355  1  0.25709429  0.12101474  0.25311106  1
  O  O356  1  0.26677233  0.12541896  0.74846202  1
  O  O357  1  0.25364170  0.61566194  0.25676095  1
  O  O358  1  0.27101951  0.62742590  0.73077987  1
  O  O359  1  0.75548304  0.11885753  0.25670015  1
  O  O360  1  0.75742417  0.10997098  0.75907694  1
  O  O361  1  0.76316782  0.63320898  0.25844998  1
  O  O362  1  0.75915001  0.62048081  0.75265737  1
  O  O363  1  0.36514158  0.12009243  0.36379668  1
  O  O364  1  0.38270401  0.10906115  0.86678808  1
  O  O365  1  0.36900276  0.61950086  0.37344555  1
  O  O366  1  0.36962329  0.63983353  0.85306581  1
  O  O367  1  0.86688652  0.11702024  0.36302980  1
  O  O368  1  0.87604831  0.10850167  0.87934777  1
  O  O369  1  0.87043612  0.61444593  0.36792090  1
  O  O370  1  0.86791157  0.62050039  0.86499630  1
  O  O371  1  0.13269964  0.38184145  0.13598575  1
  O  O372  1  0.13151603  0.38643658  0.61777481  1
  O  O373  1  0.12881100  0.88481873  0.13180275  1
  O  O374  1  0.12899047  0.88587429  0.62965883  1
  O  O375  1  0.61401660  0.38964157  0.12064472  1
  O  O376  1  0.62241408  0.38164686  0.63930664  1
  O  O377  1  0.63311528  0.87529984  0.13283901  1
  O  O378  1  0.64266248  0.88359833  0.61709450  1
  O  O379  1  0.13229420  0.25976209  0.25662577  1
  O  O380  1  0.11680072  0.24592201  0.76463213  1
  O  O381  1  0.11715946  0.75433717  0.25249358  1
  O  O382  1  0.12129095  0.76787562  0.74665555  1
  O  O383  1  0.61484537  0.24838102  0.26222246  1
  O  O384  1  0.61788374  0.23905014  0.75461038  1
  O  O385  1  0.62366803  0.75566615  0.25819756  1
  O  O386  1  0.62484476  0.74027012  0.76465107  1
  O  O387  1  0.38406484  0.24017861  0.25561974  1
  O  O388  1  0.39087196  0.24094991  0.73950795  1
  O  O389  1  0.37394985  0.74298600  0.24297431  1
  O  O390  1  0.37061682  0.75307283  0.73439269  1
  O  O391  1  0.87060136  0.23716940  0.25280641  1
  O  O392  1  0.87663951  0.25015274  0.74332200  1
  O  O393  1  0.88175619  0.73745779  0.25005171  1
  O  O394  1  0.88255079  0.74221566  0.74965372  1
  O  O395  1  0.36685501  0.48666154  0.49488700  1
  O  O396  1  0.36460077  0.54027701  0.98306615  1
  O  O397  1  0.38314557  0.99333844  0.49306598  1
  O  O398  1  0.38144883  0.99892986  0.98975187  1
  O  O399  1  0.87437747  0.49214002  0.49270340  1
  O  O400  1  0.86919879  0.49859306  0.98309359  1
  O  O401  1  0.87872090  1.00400829  0.48763053  1
  O  O402  1  0.88128394  0.98952101  0.99571871  1
  O  O403  1  0.11731257  0.00010759  0.00767607  1
  O  O404  1  0.11457201  -0.00208273  0.50804021  1
  O  O405  1  0.12081825  0.49554074  0.02474284  1
  O  O406  1  0.12389568  0.51102592  0.50275405  1
  O  O407  1  0.61659063  0.00106921  0.00233449  1
  O  O408  1  0.60772688  -0.00018637  0.49048950  1
  O  O409  1  0.63191766  0.51645811  0.01317750  1
  O  O410  1  0.63209189  0.51406420  0.49906271  1
  O  O411  1  0.35908265  0.37885188  0.13066901  1
  O  O412  1  0.36841517  0.36639941  0.61775252  1
  O  O413  1  0.37046461  0.86259182  0.12799867  1
  O  O414  1  0.37198503  0.87096571  0.61879715  1
  O  O415  1  0.86777574  0.38751284  0.13200661  1
  O  O416  1  0.87238528  0.36647413  0.61911618  1
  O  O417  1  0.86801385  0.87833142  0.11596819  1
  O  O418  1  0.85899830  0.86746434  0.62447633  1
  O  O419  1  0.13830452  0.12399896  0.36725367  1
  O  O420  1  0.12055790  0.13803842  0.87792993  1
  O  O421  1  0.12935695  0.62188579  0.38200999  1
  O  O422  1  0.15171360  0.65120826  0.83929794  1
  O  O423  1  0.63251315  0.13387098  0.37083020  1
  O  O424  1  0.62587943  0.13224717  0.88017922  1
  O  O425  1  0.62843835  0.62870468  0.37808395  1
  O  O426  1  0.63000760  0.63206751  0.88166668  1
