# generated using pymatgen
data_V85Zn86O256
_symmetry_space_group_name_H-M   'P 1'
_cell_length_a   16.94340373
_cell_length_b   16.92798646
_cell_length_c   16.93896450
_cell_angle_alpha   90.02790156
_cell_angle_beta   89.99616175
_cell_angle_gamma   89.98810840
_symmetry_Int_Tables_number   1
_chemical_formula_structural   V85Zn86O256
_chemical_formula_sum   'V85 Zn86 O256'
_cell_volume   4858.39429675
_cell_formula_units_Z   1
loop_
 _symmetry_equiv_pos_site_id
 _symmetry_equiv_pos_as_xyz
  1  'x, y, z'
loop_
 _atom_site_type_symbol
 _atom_site_label
 _atom_site_symmetry_multiplicity
 _atom_site_fract_x
 _atom_site_fract_y
 _atom_site_fract_z
 _atom_site_occupancy
  V  V0  1  0.37525034  0.50214855  0.87498012  1
  V  V1  1  0.25647239  0.11760567  0.37435110  1
  V  V2  1  0.13522227  0.75371730  0.87945561  1
  V  V3  1  0.62760331  0.00320378  0.11577034  1
  V  V4  1  0.75170242  0.00077025  0.74971460  1
  V  V5  1  0.75214721  0.36737048  0.12485068  1
  V  V6  1  0.50593213  0.62654767  0.12402377  1
  V  V7  1  0.44926298  0.05745284  0.05987136  1
  V  V8  1  0.49150677  0.12062313  0.62450581  1
  V  V9  1  0.24991699  0.87803283  0.62386978  1
  V  V10  1  0.74822240  0.49611563  0.25261629  1
  V  V11  1  0.87543227  0.49766213  0.37190186  1
  V  V12  1  0.12262060  0.37094411  0.75390851  1
  V  V13  1  0.63002391  0.25116866  0.87890418  1
  V  V14  1  0.25116767  0.24782021  0.49789639  1
  V  V15  1  -0.00662801  0.87347961  0.88570469  1
  V  V16  1  0.88107463  -0.01684913  0.37975533  1
  V  V17  1  0.75068267  0.12781883  0.88236350  1
  V  V18  1  0.65023226  0.51719013  0.09805714  1
  V  V19  1  0.25446467  0.36693349  0.12820366  1
  V  V20  1  0.50030968  0.75499400  0.25626887  1
  V  V21  1  0.24355272  0.13017983  0.87020077  1
  V  V22  1  0.88222121  0.12405323  0.74845581  1
  V  V23  1  0.62369090  0.12398077  0.50115820  1
  V  V24  1  0.36918276  0.74699242  0.12201973  1
  V  V25  1  0.62646606  0.87356166  0.74782013  1
  V  V26  1  0.38092418  0.00827401  0.86733393  1
  V  V27  1  0.75127697  0.51663394  0.75116668  1
  V  V28  1  0.11239332  0.75251283  0.37048651  1
  V  V29  1  0.24795057  0.75216713  0.49837179  1
  V  V30  1  0.00143871  0.50296097  0.00226161  1
  V  V31  1  0.88549686  0.12073684  0.24829695  1
  V  V32  1  0.25262750  0.00752378  0.74801307  1
  V  V33  1  -0.00416968  0.73761670  0.74806315  1
  V  V34  1  0.49757744  0.24585100  0.23369782  1
  V  V35  1  0.74947965  0.24831204  0.50125697  1
  V  V36  1  0.12723463  0.49981295  0.12687360  1
  V  V37  1  0.49611135  0.24559362  0.74813527  1
  V  V38  1  0.75328382  0.12306975  0.37499433  1
  V  V39  1  0.86925453  0.51432508  0.87576685  1
  V  V40  1  0.24953800  0.50385119  0.75278614  1
  V  V41  1  0.87869388  0.75296842  0.11049274  1
  V  V42  1  0.37768445  0.61722323  0.25545966  1
  V  V43  1  0.25703255  -0.00729150  0.25164497  1
  V  V44  1  0.75116230  0.37424708  0.62890474  1
  V  V45  1  0.74837589  0.86638181  0.11089547  1
  V  V46  1  0.76835406  0.86954857  0.62282711  1
  V  V47  1  0.63589328  0.73833224  0.88567948  1
  V  V48  1  0.87486201  -0.00602469  0.88876172  1
  V  V49  1  0.37492560  0.36674105  0.00346110  1
  V  V50  1  0.12045848  0.62858399  0.50255741  1
  V  V51  1  0.37463301  0.38291985  0.49377169  1
  V  V52  1  0.37072449  0.87034109  0.00020836  1
  V  V53  1  -0.00312275  -0.00739058  0.50413583  1
  V  V54  1  0.12515564  0.50480791  0.62575723  1
  V  V55  1  0.25168808  0.61879158  0.37543644  1
  V  V56  1  0.88472372  0.24761063  0.62603920  1
  V  V57  1  0.12589890  0.37239831  0.25036444  1
  V  V58  1  0.37797300  0.87759935  0.48335864  1
  V  V59  1  0.37418322  0.75416046  0.62469322  1
  V  V60  1  0.00157952  0.50073192  0.49987942  1
  V  V61  1  0.13494866  0.63126833  0.00465482  1
  V  V62  1  0.49788868  -0.00317220  0.48192963  1
  V  V63  1  0.50303283  0.87953759  0.88160499  1
  V  V64  1  0.74763341  0.62593446  0.37693403  1
  V  V65  1  0.49912589  0.75248268  0.75156299  1
  V  V66  1  0.88096911  0.24316141  0.12166726  1
  V  V67  1  0.49928968  0.50330777  0.00071286  1
  V  V68  1  0.00025606  0.36861907  0.37375304  1
  V  V69  1  0.49774130  0.62519414  0.62401905  1
  V  V70  1  0.88154072  0.63505343  0.25132635  1
  V  V71  1  0.50237158  0.37539252  0.87234383  1
  V  V72  1  0.25300702  0.37446831  0.62509118  1
  V  V73  1  0.87042125  0.37128794  -0.00213772  1
  V  V74  1  -0.00014110  0.37220850  0.87094535  1
  V  V75  1  0.62441390  0.75916502  0.37967732  1
  V  V76  1  0.11152695  0.87313056  0.25253491  1
  V  V77  1  0.49927194  0.37832256  0.37037639  1
  V  V78  1  0.11833204  0.01191849  0.62755836  1
  V  V79  1  0.62193045  0.49912004  0.62334371  1
  V  V80  1  0.12187847  0.87896924  0.74989469  1
  V  V81  1  0.74970052  -0.00547955  0.24890718  1
  V  V82  1  0.11223892  0.00325301  0.12153918  1
  V  V83  1  0.87544449  0.37211597  0.50015705  1
  V  V84  1  0.23872719  0.25204284  -0.00488285  1
  Zn  Zn85  1  0.00590803  0.24572945  0.74916553  1
  Zn  Zn86  1  0.11845896  0.12616754  0.49897568  1
  Zn  Zn87  1  -0.09274711  0.69119355  0.61360169  1
  Zn  Zn88  1  0.00402877  0.24304657  0.24488415  1
  Zn  Zn89  1  0.62398408  0.37509162  0.24551004  1
  Zn  Zn90  1  0.62380292  0.25164910  0.37060660  1
  Zn  Zn91  1  0.62344247  0.13108602  0.00492393  1
  Zn  Zn92  1  0.62058843  0.87851998  0.25220759  1
  Zn  Zn93  1  0.49571147  0.50362153  0.49101851  1
  Zn  Zn94  1  0.62560429  0.37422758  0.74888415  1
  Zn  Zn95  1  0.12601904  0.24534300  0.37369858  1
  Zn  Zn96  1  0.76191356  0.75459030  0.50227844  1
  Zn  Zn97  1  0.25612881  0.63251031  0.88300007  1
  Zn  Zn98  1  0.00627303  0.63465287  0.13240740  1
  Zn  Zn99  1  0.10890920  0.13333978  0.01196593  1
  Zn  Zn100  1  0.24501093  0.87087892  0.12195607  1
  Zn  Zn101  1  0.62557313  -0.00326344  0.62193593  1
  Zn  Zn102  1  0.37241660  0.62895095  0.75162805  1
  Zn  Zn103  1  0.38044285  0.12345445  0.24640314  1
  Zn  Zn104  1  0.37464507  0.24782851  0.62722730  1
  Zn  Zn105  1  0.62306033  0.62784459  0.49935193  1
  Zn  Zn106  1  0.25777217  0.49307647  0.25516007  1
  Zn  Zn107  1  0.19004491  0.18521316  0.18892042  1
  Zn  Zn108  1  0.19106643  0.18820418  0.68888385  1
  Zn  Zn109  1  0.18949126  0.68828883  0.19167691  1
  Zn  Zn110  1  0.18501230  0.68970995  0.68985291  1
  Zn  Zn111  1  0.68765383  0.18664636  0.18938949  1
  Zn  Zn112  1  0.68626358  0.18696205  0.68969469  1
  Zn  Zn113  1  0.68958927  0.69024620  0.19233139  1
  Zn  Zn114  1  0.68330245  0.69185078  0.68689214  1
  Zn  Zn115  1  0.31929325  0.30509190  0.31272568  1
  Zn  Zn116  1  0.31443991  0.31476038  0.81256031  1
  Zn  Zn117  1  0.30604985  0.80475014  0.30910109  1
  Zn  Zn118  1  0.31372761  0.82050047  0.81214435  1
  Zn  Zn119  1  0.81382663  0.30673323  0.30985179  1
  Zn  Zn120  1  0.81448105  0.31506527  0.81072744  1
  Zn  Zn121  1  0.80875598  0.81038074  0.30901069  1
  Zn  Zn122  1  0.81439938  0.80529903  0.81048579  1
  Zn  Zn123  1  0.18805441  0.43657860  0.43678903  1
  Zn  Zn124  1  0.18721694  0.43879299  0.93815419  1
  Zn  Zn125  1  0.18273814  0.93753943  0.43805533  1
  Zn  Zn126  1  0.18739428  0.94093131  0.93681990  1
  Zn  Zn127  1  0.68261609  0.43575266  0.43935324  1
  Zn  Zn128  1  0.69183602  0.43966536  0.93440603  1
  Zn  Zn129  1  0.69095240  0.93797877  0.44110382  1
  Zn  Zn130  1  0.68657069  0.93665036  0.93568859  1
  Zn  Zn131  1  0.28422619  0.06088580  0.06116738  1
  Zn  Zn132  1  0.31387415  0.05943875  0.55729638  1
  Zn  Zn133  1  0.31451969  0.55738452  0.06825676  1
  Zn  Zn134  1  0.31131382  0.56455993  0.56280434  1
  Zn  Zn135  1  0.81100257  0.06181196  0.06363829  1
  Zn  Zn136  1  0.81495723  0.05950231  0.56419409  1
  Zn  Zn137  1  0.81900050  0.56410819  0.06572993  1
  Zn  Zn138  1  0.80925530  0.55911459  0.55814905  1
  Zn  Zn139  1  0.44267351  0.43751623  0.18421008  1
  Zn  Zn140  1  0.43666760  0.43544601  0.68717281  1
  Zn  Zn141  1  0.43314603  0.93154684  0.19384513  1
  Zn  Zn142  1  0.43942899  0.93862838  0.68370492  1
  Zn  Zn143  1  0.93711327  0.43736647  0.18736187  1
  Zn  Zn144  1  0.92552565  0.47874241  0.67578370  1
  Zn  Zn145  1  0.93427508  0.93268927  0.18549439  1
  Zn  Zn146  1  0.94238893  0.93898523  0.69617628  1
  Zn  Zn147  1  0.06662491  0.05663671  0.31761814  1
  Zn  Zn148  1  0.04039828  0.08023855  0.85465180  1
  Zn  Zn149  1  0.06427850  0.56005691  0.31385625  1
  Zn  Zn150  1  0.06676802  0.56136036  0.82114557  1
  Zn  Zn151  1  0.56658234  0.06712688  0.30683327  1
  Zn  Zn152  1  0.56537167  0.06448041  0.81083600  1
  Zn  Zn153  1  0.56608135  0.56232050  0.30896174  1
  Zn  Zn154  1  0.56287300  0.56442482  0.80846856  1
  Zn  Zn155  1  0.43782568  0.19308224  0.43354229  1
  Zn  Zn156  1  0.43246270  0.19285925  0.93118754  1
  Zn  Zn157  1  0.43670480  0.68987983  0.43788359  1
  Zn  Zn158  1  0.44421052  0.68925551  0.93821261  1
  Zn  Zn159  1  0.93933806  0.18016791  0.43890148  1
  Zn  Zn160  1  0.93340568  0.19065201  0.93847622  1
  Zn  Zn161  1  0.93484287  0.69038523  0.43615235  1
  Zn  Zn162  1  0.94690236  0.68923497  0.93937254  1
  Zn  Zn163  1  0.05863416  0.31614701  0.06293674  1
  Zn  Zn164  1  0.06704850  0.31488594  0.56350812  1
  Zn  Zn165  1  0.06236563  0.81430678  0.06513827  1
  Zn  Zn166  1  0.05807153  0.81540849  0.56519241  1
  Zn  Zn167  1  0.56869000  0.32041807  0.05962697  1
  Zn  Zn168  1  0.56083745  0.31161093  0.55980125  1
  Zn  Zn169  1  0.56071428  0.81364260  0.06240866  1
  Zn  Zn170  1  0.56301055  0.81453308  0.55982357  1
  O  O171  1  0.12644782  0.11027712  0.12745228  1
  O  O172  1  0.12817961  0.11455467  0.62586283  1
  O  O173  1  0.12483563  0.62064113  0.12329966  1
  O  O174  1  0.13277823  0.61717394  0.61496023  1
  O  O175  1  0.63533473  0.11341409  0.12018396  1
  O  O176  1  0.62130646  0.12372017  0.61225756  1
  O  O177  1  0.61297152  0.62263802  0.13563130  1
  O  O178  1  0.61525485  0.61869946  0.62374617  1
  O  O179  1  0.38317485  0.37313767  0.38202324  1
  O  O180  1  0.37942175  0.38636454  0.88214216  1
  O  O181  1  0.37018956  0.86454281  0.38491592  1
  O  O182  1  0.38199294  0.88663822  0.88166752  1
  O  O183  1  0.88229533  0.37634683  0.37767188  1
  O  O184  1  0.87866589  0.38394939  0.88290681  1
  O  O185  1  0.86879336  0.88515119  0.37349837  1
  O  O186  1  0.88527843  0.87694842  0.87086577  1
  O  O187  1  0.24499239  0.01022844  0.36885078  1
  O  O188  1  0.25744826  0.00666951  0.86674353  1
  O  O189  1  0.24563552  0.51361179  0.37376643  1
  O  O190  1  0.25834126  0.50207928  0.86923984  1
  O  O191  1  0.75826659  0.00355911  0.36913182  1
  O  O192  1  0.75576715  0.00356841  0.86774495  1
  O  O193  1  0.75336225  0.50327474  0.36996895  1
  O  O194  1  0.76013048  0.50151502  0.86731816  1
  O  O195  1  0.24380923  0.48614949  0.12868947  1
  O  O196  1  0.24380111  0.49631289  0.63293555  1
  O  O197  1  0.23853931  0.99237625  0.13768686  1
  O  O198  1  0.24506338  0.99681240  0.63051891  1
  O  O199  1  0.76170306  0.48501167  0.13942802  1
  O  O200  1  0.74017822  0.49168208  0.62983277  1
  O  O201  1  0.74641562  0.98842895  0.13043318  1
  O  O202  1  0.74875979  0.98955860  0.63323652  1
  O  O203  1  0.00752780  0.37306397  0.25712689  1
  O  O204  1  0.00953209  0.38272245  0.75678187  1
  O  O205  1  0.01282986  0.87709967  0.25163641  1
  O  O206  1  0.01185281  0.86553685  0.75636187  1
  O  O207  1  0.50217366  0.36802341  0.25331279  1
  O  O208  1  0.50300819  0.36871662  0.75605621  1
  O  O209  1  0.50099868  0.85964705  0.24932057  1
  O  O210  1  0.50707763  0.87210523  0.75712649  1
  O  O211  1  0.49928777  0.13956596  0.24974893  1
  O  O212  1  0.50637382  0.13155967  0.73680292  1
  O  O213  1  0.49438676  0.63173047  0.24489723  1
  O  O214  1  0.49567016  0.63215713  0.73892824  1
  O  O215  1  0.98836727  0.12240544  0.25831980  1
  O  O216  1  0.98582772  0.12687199  0.75936919  1
  O  O217  1  0.98716715  0.61409532  0.24787579  1
  O  O218  1  1.01113297  0.63922576  0.75881255  1
  O  O219  1  0.36453840  0.26247997  -0.00397175  1
  O  O220  1  0.36442303  0.25916555  0.50065403  1
  O  O221  1  0.38086944  0.75836882  0.00781366  1
  O  O222  1  0.36881415  0.75681182  0.50663188  1
  O  O223  1  0.87408591  0.25893304  0.00717890  1
  O  O224  1  0.86994251  0.25198811  0.50693397  1
  O  O225  1  0.87308044  0.74246789  0.01195185  1
  O  O226  1  0.87432036  0.73564663  0.51582205  1
  O  O227  1  0.13852294  0.24898348  0.50004257  1
  O  O228  1  0.13447894  0.25373682  1.00217451  1
  O  O229  1  0.12730312  0.74468842  0.49476900  1
  O  O230  1  0.12285119  0.74340180  0.99449832  1
  O  O231  1  0.63155646  0.24094754  0.49686423  1
  O  O232  1  0.62120262  0.25073625  0.98414327  1
  O  O233  1  0.62982704  0.74773005  0.49332309  1
  O  O234  1  0.61976631  0.75472159  0.98439728  1
  O  O235  1  0.50661304  0.25832979  0.13498386  1
  O  O236  1  0.50039621  0.24142028  0.63080681  1
  O  O237  1  0.49376171  0.74310893  0.13186691  1
  O  O238  1  0.49558908  0.74459036  0.63058064  1
  O  O239  1  0.98628672  0.25131241  0.12567188  1
  O  O240  1  0.98786816  0.25708620  0.62643714  1
  O  O241  1  0.98365884  0.75232621  0.12386293  1
  O  O242  1  1.00827119  0.74611290  0.64208958  1
  O  O243  1  0.00076969  0.25933749  0.37435015  1
  O  O244  1  -0.00881658  0.26914029  0.86846075  1
  O  O245  1  0.01320862  0.74396117  0.37379804  1
  O  O246  1  0.00955505  0.75894448  0.86856691  1
  O  O247  1  0.50214482  0.26173841  0.36598266  1
  O  O248  1  0.50556064  0.25482963  0.86703102  1
  O  O249  1  0.51103997  0.74261790  0.36773447  1
  O  O250  1  0.50322438  0.76039373  0.86703826  1
  O  O251  1  0.24930321  0.13005769  0.49071315  1
  O  O252  1  0.23953583  0.13544202  0.98913601  1
  O  O253  1  0.24156580  0.63040418  0.49422802  1
  O  O254  1  0.23899346  0.61733675  1.00295135  1
  O  O255  1  0.74436136  0.12602398  0.49441895  1
  O  O256  1  0.74891241  0.12236579  0.98522978  1
  O  O257  1  0.74654185  0.62111609  0.48579422  1
  O  O258  1  0.71176379  0.56764279  1.03132172  1
  O  O259  1  0.25451847  0.37058178  0.00548724  1
  O  O260  1  0.25570232  0.36843687  0.50266481  1
  O  O261  1  0.26674308  0.88311109  0.00022954  1
  O  O262  1  0.25556931  0.87138269  0.50415788  1
  O  O263  1  0.76337678  0.38190243  0.00805691  1
  O  O264  1  0.75415006  0.36990127  0.50902063  1
  O  O265  1  0.74881892  0.87620548  0.01278376  1
  O  O266  1  0.74896307  0.87610332  0.51956025  1
  O  O267  1  0.12819508  0.48719050  0.24579507  1
  O  O268  1  0.13193328  0.49679884  0.74456852  1
  O  O269  1  0.13086156  0.98865201  0.24589488  1
  O  O270  1  0.13321091  0.99262899  0.74291466  1
  O  O271  1  0.64097637  0.50184200  0.23879157  1
  O  O272  1  0.63155810  0.49831016  0.73983656  1
  O  O273  1  0.63295719  0.99835860  0.24018126  1
  O  O274  1  0.63759294  0.99334094  0.74984648  1
  O  O275  1  0.36217691  0.00222342  0.24767218  1
  O  O276  1  0.36571267  -0.00835658  0.75775093  1
  O  O277  1  0.37678784  0.51325866  0.24398758  1
  O  O278  1  0.36716695  0.50074415  0.75825174  1
  O  O279  1  0.86980804  0.00192924  0.25834518  1
  O  O280  1  0.86572833  0.00597403  0.75524328  1
  O  O281  1  0.86662821  0.50428670  0.25505986  1
  O  O282  1  0.86512896  0.49526377  0.76931357  1
  O  O283  1  0.11850067  0.37211690  0.36761771  1
  O  O284  1  0.11468093  0.38585099  0.86553199  1
  O  O285  1  0.12954380  0.86704954  0.36211877  1
  O  O286  1  0.11815419  0.87248923  0.87036285  1
  O  O287  1  0.61656671  0.37222463  0.37130491  1
  O  O288  1  0.62151506  0.36853766  0.87091415  1
  O  O289  1  0.63365746  0.86303846  0.37315148  1
  O  O290  1  0.61840535  0.87278192  0.86543172  1
  O  O291  1  0.38134247  0.10966683  0.11430132  1
  O  O292  1  0.38808598  0.12685273  0.61741465  1
  O  O293  1  0.38462616  0.62926615  0.13091308  1
  O  O294  1  0.37996175  0.63405345  0.62684141  1
  O  O295  1  0.86794172  0.13109753  0.13438551  1
  O  O296  1  0.86777408  0.13586250  0.63479454  1
  O  O297  1  0.87591821  0.63729051  0.13179148  1
  O  O298  1  0.88712841  0.58387147  0.63309872  1
  O  O299  1  0.24773502  0.26028369  0.11636599  1
  O  O300  1  0.25400554  0.25558906  0.61779587  1
  O  O301  1  0.26529564  0.75023806  0.12893846  1
  O  O302  1  0.25295498  0.75687150  0.61925420  1
  O  O303  1  0.75977306  0.26181059  0.13171002  1
  O  O304  1  0.75585980  0.25754115  0.62144304  1
  O  O305  1  0.75591688  0.76011962  0.12769035  1
  O  O306  1  0.74918658  0.76524391  0.62871280  1
  O  O307  1  0.24870018  0.24026578  0.38101743  1
  O  O308  1  0.25723816  0.24345085  0.88218314  1
  O  O309  1  0.24028051  0.73849040  0.38148093  1
  O  O310  1  0.23987584  0.75292933  0.87192891  1
  O  O311  1  0.75044794  0.23953718  0.38151015  1
  O  O312  1  0.74228038  0.24102067  0.86524404  1
  O  O313  1  0.74436098  0.74161108  0.37784699  1
  O  O314  1  0.73517457  0.75163770  0.87084740  1
  O  O315  1  0.01190320  0.11727070  -0.03974829  1
  O  O316  1  0.00397576  0.10681221  0.49409703  1
  O  O317  1  0.01321675  0.61790743  0.00496860  1
  O  O318  1  0.01417754  0.61679474  0.49298992  1
  O  O319  1  0.49946056  0.12388021  0.00038010  1
  O  O320  1  0.50678318  0.12066514  0.50225282  1
  O  O321  1  0.49550204  0.61550897  0.01094070  1
  O  O322  1  0.49816966  0.62307352  0.51175128  1
  O  O323  1  0.49116743  0.37546804  0.49104077  1
  O  O324  1  0.48916407  0.37810917  0.99321143  1
  O  O325  1  0.49078779  0.88472325  0.50231338  1
  O  O326  1  0.49144329  0.87496638  0.98757899  1
  O  O327  1  0.99721661  0.37846328  0.49185011  1
  O  O328  1  0.99135427  0.38314749  0.99312891  1
  O  O329  1  1.00544718  0.89051231  0.49914405  1
  O  O330  1  1.00215550  0.87164223  0.98416086  1
  O  O331  1  0.50625521  0.48624227  0.37259563  1
  O  O332  1  0.49239374  0.49674787  0.87735239  1
  O  O333  1  0.50490705  1.00495707  0.38272564  1
  O  O334  1  0.49303992  0.99296608  0.86685848  1
  O  O335  1  0.99717693  0.48714801  0.38006400  1
  O  O336  1  0.99144960  0.49581013  0.88531859  1
  O  O337  1  0.98529009  0.99798649  0.37922835  1
  O  O338  1  0.98769861  0.97932985  0.86204270  1
  O  O339  1  0.01304597  -0.00455383  0.12907711  1
  O  O340  1  0.00834693  -0.00326764  0.62134668  1
  O  O341  1  0.00522878  0.49804978  0.11340987  1
  O  O342  1  0.02009052  0.48882576  0.61455252  1
  O  O343  1  0.50567724  -0.00127413  0.12521728  1
  O  O344  1  0.50431100  0.00820457  0.61799247  1
  O  O345  1  0.51058343  0.50773234  0.11620885  1
  O  O346  1  0.50537047  0.50792803  0.62626307  1
  O  O347  1  0.24628147  0.37172385  0.24477743  1
  O  O348  1  0.24481877  0.38618613  0.74788737  1
  O  O349  1  0.24378313  0.88084300  0.24817839  1
  O  O350  1  0.24095498  0.88523910  0.74647156  1
  O  O351  1  0.74927804  0.37952659  0.24552953  1
  O  O352  1  0.74969686  0.38132956  0.73770629  1
  O  O353  1  0.74844509  0.88552405  0.24268849  1
  O  O354  1  0.74520958  0.88035770  0.74365835  1
  O  O355  1  0.25512803  0.11774092  0.25885753  1
  O  O356  1  0.25638249  0.11462065  0.75081162  1
  O  O357  1  0.25926838  0.62266327  0.25824686  1
  O  O358  1  0.25060212  0.61425385  0.75367097  1
  O  O359  1  0.75638305  0.11275930  0.25764523  1
  O  O360  1  0.75504414  0.11623692  0.75596207  1
  O  O361  1  0.75758927  0.61732892  0.26008839  1
  O  O362  1  0.74761539  0.61542432  0.74288625  1
  O  O363  1  0.36017176  0.12881313  0.37403811  1
  O  O364  1  0.36697273  0.11251198  0.87970977  1
  O  O365  1  0.36627052  0.63048788  0.36712743  1
  O  O366  1  0.37514000  0.61511964  0.87562709  1
  O  O367  1  0.86494219  0.11814281  0.36804212  1
  O  O368  1  0.86545581  0.11745538  0.86686791  1
  O  O369  1  0.86902651  0.61829432  0.36739083  1
  O  O370  1  0.87897278  0.61256895  0.88463063  1
  O  O371  1  0.13119120  0.37852629  0.13257675  1
  O  O372  1  0.13528693  0.38376217  0.63171799  1
  O  O373  1  0.12556108  0.87962581  0.13609242  1
  O  O374  1  0.13159932  0.88123615  0.63395779  1
  O  O375  1  0.63985849  0.39188560  0.11994942  1
  O  O376  1  0.63132315  0.38123902  0.62465643  1
  O  O377  1  0.63564434  0.87815352  0.12704035  1
  O  O378  1  0.62506818  0.87552281  0.63934139  1
  O  O379  1  0.12296239  0.26000327  0.24957374  1
  O  O380  1  0.12422658  0.26614652  0.74288360  1
  O  O381  1  0.12877172  0.76306188  0.25571628  1
  O  O382  1  0.12231135  0.75962402  0.75966792  1
  O  O383  1  0.61547196  0.25278611  0.25050548  1
  O  O384  1  0.61495212  0.25091160  0.75837426  1
  O  O385  1  0.61721496  0.75154072  0.25891647  1
  O  O386  1  0.61684017  0.75799399  0.75727870  1
  O  O387  1  0.39088378  0.24565028  0.24510956  1
  O  O388  1  0.39064501  0.25450563  0.74927974  1
  O  O389  1  0.38235289  0.73978035  0.24366450  1
  O  O390  1  0.38123797  0.75285238  0.74458769  1
  O  O391  1  0.87801728  0.23781027  0.24206056  1
  O  O392  1  0.87545164  0.24294226  0.74150966  1
  O  O393  1  0.86989437  0.73836330  0.24353623  1
  O  O394  1  0.89384669  0.74630244  0.74979514  1
  O  O395  1  0.37446882  0.48751459  0.50407604  1
  O  O396  1  0.38180761  0.49242129  0.99444651  1
  O  O397  1  0.38439839  0.98936862  0.49939949  1
  O  O398  1  0.38271965  0.99955556  1.00003261  1
  O  O399  1  0.87955576  0.48941687  0.48878065  1
  O  O400  1  0.88230709  0.49530906  0.99361183  1
  O  O401  1  0.87893299  1.00147988  0.48714690  1
  O  O402  1  0.87165722  1.00018421  0.98793089  1
  O  O403  1  0.13123742  -0.00091954  0.01864767  1
  O  O404  1  0.11937651  0.00057568  0.51189194  1
  O  O405  1  0.11837847  0.50552987  0.00597063  1
  O  O406  1  0.12489609  0.50742866  0.50695116  1
  O  O407  1  0.62518541  0.00012071  0.01140355  1
  O  O408  1  0.61802089  0.00683373  0.50064976  1
  O  O409  1  0.60270378  0.48245552  -0.00488255  1
  O  O410  1  0.62068537  0.50243938  0.51305620  1
  O  O411  1  0.36650134  0.38202317  0.11485023  1
  O  O412  1  0.36872238  0.37248512  0.61717433  1
  O  O413  1  0.37657892  0.86485484  0.11678788  1
  O  O414  1  0.36812027  0.86959232  0.61954467  1
  O  O415  1  0.87200784  0.36742277  0.11790836  1
  O  O416  1  0.86737020  0.37339508  0.61902938  1
  O  O417  1  0.86289527  0.86207935  0.12791210  1
  O  O418  1  0.86643462  0.87719083  0.63260093  1
  O  O419  1  0.13864746  0.12681781  0.37557537  1
  O  O420  1  0.14401788  0.12700116  0.85812369  1
  O  O421  1  0.13157555  0.63054363  0.38011752  1
  O  O422  1  0.13028434  0.63537979  0.88630618  1
  O  O423  1  0.63789211  0.12435672  0.38346920  1
  O  O424  1  0.63307873  0.13194007  0.87672559  1
  O  O425  1  0.63329256  0.63209790  0.37488232  1
  O  O426  1  0.61850120  0.63946071  0.87263647  1
