# generated using pymatgen
data_V85Zn86O256
_symmetry_space_group_name_H-M   'P 1'
_cell_length_a   16.93483225
_cell_length_b   16.94020004
_cell_length_c   16.94305573
_cell_angle_alpha   90.00633402
_cell_angle_beta   90.03826721
_cell_angle_gamma   89.90517627
_symmetry_Int_Tables_number   1
_chemical_formula_structural   V85Zn86O256
_chemical_formula_sum   'V85 Zn86 O256'
_cell_volume   4860.60666903
_cell_formula_units_Z   1
loop_
 _symmetry_equiv_pos_site_id
 _symmetry_equiv_pos_as_xyz
  1  'x, y, z'
loop_
 _atom_site_type_symbol
 _atom_site_label
 _atom_site_symmetry_multiplicity
 _atom_site_fract_x
 _atom_site_fract_y
 _atom_site_fract_z
 _atom_site_occupancy
  V  V0  1  0.87574537  0.37474466  0.49560837  1
  V  V1  1  0.62071018  -0.00510605  0.12209419  1
  V  V2  1  0.25515946  0.24691381  0.49471345  1
  V  V3  1  0.12322138  0.50254131  0.12087340  1
  V  V4  1  0.87239614  0.49772949  0.87500039  1
  V  V5  1  -0.00776610  0.74840742  0.24901523  1
  V  V6  1  0.87440453  -0.00133297  0.87718648  1
  V  V7  1  0.00017849  -0.00723266  0.50104362  1
  V  V8  1  0.74643989  0.62640318  0.87449941  1
  V  V9  1  0.76691107  0.36253286  0.11719920  1
  V  V10  1  0.24521090  0.00122086  0.25847603  1
  V  V11  1  0.36495991  0.75820650  0.61158236  1
  V  V12  1  0.12763562  0.64125587  -0.00253068  1
  V  V13  1  -0.00243419  0.37559747  0.37308978  1
  V  V14  1  0.36747455  0.24800854  0.11605782  1
  V  V15  1  0.49907536  0.61932311  0.11684863  1
  V  V16  1  0.50024874  0.36684474  0.37496853  1
  V  V17  1  0.87882035  0.24866400  0.62172765  1
  V  V18  1  0.12874758  0.87094119  0.76035121  1
  V  V19  1  0.25761292  0.12639388  0.87845377  1
  V  V20  1  0.00060371  0.00192606  0.00184471  1
  V  V21  1  0.37915277  0.50179363  0.88031704  1
  V  V22  1  0.49457460  -0.00055767  -0.00260433  1
  V  V23  1  0.36770431  0.74844140  0.12098005  1
  V  V24  1  0.00206781  0.37755408  0.87017080  1
  V  V25  1  0.25372390  0.37605353  0.62531201  1
  V  V26  1  0.24941678  0.64204883  0.87746920  1
  V  V27  1  0.74868320  0.74753156  0.00875199  1
  V  V28  1  0.49823117  0.87825686  0.87131727  1
  V  V29  1  0.13271848  -0.00757978  0.62883682  1
  V  V30  1  0.49746027  0.24666389  0.24866394  1
  V  V31  1  0.12445584  0.50096551  0.62538015  1
  V  V32  1  0.12892466  0.25062983  0.87383772  1
  V  V33  1  0.87435112  0.63011348  0.74604480  1
  V  V34  1  0.63078286  0.23800543  0.37212751  1
  V  V35  1  -0.00638257  0.50028252  0.49525608  1
  V  V36  1  0.12541002  0.62247206  0.49316078  1
  V  V37  1  0.17213429  0.79925729  0.42831659  1
  V  V38  1  0.12569163  0.13176250  0.00245078  1
  V  V39  1  0.37172162  0.87364684  -0.00104265  1
  V  V40  1  -0.00039784  0.24205373  0.24991512  1
  V  V41  1  0.25242374  0.50116905  0.75177428  1
  V  V42  1  0.37692210  0.37160262  0.50064598  1
  V  V43  1  -0.00923329  0.86857255  0.37782534  1
  V  V44  1  0.00541915  0.12256899  0.62559831  1
  V  V45  1  0.12301704  0.37313261  0.24660987  1
  V  V46  1  0.61912159  0.74927361  0.37608585  1
  V  V47  1  0.86624685  -0.00172420  0.38249467  1
  V  V48  1  0.38093838  0.24564334  0.63057834  1
  V  V49  1  0.13171472  0.12245117  0.49489960  1
  V  V50  1  0.75666240  0.75962113  0.49553060  1
  V  V51  1  0.50944704  0.37631775  0.87830377  1
  V  V52  1  0.63119398  0.13625939  -0.00169851  1
  V  V53  1  0.87598385  0.12346760  0.25325009  1
  V  V54  1  0.50177253  0.62655048  0.62089028  1
  V  V55  1  0.24255148  0.37183072  0.11523800  1
  V  V56  1  0.63555731  0.62214818  0.49342455  1
  V  V57  1  0.26254260  -0.00119470  0.75331264  1
  V  V58  1  -0.00474512  0.50369108  -0.00317012  1
  V  V59  1  0.37743579  0.62241645  0.24920724  1
  V  V60  1  0.62143838  0.87303851  0.25408243  1
  V  V61  1  0.49592357  0.12307210  0.12409427  1
  V  V62  1  0.62822857  0.37145202  0.24859485  1
  V  V63  1  0.50320696  0.75339775  0.74767130  1
  V  V64  1  0.37763809  0.62480428  0.74857297  1
  V  V65  1  0.87276770  0.87018072  0.00684802  1
  V  V66  1  0.74798044  0.00317728  0.25463666  1
  V  V67  1  0.12040940  0.00237581  0.12552813  1
  V  V68  1  0.37851809  0.37849086  0.00084134  1
  V  V69  1  0.75018584  -0.00127905  0.74792598  1
  V  V70  1  0.12393674  0.86633676  0.24625235  1
  V  V71  1  0.36026665  0.12632181  0.25588494  1
  V  V72  1  0.61345565  0.12345808  0.50779334  1
  V  V73  1  0.75548970  0.23636353  0.49497377  1
  V  V74  1  0.75260927  0.49764401  0.26054167  1
  V  V75  1  0.24874503  0.62181087  0.37618995  1
  V  V76  1  0.60897396  -0.00022042  0.62561436  1
  V  V77  1  0.74782286  0.37448444  0.62215588  1
  V  V78  1  0.86732416  0.62303327  0.26748208  1
  V  V79  1  -0.01484207  0.62823062  0.12300471  1
  V  V80  1  0.37604234  0.49728451  0.37424412  1
  V  V81  1  0.50236603  0.49803209  0.49889769  1
  V  V82  1  0.51051507  0.24558106  0.75454609  1
  V  V83  1  0.87835251  0.12493238  0.75272229  1
  V  V84  1  0.62521459  0.49632542  0.12040272  1
  Zn  Zn85  1  0.44235305  0.93798788  0.41517199  1
  Zn  Zn86  1  -0.05817717  0.17310967  0.08504069  1
  Zn  Zn87  1  0.74708945  0.50085527  0.74713082  1
  Zn  Zn88  1  0.38296708  0.12167381  0.75585052  1
  Zn  Zn89  1  0.62968909  0.37421001  0.75589563  1
  Zn  Zn90  1  0.49901521  0.75032286  0.25074292  1
  Zn  Zn91  1  0.62429810  0.75156479  0.87745882  1
  Zn  Zn92  1  0.75496450  0.87939040  0.62051945  1
  Zn  Zn93  1  0.74126606  0.13742862  0.87388785  1
  Zn  Zn94  1  -0.00183873  0.62821285  0.62392119  1
  Zn  Zn95  1  0.00577461  0.74722580  0.75430630  1
  Zn  Zn96  1  0.62466579  0.87520780  0.74902889  1
  Zn  Zn97  1  0.24665631  0.87010394  0.12011439  1
  Zn  Zn98  1  0.62583681  0.49766549  0.62541301  1
  Zn  Zn99  1  0.00609858  0.86598941  0.88096023  1
  Zn  Zn100  1  0.12955751  0.24692553  0.37523264  1
  Zn  Zn101  1  0.00506088  0.25292129  0.74565587  1
  Zn  Zn102  1  0.12796340  0.37554308  0.74926245  1
  Zn  Zn103  1  0.75124657  0.86942713  0.12892261  1
  Zn  Zn104  1  0.87784142  0.75872002  0.62293852  1
  Zn  Zn105  1  0.62090179  0.62301078  -0.00141045  1
  Zn  Zn106  1  0.24800143  0.49810371  0.24732439  1
  Zn  Zn107  1  0.18204183  0.19064669  0.18290035  1
  Zn  Zn108  1  0.19109203  0.18611134  0.68871753  1
  Zn  Zn109  1  0.18506149  0.68534250  0.18793135  1
  Zn  Zn110  1  0.18936989  0.68533120  0.68613092  1
  Zn  Zn111  1  0.69066778  0.18328403  0.18350365  1
  Zn  Zn112  1  0.69073381  0.18623354  0.68603658  1
  Zn  Zn113  1  0.68805922  0.68373688  0.18875828  1
  Zn  Zn114  1  0.68822385  0.68827411  0.68259181  1
  Zn  Zn115  1  0.31012086  0.31220863  0.30778208  1
  Zn  Zn116  1  0.31396050  0.31214732  0.81478840  1
  Zn  Zn117  1  0.31371853  0.81113471  0.31114253  1
  Zn  Zn118  1  0.32236691  0.81875208  0.80209367  1
  Zn  Zn119  1  0.81401810  0.31085129  0.30916451  1
  Zn  Zn120  1  0.81286279  0.31428854  0.80673489  1
  Zn  Zn121  1  0.80721706  0.81014870  0.31495645  1
  Zn  Zn122  1  0.81168519  0.81356091  0.81683095  1
  Zn  Zn123  1  0.18620457  0.43586790  0.43636993  1
  Zn  Zn124  1  0.18768336  0.44278252  0.93783009  1
  Zn  Zn125  1  0.24700227  0.96841802  0.46597552  1
  Zn  Zn126  1  0.19192835  0.94227641  0.93629562  1
  Zn  Zn127  1  0.68649287  0.42981548  0.43821697  1
  Zn  Zn128  1  0.69302509  0.43661805  0.94362691  1
  Zn  Zn129  1  0.67585564  0.93771718  0.43873523  1
  Zn  Zn130  1  0.68696151  0.93891627  0.93599077  1
  Zn  Zn131  1  0.30639924  0.05774924  0.06591987  1
  Zn  Zn132  1  0.31777581  0.06995163  0.57118821  1
  Zn  Zn133  1  0.30849686  0.56291566  0.05937066  1
  Zn  Zn134  1  0.31424794  0.56568608  0.56081823  1
  Zn  Zn135  1  0.80629342  0.05566118  0.06591401  1
  Zn  Zn136  1  0.81456851  0.05764134  0.56590650  1
  Zn  Zn137  1  0.80714862  0.55521701  0.06321799  1
  Zn  Zn138  1  0.81320134  0.56333296  0.56199058  1
  Zn  Zn139  1  0.43862132  0.43644148  0.18639908  1
  Zn  Zn140  1  0.44252817  0.43543477  0.69000993  1
  Zn  Zn141  1  0.41837573  0.92173679  0.22082825  1
  Zn  Zn142  1  0.42840263  0.93357305  0.57770163  1
  Zn  Zn143  1  0.93726646  0.44149026  0.19036022  1
  Zn  Zn144  1  0.93515747  0.44240749  0.68677999  1
  Zn  Zn145  1  0.93573435  0.93939395  0.18874459  1
  Zn  Zn146  1  0.93951404  0.93216121  0.68881364  1
  Zn  Zn147  1  0.06176107  0.05729578  0.31629678  1
  Zn  Zn148  1  0.06410111  0.05936166  0.81568197  1
  Zn  Zn149  1  0.05919765  0.56084504  0.31061711  1
  Zn  Zn150  1  0.06455147  0.56971897  0.81303163  1
  Zn  Zn151  1  0.56083417  0.05917549  0.31050835  1
  Zn  Zn152  1  0.56324099  0.06103860  0.81674364  1
  Zn  Zn153  1  0.56419585  0.56076232  0.31069309  1
  Zn  Zn154  1  0.56444584  0.55871375  0.80920759  1
  Zn  Zn155  1  0.45336149  0.14390408  0.41978908  1
  Zn  Zn156  1  0.44230399  0.19125222  0.93840490  1
  Zn  Zn157  1  0.43917111  0.68989612  0.43742095  1
  Zn  Zn158  1  0.43697475  0.69084491  0.93676999  1
  Zn  Zn159  1  0.94181410  0.18196384  0.43299475  1
  Zn  Zn160  1  0.89499144  0.22124497  0.92287606  1
  Zn  Zn161  1  0.93912489  0.68734213  0.43705352  1
  Zn  Zn162  1  0.93495927  0.69036555  0.93191693  1
  Zn  Zn163  1  0.03665456  0.30698404  0.04969905  1
  Zn  Zn164  1  0.06652350  0.31254413  0.56055340  1
  Zn  Zn165  1  0.05498120  0.81305386  0.06649195  1
  Zn  Zn166  1  0.05848954  0.81503750  0.57412954  1
  Zn  Zn167  1  0.56009293  0.31463482  0.06497915  1
  Zn  Zn168  1  0.56314135  0.30464029  0.56265666  1
  Zn  Zn169  1  0.55935004  0.80909503  0.06472915  1
  Zn  Zn170  1  0.56100920  0.81483731  0.55655607  1
  O  O171  1  0.12762498  0.11635473  0.11416758  1
  O  O172  1  0.11876349  0.11905757  0.61972824  1
  O  O173  1  0.11538410  0.61844438  0.12026444  1
  O  O174  1  0.12781981  0.61512085  0.61192543  1
  O  O175  1  0.61774243  0.11647547  0.11852043  1
  O  O176  1  0.63106417  0.11573878  0.61572549  1
  O  O177  1  0.61537956  0.61569915  0.12764501  1
  O  O178  1  0.61459859  0.62343622  0.61457332  1
  O  O179  1  0.38125362  0.37667345  0.37800292  1
  O  O180  1  0.37961608  0.38184673  0.88418117  1
  O  O181  1  0.38919229  0.88748226  0.33006511  1
  O  O182  1  0.38838878  0.86963877  0.88452580  1
  O  O183  1  0.88895479  0.36945386  0.37988334  1
  O  O184  1  0.88577978  0.39089150  0.86558483  1
  O  O185  1  0.88466192  0.88016148  0.37276771  1
  O  O186  1  0.87379782  0.88783623  0.88496005  1
  O  O187  1  0.23808293  0.00124025  0.35777346  1
  O  O188  1  0.24624080  0.01290616  0.86263508  1
  O  O189  1  0.25716214  0.50473981  0.37164549  1
  O  O190  1  0.26158068  0.50381885  0.86820115  1
  O  O191  1  0.75886438  -0.00763148  0.37252671  1
  O  O192  1  0.75897207  0.00913634  0.87039153  1
  O  O193  1  0.74515083  0.48999884  0.36045927  1
  O  O194  1  0.75764939  0.50520145  0.87484401  1
  O  O195  1  0.23902372  0.49479380  0.12537719  1
  O  O196  1  0.24572080  0.49690311  0.62943380  1
  O  O197  1  0.23429792  0.99460668  0.13293711  1
  O  O198  1  0.24214357  1.01094339  0.64274005  1
  O  O199  1  0.74239541  0.49094382  0.13600704  1
  O  O200  1  0.74945319  0.48785382  0.62157779  1
  O  O201  1  0.73564039  0.99611069  0.13543187  1
  O  O202  1  0.74413017  1.00015591  0.63502605  1
  O  O203  1  0.00354778  0.36950934  0.25671904  1
  O  O204  1  0.00562780  0.38145195  0.75830275  1
  O  O205  1  0.00146271  0.86742396  0.25696230  1
  O  O206  1  0.01955869  0.87924536  0.75474702  1
  O  O207  1  0.50564555  0.36545473  0.25480623  1
  O  O208  1  0.50379803  0.36736629  0.76167381  1
  O  O209  1  0.51947624  0.86905218  0.23616385  1
  O  O210  1  0.50200915  0.86514026  0.75908915  1
  O  O211  1  0.48441931  0.12928449  0.24100248  1
  O  O212  1  0.50032616  0.14133999  0.76128804  1
  O  O213  1  0.49064704  0.62318316  0.24172695  1
  O  O214  1  0.49731651  0.62904192  0.74011839  1
  O  O215  1  0.99187498  0.12986268  0.25899185  1
  O  O216  1  0.99786983  0.12183184  0.73853706  1
  O  O217  1  0.98896902  0.62943234  0.24520289  1
  O  O218  1  0.99000634  0.62428980  0.74648758  1
  O  O219  1  0.37688643  0.25891437  0.01003726  1
  O  O220  1  0.36984962  0.25667007  0.51114563  1
  O  O221  1  0.38032097  0.76028067  0.00953677  1
  O  O222  1  0.37915608  0.74981354  0.51118153  1
  O  O223  1  0.93448460  0.25889031  0.01632570  1
  O  O224  1  0.87237071  0.25030949  0.50163501  1
  O  O225  1  0.86498668  0.76029414  -0.00439454  1
  O  O226  1  0.85910676  0.74354557  0.49739310  1
  O  O227  1  0.13617826  0.24130425  0.50181875  1
  O  O228  1  0.11764299  0.23782581  0.99221542  1
  O  O229  1  0.11701846  0.74149049  0.49589415  1
  O  O230  1  0.12175140  0.74005300  1.00864731  1
  O  O231  1  0.63570599  0.24038820  0.49518696  1
  O  O232  1  0.61873373  0.23438504  1.00743258  1
  O  O233  1  0.62980211  0.74175864  0.49328566  1
  O  O234  1  0.63204589  0.74488308  0.99883756  1
  O  O235  1  0.48936596  0.24491787  0.13073988  1
  O  O236  1  0.49374009  0.26045323  0.64377843  1
  O  O237  1  0.48907073  0.73748367  0.12923658  1
  O  O238  1  0.49637416  0.74207642  0.62927220  1
  O  O239  1  1.01416226  0.24678899  0.14789234  1
  O  O240  1  0.99780998  0.24045571  0.62227696  1
  O  O241  1  0.99650450  0.74209712  0.13847988  1
  O  O242  1  0.99640136  0.74550859  0.63464376  1
  O  O243  1  0.00576099  0.25664730  0.36921653  1
  O  O244  1  0.00930003  0.26484948  0.86740210  1
  O  O245  1  -0.00465912  0.75591876  0.36344563  1
  O  O246  1  -0.00080551  0.75354896  0.86824347  1
  O  O247  1  0.50794754  0.24602632  0.36736628  1
  O  O248  1  0.49612604  0.26188575  0.86400540  1
  O  O249  1  0.51322541  0.74393057  0.36920071  1
  O  O250  1  0.50264270  0.75436409  0.86550411  1
  O  O251  1  0.24451144  0.13553453  0.50673414  1
  O  O252  1  0.23718299  0.11527079  0.99075229  1
  O  O253  1  0.24382249  0.61985751  0.48501081  1
  O  O254  1  0.24083221  0.62477381  0.99011885  1
  O  O255  1  0.74717872  0.13426658  0.50455271  1
  O  O256  1  0.73413554  0.12085140  1.00445258  1
  O  O257  1  0.73828672  0.63047481  0.50294387  1
  O  O258  1  0.75010263  0.63097643  0.99323528  1
  O  O259  1  0.25823300  0.38085062  0.00950725  1
  O  O260  1  0.25620261  0.37144461  0.50791255  1
  O  O261  1  0.26719575  0.88430785  0.00070295  1
  O  O262  1  0.22633997  0.85723173  0.48604147  1
  O  O263  1  0.75225443  0.37616497  0.01801764  1
  O  O264  1  0.75872221  0.36388398  0.50335852  1
  O  O265  1  0.75522975  0.86685218  0.00011897  1
  O  O266  1  0.74433791  0.86252327  0.49791246  1
  O  O267  1  0.12065447  0.49384927  0.23531990  1
  O  O268  1  0.13314990  0.50300063  0.74020305  1
  O  O269  1  0.12357845  0.98974132  0.24387248  1
  O  O270  1  0.13213186  0.99350377  0.74564406  1
  O  O271  1  0.63257627  0.49218361  0.24424081  1
  O  O272  1  0.62859832  0.49219588  0.74321060  1
  O  O273  1  0.62953042  0.99447825  0.24638578  1
  O  O274  1  0.63153085  1.00543813  0.73952078  1
  O  O275  1  0.35896933  0.01956616  0.23673801  1
  O  O276  1  0.36120043  0.00296190  0.74804260  1
  O  O277  1  0.37292082  0.50758242  0.25451603  1
  O  O278  1  0.37126724  0.50606586  0.75514978  1
  O  O279  1  0.86666341  0.00013157  0.26122993  1
  O  O280  1  0.86998035  0.00440901  0.75719447  1
  O  O281  1  0.86829214  0.51355167  0.24870742  1
  O  O282  1  0.87096733  0.51241124  0.75582396  1
  O  O283  1  0.11503809  0.37431631  0.36813385  1
  O  O284  1  0.12256350  0.36973291  0.87341404  1
  O  O285  1  0.11371733  0.86351286  0.36777606  1
  O  O286  1  0.12810707  0.87874761  0.86392161  1
  O  O287  1  0.61850242  0.35953101  0.37028151  1
  O  O288  1  0.61275864  0.38217963  0.88092810  1
  O  O289  1  0.62442465  0.86602985  0.36589735  1
  O  O290  1  0.61236698  0.87453523  0.87398814  1
  O  O291  1  0.37458947  0.13422284  0.12510092  1
  O  O292  1  0.37692082  0.14213223  0.63422970  1
  O  O293  1  0.37893115  0.62442597  0.13078369  1
  O  O294  1  0.38812701  0.62740768  0.62717478  1
  O  O295  1  0.87431435  0.10830349  0.14402706  1
  O  O296  1  0.88621739  0.12497156  0.63340754  1
  O  O297  1  0.88419215  0.61891182  0.12839070  1
  O  O298  1  0.87504060  0.62887457  0.63345381  1
  O  O299  1  0.25469638  0.26037445  0.12418326  1
  O  O300  1  0.25774820  0.25811187  0.62033041  1
  O  O301  1  0.26284485  0.74726478  0.12909169  1
  O  O302  1  0.26742609  0.73589841  0.62255816  1
  O  O303  1  0.75148495  0.26308231  0.13203255  1
  O  O304  1  0.75960796  0.25396775  0.61629219  1
  O  O305  1  0.74762836  0.74842476  0.11312841  1
  O  O306  1  0.74701734  0.75385032  0.60809377  1
  O  O307  1  0.24888036  0.26082738  0.39146626  1
  O  O308  1  0.23656319  0.24488761  0.87219338  1
  O  O309  1  0.24121176  0.74335162  0.37160198  1
  O  O310  1  0.26172876  0.73964874  0.86587571  1
  O  O311  1  0.74233952  0.25359390  0.38280847  1
  O  O312  1  0.78972834  0.23892351  0.88353234  1
  O  O313  1  0.73852642  0.75028200  0.38787390  1
  O  O314  1  0.74636680  0.74139285  0.88417478  1
  O  O315  1  0.00978928  0.10803205  0.00479020  1
  O  O316  1  0.00829272  0.11360935  0.50785616  1
  O  O317  1  0.00444180  0.62107543  0.00595654  1
  O  O318  1  0.00741358  0.61655057  0.49877438  1
  O  O319  1  0.50507994  0.11741494  0.00501559  1
  O  O320  1  0.51652805  0.14450784  0.51559314  1
  O  O321  1  0.49826046  0.62539818  0.01280320  1
  O  O322  1  0.50686040  0.61798690  0.50478562  1
  O  O323  1  0.49692649  0.37581559  0.49400163  1
  O  O324  1  0.48745253  0.37187884  0.99412654  1
  O  O325  1  0.49666440  0.88527735  0.50080739  1
  O  O326  1  0.49317403  0.88131906  0.99598335  1
  O  O327  1  0.99700576  0.38019475  0.49318075  1
  O  O328  1  1.01052594  0.39711686  0.98231141  1
  O  O329  1  1.01007709  0.88495355  0.49239841  1
  O  O330  1  0.99127512  0.88331256  1.00062049  1
  O  O331  1  0.49535138  0.49027733  0.37935805  1
  O  O332  1  0.48636463  0.49316131  0.86958655  1
  O  O333  1  0.48792406  1.03830060  0.38869797  1
  O  O334  1  0.50102864  0.99230254  0.88548295  1
  O  O335  1  1.00460541  0.48972855  0.38389520  1
  O  O336  1  0.99429888  0.50163124  0.87938405  1
  O  O337  1  0.99240315  0.98926979  0.38303261  1
  O  O338  1  0.99393933  0.99413875  0.88527406  1
  O  O339  1  0.01164636  -0.00630049  0.11996223  1
  O  O340  1  0.00958270  0.00458394  0.61819998  1
  O  O341  1  0.00396969  0.50642373  0.11613162  1
  O  O342  1  0.00974097  0.50122333  0.61584905  1
  O  O343  1  0.51030286  0.00493441  0.12126481  1
  O  O344  1  0.51071732  0.00313921  0.63205354  1
  O  O345  1  0.51086894  0.50622791  0.13144450  1
  O  O346  1  0.50110636  0.50596202  0.61570878  1
  O  O347  1  0.24146413  0.37677834  0.23649641  1
  O  O348  1  0.25138653  0.38411034  0.74290423  1
  O  O349  1  0.23648814  0.88016425  0.24671339  1
  O  O350  1  0.24363456  0.89056505  0.75689340  1
  O  O351  1  0.74545505  0.37957642  0.24426489  1
  O  O352  1  0.74931516  0.37530034  0.73724211  1
  O  O353  1  0.74202278  0.88410294  0.24946892  1
  O  O354  1  0.74515334  0.88949987  0.75615102  1
  O  O355  1  0.25342544  0.11987881  0.24176667  1
  O  O356  1  0.25219205  0.11798827  0.76053392  1
  O  O357  1  0.25351087  0.62088229  0.26076413  1
  O  O358  1  0.25633686  0.61803205  0.75673862  1
  O  O359  1  0.75398707  0.10980736  0.25084381  1
  O  O360  1  0.76073393  0.11775601  0.75171791  1
  O  O361  1  0.76141681  0.61639506  0.24859076  1
  O  O362  1  0.75385128  0.62419702  0.75679487  1
  O  O363  1  0.35998739  0.14222246  0.35388729  1
  O  O364  1  0.36097402  0.13488806  0.87826137  1
  O  O365  1  0.36911704  0.62021051  0.36845332  1
  O  O366  1  0.37158812  0.61798430  0.87085966  1
  O  O367  1  0.87753342  0.10981167  0.36688230  1
  O  O368  1  0.88948287  0.11379706  0.86000851  1
  O  O369  1  0.87623998  0.62058166  0.36541408  1
  O  O370  1  0.86352377  0.61667686  0.86920587  1
  O  O371  1  0.12797795  0.38170819  0.12267492  1
  O  O372  1  0.13297920  0.38706257  0.62346158  1
  O  O373  1  0.12487358  0.87974866  0.13177936  1
  O  O374  1  0.12673699  0.88830092  0.63417043  1
  O  O375  1  0.62659069  0.38003495  0.13306476  1
  O  O376  1  0.64031856  0.37136577  0.61846460  1
  O  O377  1  0.62876127  0.88119272  0.12852945  1
  O  O378  1  0.62832852  0.89132901  0.62634472  1
  O  O379  1  0.12168483  0.25603078  0.25691980  1
  O  O380  1  0.12394555  0.25300901  0.75725236  1
  O  O381  1  0.11385845  0.75938410  0.24396480  1
  O  O382  1  0.13286764  0.76882559  0.74186434  1
  O  O383  1  0.62160174  0.24819444  0.25682236  1
  O  O384  1  0.61515809  0.25248711  0.74751506  1
  O  O385  1  0.63009587  0.75562235  0.25865126  1
  O  O386  1  0.61406945  0.75016012  0.74887419  1
  O  O387  1  0.37319920  0.24332877  0.23620236  1
  O  O388  1  0.38525504  0.25190105  0.74559486  1
  O  O389  1  0.37478682  0.73329115  0.24382871  1
  O  O390  1  0.38776812  0.74082174  0.74202745  1
  O  O391  1  0.88398343  0.23521713  0.25746691  1
  O  O392  1  0.88339420  0.24021906  0.73882373  1
  O  O393  1  0.87656992  0.73508241  0.25392690  1
  O  O394  1  0.86965383  0.73746578  0.75268954  1
  O  O395  1  0.38178651  0.49258692  0.49357130  1
  O  O396  1  0.37198630  0.49199938  0.99196325  1
  O  O397  1  0.35358864  0.98771710  0.50410116  1
  O  O398  1  0.38894367  0.99341160  1.01176941  1
  O  O399  1  0.88767624  0.49487723  0.50334715  1
  O  O400  1  0.88463377  0.50729423  0.98953548  1
  O  O401  1  0.88802311  1.00449825  0.49375111  1
  O  O402  1  0.88043081  0.99801244  0.99395378  1
  O  O403  1  0.11843403  0.00277429  0.00619605  1
  O  O404  1  0.13132355  0.00678553  0.51122715  1
  O  O405  1  0.11896820  0.51056732  0.00834742  1
  O  O406  1  0.11807434  0.50547991  0.50514969  1
  O  O407  1  0.61562146  0.00323385  0.00795388  1
  O  O408  1  0.62795237  0.01416444  0.51167671  1
  O  O409  1  0.62969060  0.50287643  0.01644672  1
  O  O410  1  0.61994856  0.50553015  0.49843641  1
  O  O411  1  0.36736588  0.37104743  0.11851070  1
  O  O412  1  0.37155160  0.36970480  0.62103041  1
  O  O413  1  0.37370695  0.86333654  0.12315404  1
  O  O414  1  0.36868777  0.85639898  0.63547105  1
  O  O415  1  0.86562188  0.37717997  0.13129974  1
  O  O416  1  0.86970837  0.36909859  0.61710389  1
  O  O417  1  0.86975521  0.88403520  0.11136171  1
  O  O418  1  0.86927958  0.87290383  0.62877274  1
  O  O419  1  0.11982249  0.12413508  0.39170117  1
  O  O420  1  0.12923759  0.13333292  0.88123365  1
  O  O421  1  0.13114866  0.61781800  0.38399800  1
  O  O422  1  0.13724202  0.62296899  0.88473347  1
  O  O423  1  0.62598068  0.13272207  0.38896550  1
  O  O424  1  0.62536635  0.12319368  0.89313481  1
  O  O425  1  0.62132634  0.63031453  0.38425734  1
  O  O426  1  0.63602336  0.62188929  0.87688693  1
