# generated using pymatgen
data_V85Zn86O256
_symmetry_space_group_name_H-M   'P 1'
_cell_length_a   16.92441141
_cell_length_b   16.93357756
_cell_length_c   16.93235470
_cell_angle_alpha   90.07691700
_cell_angle_beta   89.95866890
_cell_angle_gamma   89.93602295
_symmetry_Int_Tables_number   1
_chemical_formula_structural   V85Zn86O256
_chemical_formula_sum   'V85 Zn86 O256'
_cell_volume   4852.64897487
_cell_formula_units_Z   1
loop_
 _symmetry_equiv_pos_site_id
 _symmetry_equiv_pos_as_xyz
  1  'x, y, z'
loop_
 _atom_site_type_symbol
 _atom_site_label
 _atom_site_symmetry_multiplicity
 _atom_site_fract_x
 _atom_site_fract_y
 _atom_site_fract_z
 _atom_site_occupancy
  V  V0  1  0.25184086  0.11799438  0.87506427  1
  V  V1  1  0.49348745  0.87657696  0.37523414  1
  V  V2  1  0.62435222  0.62492014  0.50264276  1
  V  V3  1  0.24756340  0.74161657  0.00531324  1
  V  V4  1  0.49354220  0.00236286  0.00261683  1
  V  V5  1  0.87973640  0.49197349  0.36839683  1
  V  V6  1  0.00237000  0.51621890  0.00095613  1
  V  V7  1  0.62636630  0.74969165  0.37426414  1
  V  V8  1  0.38050443  0.24716234  0.12790565  1
  V  V9  1  0.61986822  0.38116401  0.24775970  1
  V  V10  1  0.62340563  0.00324299  0.12931888  1
  V  V11  1  -0.00089999  0.73698823  0.25230460  1
  V  V12  1  0.37319884  0.61321341  0.24932797  1
  V  V13  1  0.62444611  -0.00358055  0.62367294  1
  V  V14  1  0.87621171  0.37666050  -0.00076532  1
  V  V15  1  -0.00203861  0.12404387  0.13045033  1
  V  V16  1  0.49525634  0.87990684  0.87739534  1
  V  V17  1  0.37425369  0.11718624  0.75349249  1
  V  V18  1  0.62491197  0.24922461  0.87427992  1
  V  V19  1  0.49995696  0.12075120  0.62476854  1
  V  V20  1  0.12463177  0.12664411  0.00121523  1
  V  V21  1  0.49637613  0.75036611  0.75002891  1
  V  V22  1  -0.00188534  0.75186482  0.75765316  1
  V  V23  1  0.63097331  0.87924940  0.25165676  1
  V  V24  1  0.63149608  0.11933947  0.49324278  1
  V  V25  1  0.12602410  0.51419486  0.12017945  1
  V  V26  1  0.24626022  0.37760566  0.12805295  1
  V  V27  1  0.75009799  0.25099204  -0.00200822  1
  V  V28  1  0.87363156  0.12627316  0.74614403  1
  V  V29  1  0.31391430  0.80388212  0.56466619  1
  V  V30  1  0.56553627  0.45277145  0.56199323  1
  V  V31  1  0.75251526  0.12158361  0.87889625  1
  V  V32  1  0.00103579  0.49629006  0.49411959  1
  V  V33  1  0.88679220  0.87708356  0.00026986  1
  V  V34  1  0.88035747  0.73816887  0.12863894  1
  V  V35  1  0.35840184  0.00238684  0.37295120  1
  V  V36  1  -0.00037997  -0.00407667  0.49655064  1
  V  V37  1  0.49807026  0.62970515  0.62037777  1
  V  V38  1  0.38097731  0.49599997  0.39166850  1
  V  V39  1  0.49967615  0.37576259  0.87539371  1
  V  V40  1  0.00277442  0.37399333  0.87632854  1
  V  V41  1  0.62434344  0.87523376  0.75100173  1
  V  V42  1  0.13380329  0.00129241  0.12990759  1
  V  V43  1  0.12396308  0.49930352  0.62578794  1
  V  V44  1  0.37294224  0.37442831  0.00197707  1
  V  V45  1  -0.00033897  0.12496779  0.62332920  1
  V  V46  1  0.75010531  0.87311937  0.62420092  1
  V  V47  1  0.49646899  0.74839504  0.24880672  1
  V  V48  1  0.75236192  0.74909720  0.49949277  1
  V  V49  1  0.12847234  0.62696444  0.50171417  1
  V  V50  1  0.12393778  0.88107161  0.25937421  1
  V  V51  1  0.37515811  0.50284053  0.87874258  1
  V  V52  1  0.62064116  0.12427689  0.00357263  1
  V  V53  1  0.36749799  0.12094224  0.24911553  1
  V  V54  1  0.74714954  0.50187464  0.74151483  1
  V  V55  1  0.88536909  -0.00621189  0.87568513  1
  V  V56  1  0.62589194  0.24981515  0.37138015  1
  V  V57  1  0.87200952  0.00500864  0.36416606  1
  V  V58  1  0.87758612  0.74251282  0.62841591  1
  V  V59  1  0.88026252  0.36350182  0.50298489  1
  V  V60  1  -0.00198329  0.25706067  0.25244442  1
  V  V61  1  0.24933443  0.61898090  0.37254409  1
  V  V62  1  0.74536317  0.38120247  0.12276991  1
  V  V63  1  0.25506887  0.37521613  0.61503726  1
  V  V64  1  0.87862811  0.50530876  0.86619173  1
  V  V65  1  0.75233140  0.62713289  0.86705534  1
  V  V66  1  0.49363441  -0.00333652  0.49610398  1
  V  V67  1  0.12095847  0.38243439  0.25287908  1
  V  V68  1  0.76028984  0.62586914  0.37127214  1
  V  V69  1  0.75169461  0.75313898  0.00077569  1
  V  V70  1  0.87269485  0.24530213  0.12856135  1
  V  V71  1  0.37407985  0.62943942  0.74948334  1
  V  V72  1  0.62470204  0.62002197  0.00606075  1
  V  V73  1  0.87955201  0.87298532  0.49283291  1
  V  V74  1  0.13250807  -0.00636255  0.62681282  1
  V  V75  1  0.75519088  0.88101997  0.12727802  1
  V  V76  1  0.62546679  0.75257982  0.87674764  1
  V  V77  1  0.24795821  0.49840986  0.75184266  1
  V  V78  1  0.37477093  0.25122446  0.61405990  1
  V  V79  1  0.75048506  0.50630622  0.24388111  1
  V  V80  1  -0.00173247  0.25117154  0.74437492  1
  V  V81  1  0.12583987  0.75193768  0.37848186  1
  V  V82  1  0.37045029  0.87501089  0.00235820  1
  V  V83  1  0.12169532  0.75343852  0.88450805  1
  V  V84  1  0.49799229  0.24926379  0.75180978  1
  Zn  Zn85  1  -0.00321649  0.62256200  0.63010863  1
  Zn  Zn86  1  0.76036121  0.24243144  0.50160544  1
  Zn  Zn87  1  0.23971542  0.62221164  0.88156170  1
  Zn  Zn88  1  0.12572546  0.24752453  0.87261270  1
  Zn  Zn89  1  0.13766397  0.12616246  0.49325541  1
  Zn  Zn90  1  0.62560552  0.38008491  0.74915777  1
  Zn  Zn91  1  0.24826252  0.24994957  -0.00225632  1
  Zn  Zn92  1  0.00305380  -0.00192022  0.00107020  1
  Zn  Zn93  1  0.75177781  -0.00239678  0.75071239  1
  Zn  Zn94  1  0.49879780  0.37731017  0.38509135  1
  Zn  Zn95  1  0.75816429  0.36813519  0.62773316  1
  Zn  Zn96  1  0.12970543  0.87304308  0.75244006  1
  Zn  Zn97  1  0.50594335  0.49760035  0.00630940  1
  Zn  Zn98  1  0.25360726  0.24816191  0.48449232  1
  Zn  Zn99  1  0.25326137  0.87681810  0.13497014  1
  Zn  Zn100  1  0.12630061  0.37170862  0.75004979  1
  Zn  Zn101  1  0.12713946  0.24912271  0.37502146  1
  Zn  Zn102  1  0.25753173  -0.00962784  0.75063477  1
  Zn  Zn103  1  0.37333874  0.74922917  0.12925889  1
  Zn  Zn104  1  0.75338097  0.12500637  0.35736159  1
  Zn  Zn105  1  0.49936497  0.24573803  0.24953205  1
  Zn  Zn106  1  0.50478558  0.61708878  0.13111678  1
  Zn  Zn107  1  0.19009523  0.19367329  0.19056516  1
  Zn  Zn108  1  0.18698386  0.18466546  0.68177296  1
  Zn  Zn109  1  0.19077249  0.69148192  0.19271084  1
  Zn  Zn110  1  0.18613050  0.68911946  0.69179490  1
  Zn  Zn111  1  0.68373776  0.19220726  0.18498334  1
  Zn  Zn112  1  0.68916358  0.18613989  0.68709603  1
  Zn  Zn113  1  0.69141955  0.69247282  0.18817367  1
  Zn  Zn114  1  0.68486377  0.68706771  0.68629262  1
  Zn  Zn115  1  0.31134803  0.31861516  0.31028507  1
  Zn  Zn116  1  0.31068100  0.30849715  0.81177866  1
  Zn  Zn117  1  0.30828115  0.81008341  0.32003666  1
  Zn  Zn118  1  0.30737365  0.81415438  0.81672405  1
  Zn  Zn119  1  0.80947216  0.31242532  0.31170606  1
  Zn  Zn120  1  0.81497025  0.31409245  0.80952859  1
  Zn  Zn121  1  0.81719308  0.81382872  0.31152612  1
  Zn  Zn122  1  0.81528120  0.81381746  0.81113597  1
  Zn  Zn123  1  0.19213590  0.43755751  0.43433821  1
  Zn  Zn124  1  0.18554198  0.43871185  0.94078200  1
  Zn  Zn125  1  0.18627629  0.92998309  0.44808980  1
  Zn  Zn126  1  0.18620754  0.93575628  0.93752223  1
  Zn  Zn127  1  0.70004104  0.43121385  0.42972936  1
  Zn  Zn128  1  0.68978974  0.43918203  0.93037980  1
  Zn  Zn129  1  0.69099444  0.93787246  0.43472425  1
  Zn  Zn130  1  0.69138873  0.93986662  0.94080170  1
  Zn  Zn131  1  0.31158229  0.06524059  0.06509053  1
  Zn  Zn132  1  0.31311379  0.06292485  0.55993656  1
  Zn  Zn133  1  0.31426751  0.56206434  0.06794147  1
  Zn  Zn134  1  0.31011772  0.57227723  0.56480060  1
  Zn  Zn135  1  0.81589685  0.06027768  0.18513329  1
  Zn  Zn136  1  0.81396001  0.05905897  0.56144282  1
  Zn  Zn137  1  0.81130755  0.56214056  0.05535614  1
  Zn  Zn138  1  0.81424411  0.55959844  0.55717212  1
  Zn  Zn139  1  0.44012592  0.44082326  0.18442783  1
  Zn  Zn140  1  0.43194190  0.43613103  0.69190354  1
  Zn  Zn141  1  0.43828718  0.94037109  0.18942522  1
  Zn  Zn142  1  0.43293293  0.93253751  0.68430661  1
  Zn  Zn143  1  0.93731240  0.44293138  0.18188352  1
  Zn  Zn144  1  0.93796919  0.43675117  0.68540127  1
  Zn  Zn145  1  0.94990826  0.92880741  0.18749243  1
  Zn  Zn146  1  0.93977071  0.93385117  0.68578959  1
  Zn  Zn147  1  0.06015808  0.06182626  0.31370206  1
  Zn  Zn148  1  0.06418597  0.06268789  0.81082777  1
  Zn  Zn149  1  0.06399490  0.56062321  0.31030790  1
  Zn  Zn150  1  0.06162760  0.57105489  0.81232243  1
  Zn  Zn151  1  0.55584666  0.06593788  0.30776401  1
  Zn  Zn152  1  0.56215142  0.06022370  0.81433168  1
  Zn  Zn153  1  0.56309943  0.56061568  0.31631058  1
  Zn  Zn154  1  0.56338677  0.56349792  0.81441742  1
  Zn  Zn155  1  0.44032723  0.18331749  0.43152498  1
  Zn  Zn156  1  0.43483638  0.18680359  0.93796111  1
  Zn  Zn157  1  0.43716096  0.68544547  0.43582188  1
  Zn  Zn158  1  0.43663778  0.69067856  0.93944782  1
  Zn  Zn159  1  0.96441019  0.17508859  0.42269543  1
  Zn  Zn160  1  0.93878914  0.18596815  0.93917065  1
  Zn  Zn161  1  0.94320155  0.68431229  0.43743566  1
  Zn  Zn162  1  0.93457654  0.69128284  0.93466617  1
  Zn  Zn163  1  0.06148328  0.31408071  0.06303561  1
  Zn  Zn164  1  0.06395208  0.31189964  0.56111767  1
  Zn  Zn165  1  0.06626447  0.80984162  0.07128684  1
  Zn  Zn166  1  0.06193357  0.81159783  0.56458961  1
  Zn  Zn167  1  0.56172407  0.31535232  0.06240321  1
  Zn  Zn168  1  0.58311408  0.28945951  0.57344735  1
  Zn  Zn169  1  0.56280749  0.81269305  0.06495283  1
  Zn  Zn170  1  0.55552041  0.81092387  0.56121386  1
  O  O171  1  0.12145569  0.12137910  0.12137518  1
  O  O172  1  0.11321687  0.11385554  0.62360498  1
  O  O173  1  0.13144460  0.61226505  0.12990646  1
  O  O174  1  0.12630905  0.61355381  0.61883076  1
  O  O175  1  0.62818867  0.11767611  0.11191216  1
  O  O176  1  0.61861099  0.11537535  0.61650439  1
  O  O177  1  0.62986989  0.63349618  0.10851577  1
  O  O178  1  0.61959575  0.62559669  0.61126823  1
  O  O179  1  0.37863287  0.39230297  0.37138864  1
  O  O180  1  0.37752076  0.38280187  0.88092166  1
  O  O181  1  0.38324777  0.88867175  0.36504241  1
  O  O182  1  0.38452018  0.87179530  0.88965037  1
  O  O183  1  0.86926187  0.38740697  0.38185527  1
  O  O184  1  0.88494005  0.38250911  0.87872217  1
  O  O185  1  0.87073195  0.88239612  0.38686415  1
  O  O186  1  0.86928383  0.88324781  0.88516951  1
  O  O187  1  0.26082097  -0.00552980  0.38323711  1
  O  O188  1  0.24436276  0.01362360  0.87310870  1
  O  O189  1  0.26163025  0.51063277  0.37670721  1
  O  O190  1  0.25541502  0.50166469  0.87006174  1
  O  O191  1  0.76746843  0.00092640  0.37615391  1
  O  O192  1  0.75854487  0.00824343  0.87405619  1
  O  O193  1  0.75980007  0.50758939  0.36556164  1
  O  O194  1  0.76008421  0.50799538  0.86740715  1
  O  O195  1  0.23536861  0.49263140  0.11618417  1
  O  O196  1  0.24598912  0.49480398  0.63251713  1
  O  O197  1  0.23754881  0.99927519  0.12527409  1
  O  O198  1  0.23514345  1.00523589  0.62637581  1
  O  O199  1  0.75494826  0.49356672  0.13049494  1
  O  O200  1  0.75894133  0.50110939  0.63894538  1
  O  O201  1  0.74096701  0.98795050  0.12580603  1
  O  O202  1  0.74296854  0.99016945  0.62554038  1
  O  O203  1  0.01301743  0.37107295  0.23471583  1
  O  O204  1  -0.00062283  0.36715059  0.75651688  1
  O  O205  1  0.01742925  0.86239422  0.25154075  1
  O  O206  1  0.00456835  0.85734485  0.74303782  1
  O  O207  1  0.51390801  0.37658750  0.25030309  1
  O  O208  1  0.50111509  0.36690499  0.75691309  1
  O  O209  1  0.50866111  0.86973134  0.25784649  1
  O  O210  1  0.50293218  0.87210968  0.75957145  1
  O  O211  1  0.48086321  0.12992611  0.25249335  1
  O  O212  1  0.49501838  0.13006647  0.74783872  1
  O  O213  1  0.49508965  0.63307487  0.25343490  1
  O  O214  1  0.49466336  0.62805189  0.74423775  1
  O  O215  1  1.00517588  0.13853878  0.23620639  1
  O  O216  1  0.99254732  0.12996284  0.74305591  1
  O  O217  1  1.00342985  0.63759285  0.24889663  1
  O  O218  1  1.00048443  0.64279158  0.74610526  1
  O  O219  1  0.37411330  0.26170500  0.00471659  1
  O  O220  1  0.38231858  0.24664745  0.51190246  1
  O  O221  1  0.36836479  0.75845203  0.00436917  1
  O  O222  1  0.37106946  0.74824018  0.49997223  1
  O  O223  1  0.86996738  0.25547057  0.00732505  1
  O  O224  1  0.88285838  0.26320960  0.48696952  1
  O  O225  1  0.87016450  0.75779382  0.00718482  1
  O  O226  1  0.87310163  0.75567136  0.50345678  1
  O  O227  1  0.12761410  0.24930915  0.49573686  1
  O  O228  1  0.12476930  0.23738889  1.00045774  1
  O  O229  1  0.11315901  0.73833097  0.49151758  1
  O  O230  1  0.13276922  0.75419261  0.99647008  1
  O  O231  1  0.62599526  0.23426324  0.48665282  1
  O  O232  1  0.62733803  0.24193578  0.99543963  1
  O  O233  1  0.63076960  0.74314500  0.49375746  1
  O  O234  1  0.63234977  0.74661946  0.99493599  1
  O  O235  1  0.48451255  0.25780664  0.12474092  1
  O  O236  1  0.49655937  0.24149666  0.63386056  1
  O  O237  1  0.50093442  0.74845531  0.14000141  1
  O  O238  1  0.50473653  0.73738318  0.63442468  1
  O  O239  1  0.99013954  0.24541374  0.12708101  1
  O  O240  1  1.00165351  0.24025185  0.63341500  1
  O  O241  1  0.99307626  0.75152797  0.13861104  1
  O  O242  1  0.99265967  0.74603624  0.63219796  1
  O  O243  1  -0.01009954  0.26412349  0.35323939  1
  O  O244  1  0.00049254  0.25869119  0.86946833  1
  O  O245  1  0.00976291  0.74355852  0.36380651  1
  O  O246  1  0.00391531  0.75107955  0.86639275  1
  O  O247  1  0.51180128  0.25645508  0.37488428  1
  O  O248  1  0.50276890  0.25463100  0.86896705  1
  O  O249  1  0.50505024  0.75676687  0.36692126  1
  O  O250  1  0.50563548  0.76105235  0.87204401  1
  O  O251  1  0.24991993  0.13582784  0.50755122  1
  O  O252  1  0.24335011  0.12674810  0.99350480  1
  O  O253  1  0.23513285  0.61965809  0.49228684  1
  O  O254  1  0.25850253  0.63806886  1.00004718  1
  O  O255  1  0.73958330  0.12021402  0.49639211  1
  O  O256  1  0.73924494  0.13193328  0.98653239  1
  O  O257  1  0.74425520  0.62963823  0.49271846  1
  O  O258  1  0.74136822  0.63145508  0.98891771  1
  O  O259  1  0.25659356  0.37267377  0.00633988  1
  O  O260  1  0.24980708  0.37464924  0.51273862  1
  O  O261  1  0.25898043  0.86979580  0.00258933  1
  O  O262  1  0.25372785  0.86528343  0.50943166  1
  O  O263  1  0.75356585  0.37261435  0.00382532  1
  O  O264  1  0.76851708  0.37460494  0.50260838  1
  O  O265  1  0.75698744  0.87043835  0.00940956  1
  O  O266  1  0.75502377  0.86681980  0.50483357  1
  O  O267  1  0.11703957  0.49099895  0.23330851  1
  O  O268  1  0.13176583  0.50113406  0.74374173  1
  O  O269  1  0.11950150  0.98930091  0.24858396  1
  O  O270  1  0.12152588  0.99805136  0.73571192  1
  O  O271  1  0.63924581  0.49417221  0.25666793  1
  O  O272  1  0.63958329  0.49807888  0.75955570  1
  O  O273  1  0.61850292  0.99139371  0.24152587  1
  O  O274  1  0.62599138  0.99270316  0.74324574  1
  O  O275  1  0.37420588  0.00824324  0.25959971  1
  O  O276  1  0.37816319  0.01301872  0.74513047  1
  O  O277  1  0.37922984  0.51091296  0.25753135  1
  O  O278  1  0.36875732  0.50712753  0.76009626  1
  O  O279  1  0.88157160  -0.00768097  0.25994693  1
  O  O280  1  0.87410094  0.00399506  0.75798284  1
  O  O281  1  0.86401246  0.49519022  0.25511823  1
  O  O282  1  0.87085411  0.49672646  0.76113355  1
  O  O283  1  0.12500624  0.38704645  0.35445933  1
  O  O284  1  0.11327452  0.37447666  0.87344695  1
  O  O285  1  0.12642356  0.86686965  0.36981462  1
  O  O286  1  0.12412965  0.86066322  0.87578290  1
  O  O287  1  0.62570730  0.36828537  0.36646377  1
  O  O288  1  0.61799464  0.36621372  0.87556974  1
  O  O289  1  0.62087720  0.87116887  0.36715006  1
  O  O290  1  0.62094459  0.87052785  0.87243336  1
  O  O291  1  0.37196996  0.13383966  0.13470797  1
  O  O292  1  0.38304585  0.13134558  0.63324110  1
  O  O293  1  0.37914517  0.62814118  0.13594523  1
  O  O294  1  0.38651905  0.61746232  0.63754535  1
  O  O295  1  0.88352852  0.13386742  0.12264525  1
  O  O296  1  0.87671046  0.11730366  0.64090455  1
  O  O297  1  0.86516797  0.63993264  0.12024326  1
  O  O298  1  0.87385455  0.63935635  0.61674844  1
  O  O299  1  0.26018535  0.26049574  0.12102326  1
  O  O300  1  0.26119537  0.26047915  0.63164665  1
  O  O301  1  0.25105977  0.75540762  0.11849517  1
  O  O302  1  0.25794386  0.73969139  0.62236778  1
  O  O303  1  0.75586094  0.25833682  0.11593783  1
  O  O304  1  0.72920899  0.25753331  0.61271572  1
  O  O305  1  0.75783812  0.76266816  0.12242687  1
  O  O306  1  0.75575946  0.75435978  0.62021086  1
  O  O307  1  0.24099126  0.26189461  0.37213761  1
  O  O308  1  0.24564526  0.23822181  0.87585633  1
  O  O309  1  0.23430289  0.73677267  0.37294833  1
  O  O310  1  0.24002913  0.74692705  0.88724835  1
  O  O311  1  0.73965298  0.24675089  0.37797538  1
  O  O312  1  0.74618879  0.24450587  0.87855299  1
  O  O313  1  0.74760615  0.74315339  0.37804814  1
  O  O314  1  0.74730708  0.74393535  0.87832244  1
  O  O315  1  0.00749423  0.12433596  0.01127430  1
  O  O316  1  -0.01605606  0.11349930  0.51800610  1
  O  O317  1  -0.00626156  0.61496104  -0.00369773  1
  O  O318  1  0.00965854  0.61207688  0.50297528  1
  O  O319  1  0.50929950  0.11548881  -0.00828493  1
  O  O320  1  0.51022752  0.11459950  0.50205752  1
  O  O321  1  0.51636330  0.62891767  -0.00125914  1
  O  O322  1  0.50924022  0.62822704  0.50853671  1
  O  O323  1  0.51623160  0.38246760  0.50934480  1
  O  O324  1  0.49150904  0.37602586  0.99201599  1
  O  O325  1  0.50632786  0.88120539  0.48409295  1
  O  O326  1  0.49504118  0.88062186  0.99572139  1
  O  O327  1  0.99255881  0.38675079  0.50194806  1
  O  O328  1  0.99471316  0.38137232  0.99152522  1
  O  O329  1  0.98951989  0.88263473  0.50595956  1
  O  O330  1  0.98978319  0.87433659  1.00788032  1
  O  O331  1  0.48715429  0.50020694  0.37898174  1
  O  O332  1  0.49176411  0.49381386  0.87887621  1
  O  O333  1  0.49600542  0.99202197  0.37995787  1
  O  O334  1  0.50643314  0.98701110  0.88567785  1
  O  O335  1  0.99099634  0.50483366  0.38041962  1
  O  O336  1  0.99567869  0.49575517  0.87775711  1
  O  O337  1  0.98746650  0.99892458  0.38870222  1
  O  O338  1  0.98886008  1.00531434  0.87776949  1
  O  O339  1  0.01032821  0.00900163  0.12587184  1
  O  O340  1  0.00469722  0.00500248  0.61783947  1
  O  O341  1  0.01142505  0.49869950  0.11238550  1
  O  O342  1  0.00842299  0.50197224  0.61899982  1
  O  O343  1  0.51446117  -0.00632375  0.11629323  1
  O  O344  1  0.50335612  0.00097586  0.61499007  1
  O  O345  1  0.50394275  0.50397220  0.11921556  1
  O  O346  1  0.50193741  0.50592282  0.62526926  1
  O  O347  1  0.23675931  0.37693001  0.23522614  1
  O  O348  1  0.25004638  0.38710088  0.74675042  1
  O  O349  1  0.23051418  0.86509879  0.25150839  1
  O  O350  1  0.24581480  0.87866193  0.75325585  1
  O  O351  1  0.74145774  0.38226674  0.24084080  1
  O  O352  1  0.74800709  0.38369194  0.74675526  1
  O  O353  1  0.73896234  0.86950359  0.24426329  1
  O  O354  1  0.74225136  0.87402813  0.74225902  1
  O  O355  1  0.26588422  0.13100767  0.24958096  1
  O  O356  1  0.25859888  0.12216391  0.75531646  1
  O  O357  1  0.26065335  0.62790553  0.25962415  1
  O  O358  1  0.25763434  0.61370164  0.75332686  1
  O  O359  1  0.75055855  0.12733748  0.24453076  1
  O  O360  1  0.75591729  0.12457875  0.76080442  1
  O  O361  1  0.74477935  0.61908235  0.25902966  1
  O  O362  1  0.74468534  0.62056436  0.76035976  1
  O  O363  1  0.37588418  0.10983172  0.36758004  1
  O  O364  1  0.36665891  0.12905487  0.86555519  1
  O  O365  1  0.36879218  0.61697922  0.37064801  1
  O  O366  1  0.37681255  0.61261043  0.87259025  1
  O  O367  1  0.87606393  0.10837393  0.37646491  1
  O  O368  1  0.86887290  0.11774849  0.86929719  1
  O  O369  1  0.86426055  0.61666357  0.38144662  1
  O  O370  1  0.86427795  0.61767614  0.87852932  1
  O  O371  1  0.13185685  0.38162205  0.12661163  1
  O  O372  1  0.13256415  0.38642790  0.62867746  1
  O  O373  1  0.12624086  0.88529876  0.13777835  1
  O  O374  1  0.12063123  0.89079852  0.62360483  1
  O  O375  1  0.63764322  0.37118681  0.13001436  1
  O  O376  1  0.62148027  0.38938062  0.62378233  1
  O  O377  1  0.63280891  0.88106508  0.13187860  1
  O  O378  1  0.62789513  0.87750978  0.62882851  1
  O  O379  1  0.11561811  0.26504638  0.24677229  1
  O  O380  1  0.11231136  0.24969756  0.75075457  1
  O  O381  1  0.11599562  0.75452504  0.25728123  1
  O  O382  1  0.11529509  0.75180587  0.75822830  1
  O  O383  1  0.62116729  0.26001506  0.25496309  1
  O  O384  1  0.61217491  0.24982597  0.75509032  1
  O  O385  1  0.61890959  0.75727239  0.25633253  1
  O  O386  1  0.61738228  0.75541210  0.75668326  1
  O  O387  1  0.37706325  0.24597251  0.24294668  1
  O  O388  1  0.38582213  0.24212511  0.74532065  1
  O  O389  1  0.38303004  0.74299041  0.25429009  1
  O  O390  1  0.38030420  0.73457710  0.76532839  1
  O  O391  1  0.87961281  0.26217332  0.23408447  1
  O  O392  1  0.88617196  0.23914136  0.75616807  1
  O  O393  1  0.89004819  0.75502271  0.24482636  1
  O  O394  1  0.88538935  0.75428533  0.74207791  1
  O  O395  1  0.37301061  0.50543585  0.49037734  1
  O  O396  1  0.37396807  0.49017338  0.99393027  1
  O  O397  1  0.38687829  1.00408082  0.48853195  1
  O  O398  1  0.38732537  0.99578657  1.00756244  1
  O  O399  1  0.88362491  0.49369162  0.49039507  1
  O  O400  1  0.88097627  0.49509016  0.98856943  1
  O  O401  1  0.87968085  0.98985479  0.49462734  1
  O  O402  1  0.87875668  0.98845954  0.99058627  1
  O  O403  1  0.12312986  0.00938683  0.00946570  1
  O  O404  1  0.11573473  0.00236526  0.50811741  1
  O  O405  1  0.11627193  0.50094109  0.00953935  1
  O  O406  1  0.11945257  0.50208810  0.50551698  1
  O  O407  1  0.61863689  0.00634877  0.00673050  1
  O  O408  1  0.61665274  0.00244836  0.50081538  1
  O  O409  1  0.62823630  0.51738735  -0.00908411  1
  O  O410  1  0.63044828  0.50424437  0.49815275  1
  O  O411  1  0.36637772  0.37334119  0.11890804  1
  O  O412  1  0.36751824  0.36467199  0.63084075  1
  O  O413  1  0.37521914  0.87421078  0.11678817  1
  O  O414  1  0.37947037  0.85951556  0.62141892  1
  O  O415  1  0.86428095  0.37106582  0.11687910  1
  O  O416  1  0.87791229  0.37500828  0.60813958  1
  O  O417  1  0.86983763  0.87175040  0.11984123  1
  O  O418  1  0.86802182  0.86596510  0.61572249  1
  O  O419  1  0.08141169  0.13941298  0.39030822  1
  O  O420  1  0.12886225  0.12514193  0.88456995  1
  O  O421  1  0.13157816  0.62589184  0.38074890  1
  O  O422  1  0.12507922  0.64351686  0.87392357  1
  O  O423  1  0.62652799  0.12890814  0.37817281  1
  O  O424  1  0.63203767  0.12864190  0.88046006  1
  O  O425  1  0.63284570  0.62907317  0.38565659  1
  O  O426  1  0.63141694  0.63466752  0.88226259  1
