# generated using pymatgen
data_V85Zn86O256
_symmetry_space_group_name_H-M   'P 1'
_cell_length_a   16.94441671
_cell_length_b   16.97172866
_cell_length_c   16.97137952
_cell_angle_alpha   90.07338395
_cell_angle_beta   90.02471345
_cell_angle_gamma   90.11565048
_symmetry_Int_Tables_number   1
_chemical_formula_structural   V85Zn86O256
_chemical_formula_sum   'V85 Zn86 O256'
_cell_volume   4880.54775750
_cell_formula_units_Z   1
loop_
 _symmetry_equiv_pos_site_id
 _symmetry_equiv_pos_as_xyz
  1  'x, y, z'
loop_
 _atom_site_type_symbol
 _atom_site_label
 _atom_site_symmetry_multiplicity
 _atom_site_fract_x
 _atom_site_fract_y
 _atom_site_fract_z
 _atom_site_occupancy
  V  V0  1  0.50462225  0.75005769  0.25278134  1
  V  V1  1  0.36961536  0.50057114  0.87066735  1
  V  V2  1  0.49930720  0.25105513  0.74997936  1
  V  V3  1  0.62662056  0.37347102  0.24806173  1
  V  V4  1  0.38012154  0.62261338  0.25316433  1
  V  V5  1  0.76009736  0.62232419  0.38023755  1
  V  V6  1  0.63212628  0.12984600  -0.00067257  1
  V  V7  1  0.75885271  0.12410218  0.37822100  1
  V  V8  1  0.49896931  0.50012446  -0.00243532  1
  V  V9  1  0.49949779  0.37549561  0.87247925  1
  V  V10  1  0.37021295  0.37391488  -0.00241077  1
  V  V11  1  0.36864164  0.12564723  0.75559677  1
  V  V12  1  0.50396801  -0.00046746  0.50015423  1
  V  V13  1  0.50099819  0.24780465  0.24854457  1
  V  V14  1  0.12556914  0.26893893  0.84252466  1
  V  V15  1  0.87854098  0.62854830  0.75400953  1
  V  V16  1  0.37255817  0.36703826  0.50144264  1
  V  V17  1  0.75489520  0.37159067  0.10930899  1
  V  V18  1  0.24397058  0.62873351  0.87643871  1
  V  V19  1  0.00486585  0.12803821  0.12725524  1
  V  V20  1  0.24044750  0.74555785  0.50262587  1
  V  V21  1  0.63119427  0.49434099  0.62522058  1
  V  V22  1  -0.01790319  0.36742988  0.37060899  1
  V  V23  1  0.62562667  0.24941429  0.37506994  1
  V  V24  1  0.24681089  0.37315732  0.12454234  1
  V  V25  1  0.76078980  0.00372198  0.24919101  1
  V  V26  1  0.36617920  0.12040213  0.24938525  1
  V  V27  1  0.75380697  0.75295033  0.00021100  1
  V  V28  1  0.13221696  0.25512035  0.37230077  1
  V  V29  1  0.11399229  -0.00541107  0.61490765  1
  V  V30  1  0.62870329  0.87955670  0.25378513  1
  V  V31  1  0.63348871  0.00189300  0.63346988  1
  V  V32  1  0.75616054  0.26238493  0.50455580  1
  V  V33  1  0.37605826  0.49897693  0.37806338  1
  V  V34  1  0.88138762  0.13547453  0.25171393  1
  V  V35  1  0.50326997  -0.00544260  -0.00593374  1
  V  V36  1  0.24174823  0.36925814  0.62455472  1
  V  V37  1  0.49897466  0.75507228  0.75614529  1
  V  V38  1  0.11750235  0.62995543  0.00145223  1
  V  V39  1  0.36650891  -0.00295813  0.37229560  1
  V  V40  1  0.87781674  0.25217649  0.10712516  1
  V  V41  1  0.50061598  0.49947021  0.50099405  1
  V  V42  1  0.13174145  0.12548638  -0.01467890  1
  V  V43  1  0.04399813  0.68500097  0.18955956  1
  V  V44  1  0.50185688  0.12068575  0.12341633  1
  V  V45  1  0.63175381  0.62838014  0.50156506  1
  V  V46  1  0.24829082  0.87776205  0.62679660  1
  V  V47  1  0.62859222  0.87954522  0.75827833  1
  V  V48  1  -0.00619306  -0.00037884  0.00106013  1
  V  V49  1  0.62086332  0.75344069  0.88051497  1
  V  V50  1  -0.00127864  0.88208308  0.36852378  1
  V  V51  1  0.87689323  0.26721886  0.62704638  1
  V  V52  1  0.00390664  0.63135432  0.60941685  1
  V  V53  1  0.75591897  0.49702329  0.25221793  1
  V  V54  1  0.63626429  0.75284549  0.37913288  1
  V  V55  1  0.50525032  0.87595780  0.37655902  1
  V  V56  1  0.62752801  0.12610194  0.50135877  1
  V  V57  1  0.11442319  0.50115840  0.12979579  1
  V  V58  1  0.25108588  0.49650008  0.25163747  1
  V  V59  1  0.62549090  0.49864723  0.12469778  1
  V  V60  1  0.63585927  0.25339893  0.87573854  1
  V  V61  1  0.74690207  0.86263125  0.62146252  1
  V  V62  1  0.49940480  0.62459877  0.12424146  1
  V  V63  1  0.75848677  0.87766606  0.12407050  1
  V  V64  1  0.75544474  0.49436376  0.74763786  1
  V  V65  1  0.24199310  0.62174367  0.38291770  1
  V  V66  1  0.87646237  0.62483643  0.24753065  1
  V  V67  1  0.23555383  0.49891373  0.75009263  1
  V  V68  1  -0.00664684  0.12203384  0.62686390  1
  V  V69  1  -0.00698421  0.48343378  0.49957555  1
  V  V70  1  0.50083837  0.62634556  0.62627165  1
  V  V71  1  0.37640205  0.75029683  0.62554905  1
  V  V72  1  -0.00252000  0.86800034  0.87807441  1
  V  V73  1  0.14014007  -0.00063790  0.13102310  1
  V  V74  1  0.12531954  0.13205540  0.50023912  1
  V  V75  1  0.87352776  -0.00387208  0.86731988  1
  V  V76  1  0.49925721  0.12363673  0.62639787  1
  V  V77  1  0.12213977  0.87069909  0.75471215  1
  V  V78  1  0.37178375  -0.00542239  0.87229729  1
  V  V79  1  0.37757828  0.76460335  0.12565621  1
  V  V80  1  0.87801526  0.75255008  0.12720583  1
  V  V81  1  0.75213510  0.12161813  0.86656308  1
  V  V82  1  0.37362939  0.24930819  0.12299890  1
  V  V83  1  0.25020424  0.75751636  -0.00093831  1
  V  V84  1  0.37629022  0.87402548  0.50105400  1
  Zn  Zn85  1  0.00106583  0.74960301  0.74943179  1
  Zn  Zn86  1  0.24200164  0.00358383  0.75522977  1
  Zn  Zn87  1  0.88334474  0.87900135  0.49078986  1
  Zn  Zn88  1  0.49968702  0.37418123  0.37436182  1
  Zn  Zn89  1  -0.01324132  0.49108341  0.00102674  1
  Zn  Zn90  1  0.62890104  0.37462381  0.74564532  1
  Zn  Zn91  1  0.11762105  0.36938397  0.24975607  1
  Zn  Zn92  1  0.62831957  0.00155461  0.12342265  1
  Zn  Zn93  1  0.12410480  0.50486867  0.61672205  1
  Zn  Zn94  1  0.75088612  0.62523345  0.87650982  1
  Zn  Zn95  1  0.62459339  0.62645235  -0.00066374  1
  Zn  Zn96  1  0.87380453  0.12571334  0.74580073  1
  Zn  Zn97  1  0.37186386  0.24685009  0.62168053  1
  Zn  Zn98  1  0.24883260  0.24548454  -0.01353869  1
  Zn  Zn99  1  0.37808773  0.87537514  -0.00411192  1
  Zn  Zn100  1  0.87017805  0.74783589  0.61577310  1
  Zn  Zn101  1  -0.00353031  0.37523449  0.86662830  1
  Zn  Zn102  1  0.11643300  0.74703950  0.37346590  1
  Zn  Zn103  1  0.13278745  -0.12728126  0.24924411  1
  Zn  Zn104  1  0.86976110  0.48573420  0.88849727  1
  Zn  Zn105  1  0.37225662  0.62688279  0.75036623  1
  Zn  Zn106  1  0.25158852  0.12643556  0.38252135  1
  Zn  Zn107  1  0.18544242  0.18790992  0.18720564  1
  Zn  Zn108  1  0.18956151  0.18285186  0.67926146  1
  Zn  Zn109  1  0.20854869  0.68717051  0.18813189  1
  Zn  Zn110  1  0.18419983  0.68810314  0.68964288  1
  Zn  Zn111  1  0.69358913  0.19034934  0.18421331  1
  Zn  Zn112  1  0.69050057  0.19132861  0.68767299  1
  Zn  Zn113  1  0.69016078  0.68759999  0.18887664  1
  Zn  Zn114  1  0.68568907  0.68324744  0.69520344  1
  Zn  Zn115  1  0.31109408  0.31022908  0.31303178  1
  Zn  Zn116  1  0.30521978  0.31192606  0.80920146  1
  Zn  Zn117  1  0.31121068  0.80833330  0.31692985  1
  Zn  Zn118  1  0.31139092  0.81484697  0.81331961  1
  Zn  Zn119  1  0.80912719  0.30646133  0.30602295  1
  Zn  Zn120  1  0.82142758  0.31571717  0.80800959  1
  Zn  Zn121  1  0.81938154  0.81081408  0.31309656  1
  Zn  Zn122  1  0.81188908  0.81262314  0.81135510  1
  Zn  Zn123  1  0.18212461  0.43877391  0.44558091  1
  Zn  Zn124  1  0.15538487  0.42497339  0.95268242  1
  Zn  Zn125  1  0.18048616  0.93323971  0.43660953  1
  Zn  Zn126  1  0.18561521  0.94071817  0.93827716  1
  Zn  Zn127  1  0.68810840  0.43984243  0.43482158  1
  Zn  Zn128  1  0.68750440  0.44173485  0.93282518  1
  Zn  Zn129  1  0.71673758  0.95064231  0.45152256  1
  Zn  Zn130  1  0.69056845  0.93755387  0.93956298  1
  Zn  Zn131  1  0.31588294  0.06662575  0.05366506  1
  Zn  Zn132  1  0.31092292  0.06109388  0.56221784  1
  Zn  Zn133  1  0.30884482  0.56281276  0.06052376  1
  Zn  Zn134  1  0.31330106  0.55942740  0.56515432  1
  Zn  Zn135  1  0.81482913  0.06664905  0.05940990  1
  Zn  Zn136  1  0.81793552  0.05597042  0.55962322  1
  Zn  Zn137  1  0.81173320  0.56790475  0.06545222  1
  Zn  Zn138  1  0.81891316  0.56115086  0.56509836  1
  Zn  Zn139  1  0.43725550  0.43520675  0.18740566  1
  Zn  Zn140  1  0.43477311  0.43801333  0.68660276  1
  Zn  Zn141  1  0.31005023  0.93677582  0.19173562  1
  Zn  Zn142  1  0.44162979  0.93693134  0.68998218  1
  Zn  Zn143  1  0.93450349  0.43252860  0.18909139  1
  Zn  Zn144  1  0.94692486  0.44296552  0.69496033  1
  Zn  Zn145  1  0.94538454  0.93996437  0.19376343  1
  Zn  Zn146  1  0.93429747  0.93678562  0.68869062  1
  Zn  Zn147  1  0.06437852  0.06361334  0.31134644  1
  Zn  Zn148  1  0.05808328  0.05673955  0.80634668  1
  Zn  Zn149  1  0.06283631  0.54959091  0.32461761  1
  Zn  Zn150  1  0.05675163  0.56130912  0.81724563  1
  Zn  Zn151  1  0.56425593  0.06139884  0.31153423  1
  Zn  Zn152  1  0.55981493  0.06515181  0.81534690  1
  Zn  Zn153  1  0.56761831  0.56153466  0.31516546  1
  Zn  Zn154  1  0.56458328  0.56675909  0.81135199  1
  Zn  Zn155  1  0.43953078  0.18554210  0.43539440  1
  Zn  Zn156  1  0.43909866  0.18547845  0.93518070  1
  Zn  Zn157  1  0.43906337  0.68775012  0.43980744  1
  Zn  Zn158  1  0.43506833  0.68719724  0.93768663  1
  Zn  Zn159  1  0.94223275  0.18833255  0.44320228  1
  Zn  Zn160  1  0.94736894  0.18725440  0.92986495  1
  Zn  Zn161  1  0.93540756  0.70654518  0.43737250  1
  Zn  Zn162  1  0.93475185  0.68558505  0.94064290  1
  Zn  Zn163  1  0.06004286  0.30942225  0.05848118  1
  Zn  Zn164  1  0.05964789  0.30920798  0.56653502  1
  Zn  Zn165  1  0.06808936  0.82065084  0.05748747  1
  Zn  Zn166  1  0.05574463  0.81409609  0.55592071  1
  Zn  Zn167  1  0.56257551  0.31219232  0.06000452  1
  Zn  Zn168  1  0.56104831  0.31251911  0.56177427  1
  Zn  Zn169  1  0.56644435  0.81598832  0.06721321  1
  Zn  Zn170  1  0.56882118  0.81350279  0.56460087  1
  O  O171  1  0.12034647  0.11710178  0.12029324  1
  O  O172  1  0.11820715  0.11749209  0.61571457  1
  O  O173  1  0.11741382  0.62344512  0.12976327  1
  O  O174  1  0.10703163  0.62573746  0.63008098  1
  O  O175  1  0.62007943  0.12894767  0.11681804  1
  O  O176  1  0.62014137  0.11887184  0.62408876  1
  O  O177  1  0.61314697  0.62063112  0.12750764  1
  O  O178  1  0.62029472  0.62006544  0.61796418  1
  O  O179  1  0.37439582  0.38249191  0.38229479  1
  O  O180  1  0.37705606  0.38111504  0.87887714  1
  O  O181  1  0.38342631  0.87990044  0.38054595  1
  O  O182  1  0.37909269  0.88998768  0.87369055  1
  O  O183  1  0.88349159  0.36312379  0.37269771  1
  O  O184  1  0.88064744  0.37097623  0.88001578  1
  O  O185  1  0.89171347  0.87776373  0.36498296  1
  O  O186  1  0.88195399  0.88442754  0.87081204  1
  O  O187  1  0.26421562  0.00014440  0.38349406  1
  O  O188  1  0.26623173  -0.00222886  0.87345067  1
  O  O189  1  0.25559070  0.50419883  0.37338344  1
  O  O190  1  0.25603253  0.50624697  0.86669644  1
  O  O191  1  0.73890982  0.01927744  0.36038419  1
  O  O192  1  0.76160344  0.00918295  0.88485065  1
  O  O193  1  0.74503229  0.51009501  0.36396491  1
  O  O194  1  0.75103690  0.50644107  0.86393634  1
  O  O195  1  0.24740810  0.49353330  0.13383559  1
  O  O196  1  0.24641507  0.49569305  0.63351036  1
  O  O197  1  0.24501407  1.00302195  0.12003416  1
  O  O198  1  0.24516356  0.98579324  0.62509505  1
  O  O199  1  0.74245431  0.49363257  0.13324460  1
  O  O200  1  0.74115428  0.50753401  0.63250637  1
  O  O201  1  0.75065291  0.99481127  0.12950502  1
  O  O202  1  0.73501291  0.99159354  0.62936577  1
  O  O203  1  0.00005351  0.37724214  0.26702540  1
  O  O204  1  0.00072616  0.36839780  0.75155291  1
  O  O205  1  0.01374161  0.87819522  0.25727590  1
  O  O206  1  0.00483185  0.87327966  0.75765550  1
  O  O207  1  0.50746873  0.36578875  0.24863527  1
  O  O208  1  0.49993345  0.36751492  0.75495606  1
  O  O209  1  0.51889725  0.86803084  0.25964357  1
  O  O210  1  0.51009697  0.86140678  0.74601983  1
  O  O211  1  0.49523549  0.12904038  0.24124485  1
  O  O212  1  0.49258719  0.13300808  0.74501679  1
  O  O213  1  0.49905143  0.62918633  0.24576121  1
  O  O214  1  0.49927504  0.63710011  0.74333819  1
  O  O215  1  0.99469402  0.12054561  0.23689585  1
  O  O216  1  0.99925255  0.12229042  0.73165098  1
  O  O217  1  0.99352835  0.61805785  0.25584826  1
  O  O218  1  0.98954972  0.62802252  0.74585544  1
  O  O219  1  0.37037579  0.25465494  0.00255506  1
  O  O220  1  0.38182723  0.26333267  0.49897732  1
  O  O221  1  0.37409355  0.75536627  0.00844926  1
  O  O222  1  0.37138263  0.75680084  0.50736717  1
  O  O223  1  0.87937682  0.24137023  0.00937367  1
  O  O224  1  0.86180637  0.24698493  0.50936731  1
  O  O225  1  0.86741829  0.74447214  0.01602313  1
  O  O226  1  0.86781904  0.76494534  0.50375636  1
  O  O227  1  0.12373642  0.23867022  0.49339181  1
  O  O228  1  0.12923719  0.22953562  1.00582250  1
  O  O229  1  0.13889506  0.74996523  0.50129401  1
  O  O230  1  0.13807052  0.74177419  1.01138231  1
  O  O231  1  0.63289557  0.24540759  0.49659886  1
  O  O232  1  0.61683079  0.24179201  0.98696416  1
  O  O233  1  0.61906749  0.73541729  0.49290674  1
  O  O234  1  0.62955607  0.75137339  0.99525079  1
  O  O235  1  0.49361171  0.24121376  0.12718281  1
  O  O236  1  0.49950250  0.24512935  0.63646293  1
  O  O237  1  0.49658117  0.74306389  0.13080895  1
  O  O238  1  0.49737974  0.74455151  0.63124850  1
  O  O239  1  0.99033927  0.24297469  0.12160127  1
  O  O240  1  0.98155800  0.24091490  0.61561633  1
  O  O241  1  0.99540750  0.75294861  0.12334399  1
  O  O242  1  0.99713332  0.74130615  0.62576416  1
  O  O243  1  0.01124430  0.26337194  0.38388040  1
  O  O244  1  0.02693572  0.25131935  0.87843373  1
  O  O245  1  0.00392568  0.76333524  0.36939941  1
  O  O246  1  -0.00620186  0.76519787  0.87813651  1
  O  O247  1  0.50833997  0.25058760  0.36716005  1
  O  O248  1  0.50611325  0.25343632  0.86372526  1
  O  O249  1  0.51204596  0.75409377  0.37196417  1
  O  O250  1  0.50633850  0.74668264  0.86799566  1
  O  O251  1  0.23273462  0.12207007  0.50273258  1
  O  O252  1  0.23661522  0.12496058  0.99766754  1
  O  O253  1  0.25832211  0.63196320  0.49343516  1
  O  O254  1  0.24646953  0.63465093  0.99336727  1
  O  O255  1  0.74494519  0.13355315  0.49191678  1
  O  O256  1  0.73682452  0.12397172  0.99299763  1
  O  O257  1  0.74336097  0.61761145  0.49178498  1
  O  O258  1  0.74367427  0.64120996  1.00363241  1
  O  O259  1  0.24938793  0.37280412  0.01171726  1
  O  O260  1  0.26010515  0.38458127  0.51441699  1
  O  O261  1  0.25230501  0.86157557  -0.00769025  1
  O  O262  1  0.25624035  0.86596074  0.50780726  1
  O  O263  1  0.74106892  0.37799972  0.01184224  1
  O  O264  1  0.74613180  0.36031016  0.49333584  1
  O  O265  1  0.74658843  0.86470491  0.01239787  1
  O  O266  1  0.72050593  0.86111446  0.52425584  1
  O  O267  1  0.13329002  0.49707412  0.24507074  1
  O  O268  1  0.13448688  0.50777121  0.74642536  1
  O  O269  1  0.13180354  1.00778963  0.23255764  1
  O  O270  1  0.12543163  0.99088151  0.73548485  1
  O  O271  1  0.63262815  0.49348977  0.24417376  1
  O  O272  1  0.63314648  0.50286167  0.74085274  1
  O  O273  1  0.63448731  0.99381715  0.24557682  1
  O  O274  1  0.61354706  0.99051922  0.74592937  1
  O  O275  1  0.37597120  0.00757430  0.25916609  1
  O  O276  1  0.37899838  0.00565818  0.76042666  1
  O  O277  1  0.37217283  0.50257630  0.25828909  1
  O  O278  1  0.37100787  0.50337380  0.76090551  1
  O  O279  1  0.86519783  0.01390275  0.24200389  1
  O  O280  1  0.87729001  0.00557608  0.76385331  1
  O  O281  1  0.86318986  0.50675984  0.24374422  1
  O  O282  1  0.86813542  0.51358001  0.74629082  1
  O  O283  1  0.12617030  0.36243233  0.37581177  1
  O  O284  1  0.13408833  0.37054782  0.85305907  1
  O  O285  1  0.12380110  0.86527618  0.36884838  1
  O  O286  1  0.11299706  0.88723180  0.86473458  1
  O  O287  1  0.62451688  0.36770076  0.36576858  1
  O  O288  1  0.61737794  0.36828678  0.87249095  1
  O  O289  1  0.62890892  0.86829862  0.37178061  1
  O  O290  1  0.62793844  0.86499239  0.87187755  1
  O  O291  1  0.38205739  0.12873519  0.13037203  1
  O  O292  1  0.38368756  0.12523759  0.62961085  1
  O  O293  1  0.38743366  0.62624110  0.13118239  1
  O  O294  1  0.38356109  0.63167158  0.62695045  1
  O  O295  1  0.88280678  0.13495925  0.12818793  1
  O  O296  1  0.88015042  0.12267471  0.62317221  1
  O  O297  1  0.87376245  0.63461363  0.13990320  1
  O  O298  1  0.88676654  0.62774502  0.63409131  1
  O  O299  1  0.25699355  0.25828640  0.12612889  1
  O  O300  1  0.25377810  0.26554979  0.62720513  1
  O  O301  1  0.26939735  0.74148460  0.11239205  1
  O  O302  1  0.25516662  0.75728044  0.62144505  1
  O  O303  1  0.76506458  0.25824061  0.12394937  1
  O  O304  1  0.75581156  0.24904303  0.61084149  1
  O  O305  1  0.75683058  0.75849556  0.12196706  1
  O  O306  1  0.74599350  0.76029594  0.63525878  1
  O  O307  1  0.23755981  0.24777842  0.37795400  1
  O  O308  1  0.23028261  0.24981611  0.87019644  1
  O  O309  1  0.25317376  0.73716801  0.38742115  1
  O  O310  1  0.25901924  0.73902178  0.88384272  1
  O  O311  1  0.74527197  0.24179438  0.38217710  1
  O  O312  1  0.73856869  0.24427430  0.86853006  1
  O  O313  1  0.74067397  0.74164424  0.36873981  1
  O  O314  1  0.74406963  0.75122324  0.88578394  1
  O  O315  1  0.01110871  0.11800362  0.00773037  1
  O  O316  1  0.01397101  0.12412452  0.50934181  1
  O  O317  1  0.01566263  0.62563427  -0.00319700  1
  O  O318  1  -0.00418433  0.62810807  0.50885582  1
  O  O319  1  0.50926185  0.12037431  0.00487286  1
  O  O320  1  0.50729650  0.12106765  0.50682726  1
  O  O321  1  0.49966125  0.61861992  0.00907266  1
  O  O322  1  0.50808295  0.61842327  0.50606509  1
  O  O323  1  0.49291597  0.38266627  0.49834163  1
  O  O324  1  0.49216363  0.38101876  0.99287155  1
  O  O325  1  0.49820154  0.87913337  0.49598613  1
  O  O326  1  0.50219607  0.89203644  1.00909016  1
  O  O327  1  0.99661494  0.37827653  0.49476733  1
  O  O328  1  1.04422443  0.39026265  0.98471213  1
  O  O329  1  1.00135628  0.87746922  0.48212191  1
  O  O330  1  1.00616546  0.88887698  0.99091484  1
  O  O331  1  0.49500757  0.49839424  0.38164170  1
  O  O332  1  0.49278108  0.49715959  0.87768166  1
  O  O333  1  0.49571842  0.99427059  0.38111928  1
  O  O334  1  0.49051852  1.00557501  0.88551835  1
  O  O335  1  0.99991186  0.47887359  0.38640472  1
  O  O336  1  0.99122368  0.49805000  0.88004326  1
  O  O337  1  1.01401963  0.98371483  0.37134042  1
  O  O338  1  0.99123101  0.99548489  0.88192913  1
  O  O339  1  0.00533370  0.00961450  0.11673468  1
  O  O340  1  0.00450282  0.00377810  0.62372382  1
  O  O341  1  0.01202421  0.49254367  0.12513320  1
  O  O342  1  0.00084081  0.51087035  0.61416028  1
  O  O343  1  0.50448141  0.01693232  0.11466370  1
  O  O344  1  0.50844639  0.00396441  0.61908878  1
  O  O345  1  0.50416619  0.50572645  0.12018474  1
  O  O346  1  0.50576696  0.50922848  0.62180556  1
  O  O347  1  0.25178309  0.37935658  0.23928903  1
  O  O348  1  0.25919811  0.38678649  0.73274541  1
  O  O349  1  0.24763381  0.86189545  0.24463611  1
  O  O350  1  0.24247846  0.87739964  0.74267383  1
  O  O351  1  0.74573306  0.38133255  0.24298942  1
  O  O352  1  0.74800822  0.39048605  0.75034830  1
  O  O353  1  0.74676570  0.88526080  0.24817213  1
  O  O354  1  0.73361343  0.87197858  0.74510580  1
  O  O355  1  0.26425328  0.13052394  0.25317046  1
  O  O356  1  0.26514762  0.11933784  0.73864297  1
  O  O357  1  0.26254778  0.61662814  0.26140214  1
  O  O358  1  0.25065658  0.62001708  0.75830241  1
  O  O359  1  0.75868923  0.12232693  0.25489999  1
  O  O360  1  0.74523889  0.12271323  0.76385873  1
  O  O361  1  0.75656924  0.61652935  0.25557958  1
  O  O362  1  0.76192729  0.61855983  0.75074499  1
  O  O363  1  0.37588825  0.11560684  0.36760058  1
  O  O364  1  0.37939824  0.11433453  0.86491737  1
  O  O365  1  0.37239097  0.61586173  0.37288882  1
  O  O366  1  0.36519376  0.61590460  0.87551354  1
  O  O367  1  0.86993841  0.13374636  0.36719474  1
  O  O368  1  0.86810753  0.12273992  0.87195856  1
  O  O369  1  0.86418659  0.63421416  0.36445851  1
  O  O370  1  0.87265171  0.62834752  0.86156492  1
  O  O371  1  0.13278690  0.38129284  0.13098458  1
  O  O372  1  0.13907155  0.37795787  0.61685243  1
  O  O373  1  0.12371026  0.89718974  0.12403129  1
  O  O374  1  0.12971913  0.87944141  0.62738352  1
  O  O375  1  0.63140264  0.37676957  0.13091110  1
  O  O376  1  0.61886308  0.39105342  0.62459289  1
  O  O377  1  0.63916574  0.87546167  0.13782850  1
  O  O378  1  0.62733319  0.88204139  0.63898718  1
  O  O379  1  0.12615859  0.24843917  0.26762980  1
  O  O380  1  0.12462366  0.24759138  0.74599696  1
  O  O381  1  0.12029789  0.73893383  0.24092522  1
  O  O382  1  0.12271748  0.76633915  0.74757104  1
  O  O383  1  0.62211717  0.25361370  0.25394525  1
  O  O384  1  0.61738118  0.25310149  0.75596815  1
  O  O385  1  0.62433537  0.75633974  0.25889321  1
  O  O386  1  0.61799495  0.75604007  0.76077734  1
  O  O387  1  0.38308257  0.24302994  0.24521966  1
  O  O388  1  0.38198454  0.24191639  0.75057352  1
  O  O389  1  0.38523827  0.74237295  0.24416636  1
  O  O390  1  0.38256400  0.75059398  0.74471127  1
  O  O391  1  0.87317648  0.23777930  0.23855765  1
  O  O392  1  0.85979686  0.24287345  0.72824044  1
  O  O393  1  0.87185009  0.74050213  0.23714422  1
  O  O394  1  0.87530234  0.73856654  0.74483369  1
  O  O395  1  0.38210244  0.49249294  0.49550094  1
  O  O396  1  0.37699027  0.49471911  0.98891955  1
  O  O397  1  0.38362532  0.99351320  0.49461366  1
  O  O398  1  0.38309128  0.99977349  0.98853393  1
  O  O399  1  0.89415516  0.50634033  0.49894737  1
  O  O400  1  0.87479431  0.50564827  1.00248597  1
  O  O401  1  0.82572891  0.97596784  0.48624650  1
  O  O402  1  0.88893559  1.00846920  0.99255601  1
  O  O403  1  0.12070878  0.01065057  0.00820713  1
  O  O404  1  0.12988140  0.00697596  0.51125338  1
  O  O405  1  0.13950954  0.51926093  0.02056846  1
  O  O406  1  0.10391365  0.50206731  0.49954345  1
  O  O407  1  0.61899275  0.00921782  0.00059367  1
  O  O408  1  0.62293431  0.00857508  0.50925966  1
  O  O409  1  0.61680015  0.50314061  0.00610110  1
  O  O410  1  0.62115141  0.50862175  0.50553175  1
  O  O411  1  0.36826304  0.37048925  0.11695384  1
  O  O412  1  0.36883125  0.37392537  0.61580789  1
  O  O413  1  0.38028107  0.86634372  0.12499021  1
  O  O414  1  0.36774603  0.87129070  0.62230952  1
  O  O415  1  0.87087995  0.36039477  0.12482422  1
  O  O416  1  0.87755412  0.36484903  0.62591596  1
  O  O417  1  0.86548642  0.86983811  0.13425979  1
  O  O418  1  0.85302061  0.87769790  0.62980206  1
  O  O419  1  0.12514164  0.13383210  0.38459180  1
  O  O420  1  0.12073359  0.11813128  0.88490780  1
  O  O421  1  0.13922270  0.62517453  0.37089476  1
  O  O422  1  0.13660916  0.62105868  0.88596085  1
  O  O423  1  0.63086045  0.13341249  0.37947491  1
  O  O424  1  0.63104485  0.13203195  0.88064628  1
  O  O425  1  0.63536946  0.63137992  0.38251330  1
  O  O426  1  0.62781448  0.63973413  0.87711927  1
