# generated using pymatgen
data_V85Zn86O256
_symmetry_space_group_name_H-M   'P 1'
_cell_length_a   16.94474507
_cell_length_b   16.93924369
_cell_length_c   16.94537434
_cell_angle_alpha   89.94819532
_cell_angle_beta   89.96578380
_cell_angle_gamma   89.98419604
_symmetry_Int_Tables_number   1
_chemical_formula_structural   V85Zn86O256
_chemical_formula_sum   'V85 Zn86 O256'
_cell_volume   4863.84751564
_cell_formula_units_Z   1
loop_
 _symmetry_equiv_pos_site_id
 _symmetry_equiv_pos_as_xyz
  1  'x, y, z'
loop_
 _atom_site_type_symbol
 _atom_site_label
 _atom_site_symmetry_multiplicity
 _atom_site_fract_x
 _atom_site_fract_y
 _atom_site_fract_z
 _atom_site_occupancy
  V  V0  1  0.74463453  0.62676801  0.37073741  1
  V  V1  1  0.25413575  0.62073113  0.37698255  1
  V  V2  1  0.62170228  0.11983599  0.00019965  1
  V  V3  1  0.36970815  0.76040565  0.62764295  1
  V  V4  1  0.12549021  0.00004510  0.12636177  1
  V  V5  1  0.12955142  0.49822991  0.12465646  1
  V  V6  1  0.75388062  0.12466294  0.87485399  1
  V  V7  1  0.49891291  0.88569027  0.88568287  1
  V  V8  1  0.25912114  0.12371247  0.37764348  1
  V  V9  1  0.11766514  0.38036020  0.75944848  1
  V  V10  1  0.49639837  0.74125014  0.26030227  1
  V  V11  1  0.74831621  -0.00054200  0.74987953  1
  V  V12  1  0.62281374  0.00037876  0.62026147  1
  V  V13  1  0.87915117  0.12476104  0.73783777  1
  V  V14  1  0.63390976  0.37884066  0.75138556  1
  V  V15  1  0.88174624  0.49932999  0.87022016  1
  V  V16  1  0.75046560  0.25535144  0.00384044  1
  V  V17  1  0.75712058  0.74600746  0.49984392  1
  V  V18  1  0.37955886  0.12220180  0.75473372  1
  V  V19  1  0.25087709  0.49941760  0.75066621  1
  V  V20  1  -0.00536601  0.50025206  0.50294828  1
  V  V21  1  0.37460739  0.62704136  0.75068260  1
  V  V22  1  0.26029426  0.00100824  0.25001918  1
  V  V23  1  0.12739913  0.24966144  0.37939442  1
  V  V24  1  -0.00237202  0.12608375  0.12777237  1
  V  V25  1  0.50642328  0.50867336  -0.00061731  1
  V  V26  1  0.62333701  0.63015008  0.49601617  1
  V  V27  1  0.62995224  0.48490268  0.12539094  1
  V  V28  1  0.62725359  0.25085792  0.87376452  1
  V  V29  1  0.87071150  0.62492055  0.73892626  1
  V  V30  1  0.49390130  0.37223824  0.37262277  1
  V  V31  1  0.62270735  -0.00354672  0.12537519  1
  V  V32  1  0.74462372  -0.00045255  0.25420760  1
  V  V33  1  -0.00081332  0.25165181  0.75016502  1
  V  V34  1  0.62496962  0.87271501  0.75116245  1
  V  V35  1  0.49274764  0.49296743  0.50239825  1
  V  V36  1  0.37394236  0.37768018  0.00689611  1
  V  V37  1  -0.00529721  0.87546228  0.37744187  1
  V  V38  1  0.74722214  0.48700077  0.24861124  1
  V  V39  1  0.12281661  0.12675210  -0.00553984  1
  V  V40  1  0.86984938  -0.00004247  0.37855748  1
  V  V41  1  0.25036940  0.25423020  0.00723935  1
  V  V42  1  0.75289160  0.25168634  0.49993701  1
  V  V43  1  0.25808022  0.50097994  0.24817936  1
  V  V44  1  0.12265030  0.87941229  0.24897967  1
  V  V45  1  0.62877004  0.12442133  0.49236725  1
  V  V46  1  0.75772557  0.37675173  0.62168345  1
  V  V47  1  0.62929319  0.50028245  0.62694558  1
  V  V48  1  0.30946019  0.80644837  0.44409186  1
  V  V49  1  0.49991682  0.62667869  0.62600216  1
  V  V50  1  0.13039712  0.37470640  0.24608981  1
  V  V51  1  0.12304331  0.88108082  0.74196982  1
  V  V52  1  0.24685237  0.00375448  0.74425363  1
  V  V53  1  -0.00574126  0.62585457  0.12290432  1
  V  V54  1  0.25150825  0.62860082  0.88028338  1
  V  V55  1  0.61895310  0.86494671  0.25754145  1
  V  V56  1  0.36966066  0.73875601  0.11778393  1
  V  V57  1  0.87115243  0.25956223  0.12712977  1
  V  V58  1  0.86874095  0.12431092  0.25287606  1
  V  V59  1  0.00047937  0.24931620  0.25079457  1
  V  V60  1  0.25604343  0.12188540  0.87855208  1
  V  V61  1  -0.00441258  0.74543520  0.73779470  1
  V  V62  1  0.25537904  0.25865366  0.50122643  1
  V  V63  1  0.88232440  0.37451354  -0.00668270  1
  V  V64  1  0.50969931  0.62549518  0.12750701  1
  V  V65  1  0.12771034  0.75287964  0.87559089  1
  V  V66  1  0.74891646  0.61707027  0.87938013  1
  V  V67  1  0.12338085  0.63014222  0.50374053  1
  V  V68  1  0.50052019  0.37627327  0.87529579  1
  V  V69  1  -0.00412703  -0.00064880  0.00013821  1
  V  V70  1  0.48506629  -0.00273731  0.49255227  1
  V  V71  1  -0.00396907  0.87492763  0.87583496  1
  V  V72  1  0.49677366  0.12625710  0.12492014  1
  V  V73  1  0.50216045  0.75193994  0.75202427  1
  V  V74  1  0.87160095  0.86478311  0.00950799  1
  V  V75  1  -0.00399166  0.74780868  0.24722132  1
  V  V76  1  0.75162567  0.86629908  0.62446094  1
  V  V77  1  0.63015653  0.25557728  0.36761967  1
  V  V78  1  0.12444546  0.75082800  0.37799156  1
  V  V79  1  0.62698402  0.74619046  0.88633382  1
  V  V80  1  -0.00440827  0.37593034  0.38062481  1
  V  V81  1  0.87040466  0.62637907  0.24675557  1
  V  V82  1  0.12080536  0.50470148  0.62540712  1
  V  V83  1  0.37904354  0.25847422  0.62578428  1
  V  V84  1  0.12629560  0.62995452  0.00156938  1
  Zn  Zn85  1  0.12099727  0.12516967  0.52495231  1
  Zn  Zn86  1  0.50159461  0.25449901  0.24626476  1
  Zn  Zn87  1  0.00304195  0.00522258  0.52489976  1
  Zn  Zn88  1  0.25519049  0.38148238  0.62176287  1
  Zn  Zn89  1  0.75182995  0.73833647  0.00995042  1
  Zn  Zn90  1  0.50048547  0.12711175  0.62471625  1
  Zn  Zn91  1  0.49348538  0.87440498  0.37677603  1
  Zn  Zn92  1  0.37200161  0.49555359  0.37947333  1
  Zn  Zn93  1  0.37355881  0.25413895  0.12913150  1
  Zn  Zn94  1  0.24243082  0.85839211  0.11005389  1
  Zn  Zn95  1  0.37669498  0.50226629  0.87660733  1
  Zn  Zn96  1  0.12007004  0.25867345  0.87912954  1
  Zn  Zn97  1  0.87212136  -0.00272537  0.87709887  1
  Zn  Zn98  1  0.50156564  0.24982280  0.74939230  1
  Zn  Zn99  1  0.75067081  0.86306501  0.13189563  1
  Zn  Zn100  1  0.35642511  0.88118186  -0.01703239  1
  Zn  Zn101  1  0.00382258  0.49553391  -0.00403641  1
  Zn  Zn102  1  0.88389872  0.25232971  0.61657008  1
  Zn  Zn103  1  0.87125940  0.49646629  0.37724004  1
  Zn  Zn104  1  0.87636642  0.87075571  0.50406332  1
  Zn  Zn105  1  0.24952631  0.87788046  0.61992976  1
  Zn  Zn106  1  0.38022492  0.12814284  0.25442615  1
  Zn  Zn107  1  0.18862508  0.18402033  0.18927556  1
  Zn  Zn108  1  0.19390056  0.19829465  0.69341957  1
  Zn  Zn109  1  0.18488871  0.68343076  0.19280960  1
  Zn  Zn110  1  0.18674556  0.68897945  0.68816424  1
  Zn  Zn111  1  0.68758618  0.18648343  0.18719197  1
  Zn  Zn112  1  0.68798663  0.18887457  0.68509209  1
  Zn  Zn113  1  0.68399762  0.68420406  0.18422984  1
  Zn  Zn114  1  0.68880215  0.68568193  0.69009997  1
  Zn  Zn115  1  0.31532199  0.31297883  0.31075792  1
  Zn  Zn116  1  0.31250195  0.31061985  0.81760712  1
  Zn  Zn117  1  0.33201142  0.82648861  0.26720616  1
  Zn  Zn118  1  0.31200514  0.81606350  0.81080959  1
  Zn  Zn119  1  0.81284649  0.31139837  0.31595542  1
  Zn  Zn120  1  0.81501479  0.31258040  0.81061098  1
  Zn  Zn121  1  0.80837987  0.80879528  0.31213152  1
  Zn  Zn122  1  0.81164497  0.80736234  0.81629878  1
  Zn  Zn123  1  0.18291283  0.43740859  0.43768213  1
  Zn  Zn124  1  0.19137096  0.44114815  0.93916189  1
  Zn  Zn125  1  0.18495866  0.94319031  0.43238229  1
  Zn  Zn126  1  0.18510553  0.94117641  0.93313568  1
  Zn  Zn127  1  0.68352625  0.43787491  0.43867020  1
  Zn  Zn128  1  0.69183578  0.43909033  0.94025197  1
  Zn  Zn129  1  0.68489032  0.93349087  0.43618616  1
  Zn  Zn130  1  0.68720460  0.93530915  0.93906932  1
  Zn  Zn131  1  0.31259761  0.05821084  0.05768275  1
  Zn  Zn132  1  0.30830108  0.07330356  0.56808720  1
  Zn  Zn133  1  0.31461446  0.56285794  0.06260754  1
  Zn  Zn134  1  0.31047974  0.56935459  0.56379696  1
  Zn  Zn135  1  0.80948971  0.06056608  0.06572465  1
  Zn  Zn136  1  0.80721390  0.06092309  0.55993571  1
  Zn  Zn137  1  0.81191686  0.55702772  0.06198886  1
  Zn  Zn138  1  0.81104005  0.56087249  0.56065132  1
  Zn  Zn139  1  0.44218844  0.43760217  0.18905966  1
  Zn  Zn140  1  0.44068989  0.43867679  0.69126108  1
  Zn  Zn141  1  0.42104593  0.94612363  0.14254558  1
  Zn  Zn142  1  0.43880017  0.94101104  0.69148150  1
  Zn  Zn143  1  0.93984614  0.44011224  0.18938624  1
  Zn  Zn144  1  0.93922795  0.44041571  0.68840396  1
  Zn  Zn145  1  0.93709591  0.93936039  0.19015317  1
  Zn  Zn146  1  0.92849579  0.93094214  0.69324906  1
  Zn  Zn147  1  0.06022918  0.06545992  0.38168623  1
  Zn  Zn148  1  0.06179338  0.06393144  0.69497039  1
  Zn  Zn149  1  0.06458277  0.56221056  0.31375123  1
  Zn  Zn150  1  0.06012486  0.56680306  0.81170569  1
  Zn  Zn151  1  0.55978990  0.06343979  0.31345430  1
  Zn  Zn152  1  0.56443101  0.06244487  0.81189631  1
  Zn  Zn153  1  0.56422688  0.55634730  0.31160591  1
  Zn  Zn154  1  0.56579050  0.56259444  0.81160839  1
  Zn  Zn155  1  0.44021513  0.18789996  0.44232581  1
  Zn  Zn156  1  0.43838304  0.18971860  0.93949987  1
  Zn  Zn157  1  0.44021529  0.67863062  0.43623113  1
  Zn  Zn158  1  0.43876328  0.69204232  0.93997903  1
  Zn  Zn159  1  0.93413857  0.18765488  0.43601684  1
  Zn  Zn160  1  0.93937187  0.18891725  0.93206652  1
  Zn  Zn161  1  0.93656270  0.68223452  0.43467815  1
  Zn  Zn162  1  0.93870210  0.68571909  0.93384945  1
  Zn  Zn163  1  0.06154491  0.31313241  0.06475038  1
  Zn  Zn164  1  0.06656475  0.31582779  0.56818560  1
  Zn  Zn165  1  0.06023411  0.80929420  0.06201160  1
  Zn  Zn166  1  0.06176222  0.81592162  0.56101249  1
  Zn  Zn167  1  0.56131039  0.31154426  0.05895855  1
  Zn  Zn168  1  0.56478743  0.31263557  0.56135916  1
  Zn  Zn169  1  0.56303572  0.81088439  0.06801047  1
  Zn  Zn170  1  0.56105406  0.81402802  0.55996101  1
  O  O171  1  0.11745778  0.11875722  0.11864612  1
  O  O172  1  0.13310959  0.12616767  0.63578849  1
  O  O173  1  0.11912602  0.62011591  0.11749279  1
  O  O174  1  0.12912991  0.61546568  0.61870086  1
  O  O175  1  0.61975786  0.11941268  0.11787334  1
  O  O176  1  0.62357035  0.11599727  0.61817732  1
  O  O177  1  0.61319742  0.61376914  0.12198850  1
  O  O178  1  0.62032181  0.61710244  0.62179091  1
  O  O179  1  0.38938335  0.37560632  0.37911211  1
  O  O180  1  0.38613167  0.37717846  0.88221955  1
  O  O181  1  0.36543568  0.85937620  0.37712081  1
  O  O182  1  0.39326899  0.86926908  0.87275552  1
  O  O183  1  0.89116234  0.37651533  0.37072433  1
  O  O184  1  0.86902622  0.38620662  0.88049402  1
  O  O185  1  0.87839863  0.87972890  0.37635336  1
  O  O186  1  0.88055730  0.87429227  0.88377741  1
  O  O187  1  0.24754098  0.01121388  0.36217552  1
  O  O188  1  0.24683569  0.01550684  0.86659953  1
  O  O189  1  0.24886155  0.50482301  0.36898741  1
  O  O190  1  0.25316615  0.51148800  0.86835600  1
  O  O191  1  0.75612242  -0.00569696  0.36401383  1
  O  O192  1  0.74760543  0.00777328  0.86837712  1
  O  O193  1  0.74864423  0.50657922  0.36837410  1
  O  O194  1  0.75755834  0.51126361  0.87446846  1
  O  O195  1  0.23834802  0.50860138  0.13252191  1
  O  O196  1  0.24536979  0.50132653  0.63428642  1
  O  O197  1  0.23302665  1.00591499  0.13276716  1
  O  O198  1  0.25526240  0.99819738  0.63957816  1
  O  O199  1  0.73687463  0.50181739  0.13053046  1
  O  O200  1  0.73709137  0.49294951  0.61709719  1
  O  O201  1  0.74025948  0.99591825  0.13712876  1
  O  O202  1  0.73852579  0.99175134  0.62838726  1
  O  O203  1  0.01032286  0.37081094  0.25634493  1
  O  O204  1  0.00840567  0.37126052  0.74976630  1
  O  O205  1  0.00371613  0.86672632  0.25269330  1
  O  O206  1  0.00235515  0.86374814  0.75860088  1
  O  O207  1  0.50147677  0.37614341  0.26781130  1
  O  O208  1  0.51010409  0.37646139  0.76317409  1
  O  O209  1  0.50218073  0.85617527  0.25467962  1
  O  O210  1  0.50757070  0.87031000  0.75797002  1
  O  O211  1  0.49925913  0.12856136  0.24028664  1
  O  O212  1  0.49375747  0.12741408  0.74992174  1
  O  O213  1  0.50789710  0.63187973  0.24380263  1
  O  O214  1  0.49549019  0.63099554  0.74531493  1
  O  O215  1  0.98918361  0.13462895  0.24320250  1
  O  O216  1  0.98615328  0.13330354  0.75283851  1
  O  O217  1  0.99231670  0.62672920  0.24458331  1
  O  O218  1  0.98917340  0.63800727  0.75279038  1
  O  O219  1  0.36810063  0.25928651  0.00188060  1
  O  O220  1  0.36825683  0.24564422  0.51275967  1
  O  O221  1  0.38093621  0.75818706  0.01656431  1
  O  O222  1  0.37270526  0.75074985  0.50502647  1
  O  O223  1  0.87031820  0.25354648  0.00598045  1
  O  O224  1  0.85884489  0.24502289  0.49898878  1
  O  O225  1  0.87649854  0.76238253  -0.00321463  1
  O  O226  1  0.86116974  0.74650244  0.49689053  1
  O  O227  1  0.13176337  0.24932441  0.49315245  1
  O  O228  1  0.13037512  0.24528062  1.00088496  1
  O  O229  1  0.11873735  0.74238994  0.49277126  1
  O  O230  1  0.12063431  0.73803565  0.99145987  1
  O  O231  1  0.63176869  0.24271277  0.49312688  1
  O  O232  1  0.63472710  0.24478758  0.99432383  1
  O  O233  1  0.62946764  0.73494584  0.50452349  1
  O  O234  1  0.62601274  0.75104304  0.98875271  1
  O  O235  1  0.50280679  0.24137424  0.12613336  1
  O  O236  1  0.49462345  0.24920205  0.62733810  1
  O  O237  1  0.49403391  0.74067786  0.13130420  1
  O  O238  1  0.49475938  0.74676543  0.63161907  1
  O  O239  1  0.99112081  0.24584045  0.13116452  1
  O  O240  1  0.99814980  0.25702603  0.63914110  1
  O  O241  1  1.00493473  0.73463494  0.13212596  1
  O  O242  1  0.99910350  0.75480132  0.63952229  1
  O  O243  1  0.00769621  0.25733258  0.36978655  1
  O  O244  1  0.00290227  0.24895913  0.85934480  1
  O  O245  1  0.00092593  0.75907100  0.36853621  1
  O  O246  1  0.00940480  0.75687512  0.87054255  1
  O  O247  1  0.50829956  0.26041214  0.37806199  1
  O  O248  1  0.50967959  0.26040988  0.87637461  1
  O  O249  1  0.49668533  0.74713476  0.36434825  1
  O  O250  1  0.51024700  0.75116982  0.86854635  1
  O  O251  1  0.24581142  0.13649238  0.49267145  1
  O  O252  1  0.24485057  0.12931930  0.99687236  1
  O  O253  1  0.23417215  0.61887005  0.49208847  1
  O  O254  1  0.24342049  0.62158840  0.98772841  1
  O  O255  1  0.73612249  0.13282787  0.50289160  1
  O  O256  1  0.74449544  0.13280498  0.99388795  1
  O  O257  1  0.74299141  0.62761718  0.49263821  1
  O  O258  1  0.75618828  0.62239842  0.98378206  1
  O  O259  1  0.26117994  0.36783002  -0.00594611  1
  O  O260  1  0.24607278  0.36364562  0.50054236  1
  O  O261  1  0.24391803  0.87255457  -0.00219943  1
  O  O262  1  0.25139457  0.87281145  0.49762054  1
  O  O263  1  0.76089606  0.36145854  -0.00409499  1
  O  O264  1  0.74234719  0.36627566  0.50964154  1
  O  O265  1  0.76490250  0.87401588  0.00097498  1
  O  O266  1  0.74693687  0.86263275  0.50551449  1
  O  O267  1  0.13080478  0.49351898  0.24306215  1
  O  O268  1  0.12969243  0.50055555  0.74514028  1
  O  O269  1  0.12593363  0.98820987  0.24277411  1
  O  O270  1  0.13301908  0.99047878  0.75587786  1
  O  O271  1  0.63313506  0.50116844  0.23617470  1
  O  O272  1  0.62200948  0.49179737  0.73923891  1
  O  O273  1  0.62979143  0.99402380  0.24723622  1
  O  O274  1  0.62939897  0.99398389  0.74069073  1
  O  O275  1  0.36192899  -0.00170512  0.23700262  1
  O  O276  1  0.36925342  0.01489847  0.74844431  1
  O  O277  1  0.36107298  0.49315878  0.25107262  1
  O  O278  1  0.36831239  0.50828071  0.75255732  1
  O  O279  1  0.86489973  0.00545474  0.25410737  1
  O  O280  1  0.86440328  0.00808680  0.75539276  1
  O  O281  1  0.86694363  0.50894676  0.25005783  1
  O  O282  1  0.88042964  0.51585754  0.75546757  1
  O  O283  1  0.11833992  0.36593685  0.36764349  1
  O  O284  1  0.12829470  0.38103294  0.86380122  1
  O  O285  1  0.11511191  0.87004260  0.36651457  1
  O  O286  1  0.11661616  0.86759578  0.86625833  1
  O  O287  1  0.61596672  0.36157785  0.37965454  1
  O  O288  1  0.62291761  0.37362520  0.86934930  1
  O  O289  1  0.61933840  0.87735367  0.36095918  1
  O  O290  1  0.62059676  0.86568253  0.87071912  1
  O  O291  1  0.39112833  0.12646277  0.11943425  1
  O  O292  1  0.37730236  0.13789213  0.63694682  1
  O  O293  1  0.38857542  0.63205389  0.11851458  1
  O  O294  1  0.38078508  0.63588389  0.63063903  1
  O  O295  1  0.87835907  0.13167025  0.13259394  1
  O  O296  1  0.86430861  0.12778405  0.63533216  1
  O  O297  1  0.88426376  0.61622999  0.13147614  1
  O  O298  1  0.86672616  0.62365534  0.63997147  1
  O  O299  1  0.25126547  0.24379408  0.11121046  1
  O  O300  1  0.26014094  0.25778078  0.61884678  1
  O  O301  1  0.26443832  0.73629349  0.12927621  1
  O  O302  1  0.26167888  0.75430623  0.63119475  1
  O  O303  1  0.75870650  0.24429040  0.11566902  1
  O  O304  1  0.74963194  0.25970974  0.61620929  1
  O  O305  1  0.74713063  0.74995154  0.12146571  1
  O  O306  1  0.74185964  0.75552443  0.61482176  1
  O  O307  1  0.24593032  0.24877596  0.38251098  1
  O  O308  1  0.24588391  0.24021774  0.88670311  1
  O  O309  1  0.24931180  0.74673848  0.38224994  1
  O  O310  1  0.23575939  0.74314989  0.86452764  1
  O  O311  1  0.73741668  0.25590366  0.38223792  1
  O  O312  1  0.74669647  0.24235436  0.88114210  1
  O  O313  1  0.74872197  0.73486657  0.38163648  1
  O  O314  1  0.74374642  0.73831396  0.88057142  1
  O  O315  1  0.00528838  0.12164629  0.00481055  1
  O  O316  1  0.00825209  0.11723656  0.47903666  1
  O  O317  1  0.00650344  0.62241161  0.00696640  1
  O  O318  1  0.01360056  0.61600153  0.49192117  1
  O  O319  1  0.51631299  0.13066098  0.00359684  1
  O  O320  1  0.50994711  0.11366430  0.50277545  1
  O  O321  1  0.49844331  0.61335358  0.00387687  1
  O  O322  1  0.50706449  0.61822132  0.50711377  1
  O  O323  1  0.50692441  0.38395141  0.49033375  1
  O  O324  1  0.49720796  0.38389115  0.98976030  1
  O  O325  1  0.50356287  0.89070353  0.49565891  1
  O  O326  1  0.50513971  0.86922120  0.98567057  1
  O  O327  1  1.00960623  0.38514055  0.49135161  1
  O  O328  1  0.98713831  0.37437298  1.00073224  1
  O  O329  1  0.99518199  0.87902959  0.49022233  1
  O  O330  1  0.98994987  0.87600596  0.99615756  1
  O  O331  1  0.49942999  0.48930256  0.38316329  1
  O  O332  1  0.50193360  0.49568200  0.88263546  1
  O  O333  1  0.49581641  0.99930221  0.38782991  1
  O  O334  1  0.50990435  0.98434182  0.87561870  1
  O  O335  1  1.00297582  0.49155839  0.38246703  1
  O  O336  1  0.98667567  0.50722075  0.87786052  1
  O  O337  1  0.98413390  0.98337606  0.35906112  1
  O  O338  1  0.99750446  0.98159731  0.88408511  1
  O  O339  1  0.00773427  0.00497446  0.12159656  1
  O  O340  1  -0.00277735  -0.00586265  0.63496289  1
  O  O341  1  0.01191224  0.50944213  0.12443510  1
  O  O342  1  0.00931302  0.49791540  0.61676435  1
  O  O343  1  0.51687085  0.00970988  0.13249955  1
  O  O344  1  0.51154099  -0.00145543  0.61739670  1
  O  O345  1  0.50957478  0.50414329  0.12028495  1
  O  O346  1  0.50860646  0.50343891  0.61998040  1
  O  O347  1  0.23713263  0.38323232  0.25636810  1
  O  O348  1  0.24669450  0.38976748  0.75455135  1
  O  O349  1  0.23594030  0.88441460  0.24632453  1
  O  O350  1  0.24032064  0.88646043  0.75347537  1
  O  O351  1  0.75610871  0.38784096  0.25339968  1
  O  O352  1  0.73919385  0.37115033  0.74276547  1
  O  O353  1  0.74044665  0.87964467  0.25026838  1
  O  O354  1  0.74435399  0.87643894  0.74488452  1
  O  O355  1  0.25570790  0.11763068  0.25577573  1
  O  O356  1  0.25812729  0.12268377  0.76070807  1
  O  O357  1  0.24093986  0.61233662  0.26360189  1
  O  O358  1  0.25224072  0.61681067  0.75918726  1
  O  O359  1  0.75722230  0.11414173  0.24556427  1
  O  O360  1  0.75310501  0.12153323  0.75804377  1
  O  O361  1  0.75384677  0.61794540  0.25539847  1
  O  O362  1  0.76462801  0.63232409  0.76084933  1
  O  O363  1  0.36332596  0.13170667  0.37528078  1
  O  O364  1  0.36848208  0.13035614  0.86997873  1
  O  O365  1  0.35874164  0.61866659  0.38339048  1
  O  O366  1  0.36682392  0.62959718  0.87044801  1
  O  O367  1  0.87650160  0.11577835  0.36040697  1
  O  O368  1  0.86260229  0.12366125  0.87079573  1
  O  O369  1  0.86527867  0.61854001  0.36564054  1
  O  O370  1  0.86660468  0.61934540  0.86870658  1
  O  O371  1  0.12082820  0.38555626  0.13302948  1
  O  O372  1  0.13142647  0.38957475  0.63766577  1
  O  O373  1  0.12294667  0.88061367  0.13055997  1
  O  O374  1  0.12925219  0.86874593  0.63831602  1
  O  O375  1  0.62081457  0.38598897  0.12462403  1
  O  O376  1  0.63049209  0.38162553  0.63300270  1
  O  O377  1  0.62359541  0.88226811  0.13634870  1
  O  O378  1  0.63177481  0.88047106  0.62957328  1
  O  O379  1  0.12250235  0.25878598  0.25293360  1
  O  O380  1  0.11975266  0.26470073  0.75452955  1
  O  O381  1  0.11876674  0.75896364  0.25611855  1
  O  O382  1  0.11249658  0.75273022  0.75633269  1
  O  O383  1  0.62596766  0.24728270  0.26477687  1
  O  O384  1  0.62409138  0.25829727  0.75667355  1
  O  O385  1  0.61085644  0.75422644  0.24427720  1
  O  O386  1  0.62116167  0.75500346  0.75803925  1
  O  O387  1  0.38011305  0.24848340  0.24482273  1
  O  O388  1  0.37650001  0.24177960  0.74657572  1
  O  O389  1  0.39160596  0.73171110  0.24308942  1
  O  O390  1  0.38139864  0.74563806  0.74447510  1
  O  O391  1  0.87520462  0.24364154  0.24386922  1
  O  O392  1  0.88095159  0.24242639  0.74736994  1
  O  O393  1  0.87879531  0.73447587  0.25420365  1
  O  O394  1  0.88701595  0.74041123  0.75588034  1
  O  O395  1  0.38926319  0.50574806  0.50437503  1
  O  O396  1  0.38432952  0.49443022  0.99748069  1
  O  O397  1  0.38803386  1.00690981  0.50931554  1
  O  O398  1  0.38329458  0.97637716  1.03764341  1
  O  O399  1  0.89007614  0.50637735  0.49801259  1
  O  O400  1  0.87618066  0.48976493  0.99217437  1
  O  O401  1  0.87262253  0.99961810  0.48662700  1
  O  O402  1  0.87981385  0.99210097  0.99944602  1
  O  O403  1  0.11661194  0.00740122  0.00744504  1
  O  O404  1  0.11307433  0.01313668  0.47797777  1
  O  O405  1  0.12465563  0.50923634  0.00679034  1
  O  O406  1  0.11802588  0.50567983  0.50862304  1
  O  O407  1  0.63473112  0.00903776  0.01094785  1
  O  O408  1  0.62370705  0.00721688  0.50400676  1
  O  O409  1  0.61958472  0.49507279  0.01193629  1
  O  O410  1  0.61551238  0.50898232  0.50782193  1
  O  O411  1  0.38413204  0.37537872  0.11061341  1
  O  O412  1  0.37513705  0.36347750  0.63496826  1
  O  O413  1  0.36172548  0.84747146  0.15075120  1
  O  O414  1  0.37518567  0.86418765  0.63086523  1
  O  O415  1  0.88005337  0.36378869  0.11980005  1
  O  O416  1  0.86054419  0.37696661  0.63085423  1
  O  O417  1  0.87550083  0.87805671  0.11240580  1
  O  O418  1  0.85593717  0.87583425  0.62267590  1
  O  O419  1  0.13967503  0.14455265  0.36146798  1
  O  O420  1  0.13247223  0.12814112  0.89204600  1
  O  O421  1  0.13309937  0.63283208  0.38011739  1
  O  O422  1  0.12999502  0.63154073  0.88160176  1
  O  O423  1  0.61799130  0.14032024  0.38282036  1
  O  O424  1  0.63485710  0.12829639  0.88122171  1
  O  O425  1  0.63162876  0.61739623  0.38483871  1
  O  O426  1  0.64104818  0.63014022  0.86696556  1
