# generated using pymatgen
data_V85Zn86O256
_symmetry_space_group_name_H-M   'P 1'
_cell_length_a   16.90808102
_cell_length_b   16.91121969
_cell_length_c   16.90467873
_cell_angle_alpha   90.03540685
_cell_angle_beta   89.94011429
_cell_angle_gamma   89.95394874
_symmetry_Int_Tables_number   1
_chemical_formula_structural   V85Zn86O256
_chemical_formula_sum   'V85 Zn86 O256'
_cell_volume   4833.65569988
_cell_formula_units_Z   1
loop_
 _symmetry_equiv_pos_site_id
 _symmetry_equiv_pos_as_xyz
  1  'x, y, z'
loop_
 _atom_site_type_symbol
 _atom_site_label
 _atom_site_symmetry_multiplicity
 _atom_site_fract_x
 _atom_site_fract_y
 _atom_site_fract_z
 _atom_site_occupancy
  V  V0  1  0.25086679  -0.00089279  0.25285855  1
  V  V1  1  0.86991227  0.74827026  0.62295609  1
  V  V2  1  0.88313072  0.12486118  0.24151880  1
  V  V3  1  0.13056770  0.26097788  0.37334361  1
  V  V4  1  0.24642034  0.62973675  0.37224758  1
  V  V5  1  0.37538732  0.86889126  -0.00820601  1
  V  V6  1  0.63048316  0.87201561  0.24240953  1
  V  V7  1  0.37288216  0.00479756  0.37497240  1
  V  V8  1  0.13373539  0.24621715  0.87351409  1
  V  V9  1  0.36784053  0.00418978  0.87445834  1
  V  V10  1  0.00832477  0.87396048  0.38033118  1
  V  V11  1  0.12404591  0.75080731  0.88000758  1
  V  V12  1  0.50290553  -0.00353866  -0.00634857  1
  V  V13  1  0.37688608  0.49837369  0.87608703  1
  V  V14  1  0.74646832  0.75625741  -0.00053078  1
  V  V15  1  0.75067164  0.24558540  -0.00692525  1
  V  V16  1  0.39493180  0.78089884  0.64398672  1
  V  V17  1  0.25424207  0.37317339  0.61625092  1
  V  V18  1  0.12350942  0.87756957  0.74966197  1
  V  V19  1  0.12271051  0.37691190  0.75734577  1
  V  V20  1  0.11891265  0.12138426  0.48900797  1
  V  V21  1  0.51149579  0.37546069  0.87356282  1
  V  V22  1  0.62480922  0.49378695  0.62894926  1
  V  V23  1  0.63362986  0.62813479  0.49983051  1
  V  V24  1  -0.00832081  0.74735551  0.75432523  1
  V  V25  1  0.49443635  0.61843829  0.62132156  1
  V  V26  1  0.36614439  0.13274390  0.75037579  1
  V  V27  1  0.86897911  0.62766534  0.25417057  1
  V  V28  1  0.62719705  0.24906426  0.37253790  1
  V  V29  1  0.62022709  0.62769031  -0.00183563  1
  V  V30  1  0.10995773  0.01250495  0.62531114  1
  V  V31  1  0.37246909  0.12364467  0.24791588  1
  V  V32  1  0.36716947  0.87668620  0.49730407  1
  V  V33  1  0.13053253  0.62815286  0.00258252  1
  V  V34  1  0.12331613  0.00421555  0.12823779  1
  V  V35  1  0.75234526  0.12256957  0.36987258  1
  V  V36  1  0.75269923  0.37532490  0.12321757  1
  V  V37  1  0.50257951  0.00068741  0.50000272  1
  V  V38  1  0.12331261  0.49995627  0.62574769  1
  V  V39  1  -0.00477139  0.87741753  0.88144477  1
  V  V40  1  0.49401928  0.37304768  0.38041899  1
  V  V41  1  0.88715533  0.24448767  0.62240243  1
  V  V42  1  0.87069591  0.00821226  0.87858386  1
  V  V43  1  0.50969753  0.25223164  0.74749359  1
  V  V44  1  0.75265500  0.24847347  0.49937673  1
  V  V45  1  0.88197701  0.00161512  0.38001204  1
  V  V46  1  0.25093199  0.86989555  0.12010970  1
  V  V47  1  0.87651220  0.37429990  0.49920600  1
  V  V48  1  0.37543576  0.24936259  0.11894825  1
  V  V49  1  0.62569225  0.00191662  0.63021482  1
  V  V50  1  0.50155934  0.87093655  0.37644145  1
  V  V51  1  0.37831653  0.62693847  0.74737951  1
  V  V52  1  0.37658120  0.74443540  0.12135248  1
  V  V53  1  0.75331083  0.50732854  0.74932353  1
  V  V54  1  0.50197522  0.24726452  0.24747835  1
  V  V55  1  0.86877008  0.50380458  0.37667387  1
  V  V56  1  0.87660229  0.12424936  0.74891327  1
  V  V57  1  0.62675775  0.37521025  0.25043384  1
  V  V58  1  0.36912387  0.49847274  0.38152960  1
  V  V59  1  0.87806303  0.50755368  0.87147897  1
  V  V60  1  0.12336150  0.63613090  0.49825429  1
  V  V61  1  0.00424046  0.49670226  -0.00386695  1
  V  V62  1  0.13441127  0.12332103  -0.00284767  1
  V  V63  1  0.87362016  0.87597972  0.50015895  1
  V  V64  1  0.61232407  0.75917192  0.85754759  1
  V  V65  1  0.88003517  0.37727475  -0.00495845  1
  V  V66  1  0.74512404  0.00118812  0.75554986  1
  V  V67  1  0.63678361  0.74693257  0.38289147  1
  V  V68  1  -0.00097233  0.25214235  0.75836688  1
  V  V69  1  -0.00413240  0.62507158  0.63152685  1
  V  V70  1  -0.00110974  0.50107678  0.50018388  1
  V  V71  1  0.75055733  0.50198296  0.25169546  1
  V  V72  1  0.24772251  0.37773075  0.13377228  1
  V  V73  1  -0.00127379  0.00840987  0.00661129  1
  V  V74  1  0.61741353  0.50611042  0.12539785  1
  V  V75  1  0.74621413  0.87397566  0.62551373  1
  V  V76  1  0.12780578  0.49697553  0.13797644  1
  V  V77  1  0.37298454  0.61677996  0.24766257  1
  V  V78  1  -0.00086170  0.62588724  0.12554832  1
  V  V79  1  0.86880699  0.75806645  0.12668234  1
  V  V80  1  0.74887655  0.36991556  0.63336048  1
  V  V81  1  0.25117238  0.62924866  0.87605263  1
  V  V82  1  0.49953593  0.74174866  0.25055271  1
  V  V83  1  0.00757788  0.74949707  0.25610351  1
  V  V84  1  0.00721844  0.25413066  0.24284442  1
  Zn  Zn85  1  0.49826716  0.49328749  0.50035321  1
  Zn  Zn86  1  0.49829692  0.12684083  0.62397846  1
  Zn  Zn87  1  0.00250047  0.37928180  0.36856923  1
  Zn  Zn88  1  0.62651112  0.12263600  0.49726798  1
  Zn  Zn89  1  0.24862205  0.50033246  0.74970393  1
  Zn  Zn90  1  0.23960744  0.87763363  0.62131561  1
  Zn  Zn91  1  0.86746143  0.88240079  0.00950063  1
  Zn  Zn92  1  0.63359125  0.24513472  0.86789923  1
  Zn  Zn93  1  0.12887725  0.87063603  0.25432614  1
  Zn  Zn94  1  0.75659876  -0.00924296  0.24394253  1
  Zn  Zn95  1  0.37500267  0.37480860  -0.00236247  1
  Zn  Zn96  1  0.25711194  0.24325737  0.49126044  1
  Zn  Zn97  1  0.25277241  0.25018059  -0.00382142  1
  Zn  Zn98  1  0.75082377  0.63079348  0.87031416  1
  Zn  Zn99  1  0.62981249  0.12128137  -0.00463548  1
  Zn  Zn100  1  0.88277588  0.24794388  0.12066746  1
  Zn  Zn101  1  0.63090325  -0.00163952  0.12048299  1
  Zn  Zn102  1  0.24278483  0.00717750  0.75186884  1
  Zn  Zn103  1  0.37875028  0.25402575  0.61553582  1
  Zn  Zn104  1  0.49982185  0.50079629  0.00243116  1
  Zn  Zn105  1  0.50477388  0.12080146  0.12223184  1
  Zn  Zn106  1  0.25225159  0.75012033  0.50515619  1
  Zn  Zn107  1  0.18947814  0.18678742  0.18698368  1
  Zn  Zn108  1  0.18555894  0.18906342  0.68283013  1
  Zn  Zn109  1  0.19158171  0.68576200  0.18682702  1
  Zn  Zn110  1  0.19202025  0.69373625  0.68651386  1
  Zn  Zn111  1  0.69049414  0.18427537  0.18076241  1
  Zn  Zn112  1  0.69117076  0.18177385  0.68739842  1
  Zn  Zn113  1  0.68719828  0.68844938  0.18678877  1
  Zn  Zn114  1  0.68638350  0.68424636  0.68365618  1
  Zn  Zn115  1  0.31302282  0.31162626  0.31053715  1
  Zn  Zn116  1  0.31276165  0.31634499  0.80752538  1
  Zn  Zn117  1  0.31223877  0.80968438  0.31242047  1
  Zn  Zn118  1  0.30897728  0.81201165  0.81481946  1
  Zn  Zn119  1  0.81795174  0.31175604  0.31087177  1
  Zn  Zn120  1  0.81752959  0.31937522  0.81363351  1
  Zn  Zn121  1  0.81378477  0.81005646  0.31753162  1
  Zn  Zn122  1  0.80779161  0.81621715  0.81382936  1
  Zn  Zn123  1  0.18718610  0.44399093  0.43619977  1
  Zn  Zn124  1  0.19176725  0.43637634  0.94137186  1
  Zn  Zn125  1  0.18435003  0.94469609  0.43947674  1
  Zn  Zn126  1  0.18863602  0.93716025  0.93858110  1
  Zn  Zn127  1  0.68725660  0.43696529  0.44146439  1
  Zn  Zn128  1  0.68973793  0.43855353  0.93707294  1
  Zn  Zn129  1  0.69010868  0.93532297  0.43623064  1
  Zn  Zn130  1  0.68420365  0.93077808  0.93160422  1
  Zn  Zn131  1  0.31392656  0.05958068  0.06369332  1
  Zn  Zn132  1  0.30205330  0.06439799  0.56814336  1
  Zn  Zn133  1  0.31119241  0.56110441  0.06241843  1
  Zn  Zn134  1  0.30830398  0.55925096  0.56004925  1
  Zn  Zn135  1  0.80771476  0.06043897  0.06826803  1
  Zn  Zn136  1  0.81458312  0.06246087  0.56149016  1
  Zn  Zn137  1  0.80892106  0.56736176  0.06175346  1
  Zn  Zn138  1  0.81199840  0.56312365  0.56541562  1
  Zn  Zn139  1  0.43614944  0.43348867  0.19110774  1
  Zn  Zn140  1  0.43612664  0.43720673  0.69231676  1
  Zn  Zn141  1  0.44270752  0.93194587  0.18296190  1
  Zn  Zn142  1  0.43464389  0.94699121  0.68723390  1
  Zn  Zn143  1  0.93980676  0.43751265  0.18506143  1
  Zn  Zn144  1  0.93717868  0.43379688  0.68917696  1
  Zn  Zn145  1  0.94063705  0.93728577  0.19279399  1
  Zn  Zn146  1  0.93551661  0.93578776  0.69051334  1
  Zn  Zn147  1  0.06175258  0.06378910  0.31269435  1
  Zn  Zn148  1  0.05775330  0.06628036  0.81412835  1
  Zn  Zn149  1  0.05883810  0.56625901  0.31670365  1
  Zn  Zn150  1  0.06208999  0.56319266  0.81411446  1
  Zn  Zn151  1  0.56176173  0.05982634  0.31060661  1
  Zn  Zn152  1  0.55981904  0.06701023  0.81765836  1
  Zn  Zn153  1  0.56120089  0.56188763  0.31670981  1
  Zn  Zn154  1  0.56398295  0.56715056  0.81143538  1
  Zn  Zn155  1  0.43549336  0.18683580  0.43793123  1
  Zn  Zn156  1  0.44326778  0.18391772  0.93253478  1
  Zn  Zn157  1  0.43956112  0.68612431  0.44197264  1
  Zn  Zn158  1  0.44134688  0.68728252  0.93685204  1
  Zn  Zn159  1  0.94554340  0.18753304  0.43302162  1
  Zn  Zn160  1  0.94148708  0.18753514  0.93773921  1
  Zn  Zn161  1  0.93399587  0.68897214  0.43982212  1
  Zn  Zn162  1  0.93568351  0.68634088  0.94276842  1
  Zn  Zn163  1  0.06691186  0.31300180  0.06127676  1
  Zn  Zn164  1  0.06585910  0.31210455  0.56078891  1
  Zn  Zn165  1  0.06037674  0.81480674  0.06615366  1
  Zn  Zn166  1  0.05655499  0.81589147  0.56564218  1
  Zn  Zn167  1  0.56333936  0.31544207  0.06044586  1
  Zn  Zn168  1  0.56525951  0.30945519  0.56146801  1
  Zn  Zn169  1  0.55624400  0.80899373  0.05890451  1
  Zn  Zn170  1  0.55404771  0.81706307  0.58125702  1
  O  O171  1  0.13027311  0.11094373  0.11902105  1
  O  O172  1  0.11714581  0.11618464  0.62516792  1
  O  O173  1  0.12274700  0.61911791  0.11855411  1
  O  O174  1  0.11531501  0.62109068  0.62242355  1
  O  O175  1  0.62306636  0.12097717  0.11516803  1
  O  O176  1  0.62609029  0.11348998  0.61880968  1
  O  O177  1  0.63019918  0.61571405  0.11712802  1
  O  O178  1  0.61565386  0.61751899  0.61717901  1
  O  O179  1  0.38281842  0.38420700  0.36493543  1
  O  O180  1  0.38149451  0.38420154  0.87390120  1
  O  O181  1  0.38010967  0.88403263  0.37862250  1
  O  O182  1  0.36923820  0.87941966  0.88579676  1
  O  O183  1  0.87719311  0.38283881  0.38276891  1
  O  O184  1  0.87438835  0.38864580  0.88815833  1
  O  O185  1  0.87981674  0.88166402  0.38180472  1
  O  O186  1  0.88450557  0.88488749  0.87741168  1
  O  O187  1  0.25697414  -0.00549847  0.36127430  1
  O  O188  1  0.26183511  -0.00258326  0.87232704  1
  O  O189  1  0.25720270  0.51240953  0.37660895  1
  O  O190  1  0.25648154  0.51133582  0.87448612  1
  O  O191  1  0.75823324  0.00715470  0.36832465  1
  O  O192  1  0.75926139  -0.00612923  0.86881301  1
  O  O193  1  0.76107009  0.49477636  0.36994797  1
  O  O194  1  0.75724303  0.50088666  0.86541764  1
  O  O195  1  0.24286196  0.48787628  0.12176289  1
  O  O196  1  0.23956211  0.49185446  0.62638537  1
  O  O197  1  0.24664184  0.99130447  0.13501874  1
  O  O198  1  0.22951427  0.99756562  0.63221815  1
  O  O199  1  0.74498978  0.49110685  0.12989720  1
  O  O200  1  0.74686286  0.49095050  0.63067148  1
  O  O201  1  0.74520938  0.99581355  0.13169942  1
  O  O202  1  0.74452855  0.99530445  0.63068050  1
  O  O203  1  -0.00421894  0.35973413  0.24994356  1
  O  O204  1  0.00943317  0.36507604  0.74680793  1
  O  O205  1  0.00269033  0.86563388  0.26042887  1
  O  O206  1  0.00582326  0.86963918  0.76048043  1
  O  O207  1  0.50706422  0.36686211  0.25838271  1
  O  O208  1  0.49520442  0.36031538  0.75578624  1
  O  O209  1  0.50651840  0.86213184  0.25674493  1
  O  O210  1  0.47847165  0.84336155  0.68085702  1
  O  O211  1  0.49045526  0.12829428  0.24698142  1
  O  O212  1  0.49055532  0.13821013  0.74840245  1
  O  O213  1  0.49386985  0.63547852  0.25559260  1
  O  O214  1  0.48611661  0.61927396  0.74087285  1
  O  O215  1  0.99311122  0.13784945  0.25584008  1
  O  O216  1  0.98571965  0.13400816  0.75172038  1
  O  O217  1  0.98897516  0.63184560  0.24709840  1
  O  O218  1  1.00274911  0.63482974  0.74373451  1
  O  O219  1  0.37662951  0.24589729  0.01018613  1
  O  O220  1  0.36964141  0.24712363  0.50199205  1
  O  O221  1  0.38034008  0.75608805  0.00782914  1
  O  O222  1  0.38029698  0.76854188  0.50824418  1
  O  O223  1  0.87166121  0.25908496  -0.00022815  1
  O  O224  1  0.87385681  0.25224546  0.50585669  1
  O  O225  1  0.86713674  0.75153329  0.00993652  1
  O  O226  1  0.87618021  0.75720364  0.51471818  1
  O  O227  1  0.12705558  0.24617914  0.48515067  1
  O  O228  1  0.12402166  0.24077746  0.99112983  1
  O  O229  1  0.12353014  0.73883528  0.50907525  1
  O  O230  1  0.11582380  0.74024760  0.99412449  1
  O  O231  1  0.63411028  0.24541895  0.49104066  1
  O  O232  1  0.64383002  0.25512742  1.00089351  1
  O  O233  1  0.61569062  0.73636250  0.49764994  1
  O  O234  1  0.62937333  0.74470200  0.99633475  1
  O  O235  1  0.49283956  0.25119872  0.13055873  1
  O  O236  1  0.49890860  0.24953663  0.63381325  1
  O  O237  1  0.48621096  0.75230539  0.13513755  1
  O  O238  1  0.48851123  0.72382015  0.60886257  1
  O  O239  1  1.00408304  0.25112262  0.13781120  1
  O  O240  1  0.99070185  0.25548339  0.63395227  1
  O  O241  1  0.99221744  0.74423097  0.13319050  1
  O  O242  1  0.99227877  0.74430990  0.63489554  1
  O  O243  1  0.01199391  0.25557678  0.36476459  1
  O  O244  1  0.00916391  0.24943498  0.86463219  1
  O  O245  1  -0.00858321  0.75899225  0.36667779  1
  O  O246  1  -0.00046000  0.75705022  0.87194425  1
  O  O247  1  0.50596882  0.25340577  0.36672780  1
  O  O248  1  0.50063925  0.25844140  0.86385389  1
  O  O249  1  0.50480275  0.75374815  0.36983867  1
  O  O250  1  0.51275119  0.74674132  0.87221261  1
  O  O251  1  0.22691563  0.12996869  0.51037974  1
  O  O252  1  0.23860770  0.12587606  1.00351760  1
  O  O253  1  0.23976239  0.62733052  0.49540541  1
  O  O254  1  0.23795098  0.62227477  0.99371505  1
  O  O255  1  0.75248916  0.12965514  0.48592166  1
  O  O256  1  0.75777999  0.14380126  1.00317782  1
  O  O257  1  0.73310955  0.62541626  0.50923154  1
  O  O258  1  0.74022030  0.63614828  0.99740155  1
  O  O259  1  0.25618645  0.37001972  0.00963441  1
  O  O260  1  0.24054510  0.37563351  0.51407770  1
  O  O261  1  0.25774718  0.87877467  0.01202476  1
  O  O262  1  0.25500593  0.87319924  0.49480451  1
  O  O263  1  0.75915395  0.37190126  0.00673314  1
  O  O264  1  0.75773773  0.36825770  0.50878445  1
  O  O265  1  0.75076021  0.86160860  -0.00220310  1
  O  O266  1  0.76345729  0.87989420  0.50910582  1
  O  O267  1  0.11528155  0.50510314  0.23682995  1
  O  O268  1  0.12262666  0.49333254  0.74409748  1
  O  O269  1  0.13334715  0.99892176  0.24483137  1
  O  O270  1  0.11920434  0.99634561  0.74414823  1
  O  O271  1  0.63128036  0.49740312  0.24521113  1
  O  O272  1  0.63379233  0.50448664  0.73641085  1
  O  O273  1  0.62140731  0.97974462  0.25187958  1
  O  O274  1  0.63140150  1.00522606  0.74246366  1
  O  O275  1  0.37204777  0.00283682  0.25365255  1
  O  O276  1  0.37343615  0.01158226  0.75701073  1
  O  O277  1  0.38225315  0.51267264  0.25680269  1
  O  O278  1  0.37173795  0.50782187  0.76166166  1
  O  O279  1  0.87714587  0.00803211  0.25971963  1
  O  O280  1  0.87160921  0.00738405  0.75791466  1
  O  O281  1  0.87248287  0.50706377  0.25653224  1
  O  O282  1  0.86948819  0.49391601  0.76020587  1
  O  O283  1  0.12367028  0.36526081  0.37636114  1
  O  O284  1  0.12890442  0.37069348  0.86359081  1
  O  O285  1  0.11243279  0.87797458  0.37665480  1
  O  O286  1  0.11276070  0.87302607  0.87294142  1
  O  O287  1  0.62107729  0.36980297  0.36826190  1
  O  O288  1  0.61486839  0.37304016  0.87579067  1
  O  O289  1  0.61944806  0.86490382  0.37224112  1
  O  O290  1  0.62332127  0.85925616  0.86850970  1
  O  O291  1  0.37784078  0.13181426  0.13088330  1
  O  O292  1  0.37699395  0.12358761  0.63812129  1
  O  O293  1  0.36806834  0.63161871  0.13340870  1
  O  O294  1  0.37930195  0.61513403  0.63311057  1
  O  O295  1  0.87536887  0.12697301  0.13812891  1
  O  O296  1  0.87091699  0.13479254  0.63267101  1
  O  O297  1  0.88031075  0.63214782  0.13269568  1
  O  O298  1  0.88641691  0.63289689  0.62160777  1
  O  O299  1  0.25708743  0.25850033  0.12338096  1
  O  O300  1  0.24790795  0.26591936  0.62419307  1
  O  O301  1  0.26205452  0.75894939  0.13049205  1
  O  O302  1  0.26501471  0.75849539  0.62487019  1
  O  O303  1  0.75648517  0.26259415  0.11687683  1
  O  O304  1  0.75817407  0.25446015  0.62132091  1
  O  O305  1  0.75874083  0.74603569  0.11689259  1
  O  O306  1  0.75871028  0.75996793  0.63372902  1
  O  O307  1  0.23530305  0.25140627  0.36975308  1
  O  O308  1  0.23798512  0.25457288  0.87416452  1
  O  O309  1  0.25718977  0.73538988  0.38203013  1
  O  O310  1  0.24167934  0.73717077  0.87345879  1
  O  O311  1  0.74826195  0.24380453  0.37826072  1
  O  O312  1  0.75287729  0.26052002  0.88898027  1
  O  O313  1  0.73657696  0.74940508  0.37790222  1
  O  O314  1  0.74401987  0.74888888  0.88133910  1
  O  O315  1  0.00972872  0.11367766  -0.00111489  1
  O  O316  1  0.01857467  0.13534688  0.50399446  1
  O  O317  1  0.00947399  0.61850678  0.00622349  1
  O  O318  1  0.00463282  0.62099934  0.50771936  1
  O  O319  1  0.49647119  0.10733772  0.00131522  1
  O  O320  1  0.50210608  0.11108840  0.49831261  1
  O  O321  1  0.51493252  0.62113360  -0.00160962  1
  O  O322  1  0.50646181  0.61307828  0.50552205  1
  O  O323  1  0.50628866  0.37350319  0.48443945  1
  O  O324  1  0.49601082  0.37813162  0.98938334  1
  O  O325  1  0.49203080  0.88639954  0.49812906  1
  O  O326  1  0.48814106  0.88464105  1.00238633  1
  O  O327  1  0.99372875  0.38389832  0.50098608  1
  O  O328  1  0.99407093  0.38533052  1.00621392  1
  O  O329  1  0.98641933  0.87025625  0.49296704  1
  O  O330  1  0.99704211  0.88631171  0.99529859  1
  O  O331  1  0.49216889  0.48902908  0.37454737  1
  O  O332  1  0.49475028  0.49276473  0.87215648  1
  O  O333  1  0.49327542  0.99251898  0.38092336  1
  O  O334  1  0.48665944  0.99856455  0.88504391  1
  O  O335  1  0.98819709  0.49893541  0.38099851  1
  O  O336  1  0.99482680  0.50470283  0.88761429  1
  O  O337  1  0.99210080  0.98964339  0.37061058  1
  O  O338  1  0.99285797  0.99439857  0.88397252  1
  O  O339  1  0.01014997  -0.00591571  0.11889420  1
  O  O340  1  0.01120474  -0.00517458  0.62748256  1
  O  O341  1  0.00638142  0.50637159  0.11634770  1
  O  O342  1  0.00193152  0.50805852  0.62239932  1
  O  O343  1  0.50312637  -0.00216010  0.11046071  1
  O  O344  1  0.50975429  0.00413151  0.61783418  1
  O  O345  1  0.51416997  0.49163626  0.12567238  1
  O  O346  1  0.50734046  0.50005109  0.62448004  1
  O  O347  1  0.25322156  0.37373598  0.23341302  1
  O  O348  1  0.23909719  0.37870968  0.74057923  1
  O  O349  1  0.24978824  0.87991350  0.24152094  1
  O  O350  1  0.23068928  0.87604703  0.75525645  1
  O  O351  1  0.74849435  0.37981532  0.24206622  1
  O  O352  1  0.75510487  0.38221876  0.73803488  1
  O  O353  1  0.73393147  0.86970823  0.25701215  1
  O  O354  1  0.75834151  0.89167310  0.73936334  1
  O  O355  1  0.26397616  0.11527231  0.24426467  1
  O  O356  1  0.26181746  0.12866129  0.74772586  1
  O  O357  1  0.25986053  0.62838909  0.25896941  1
  O  O358  1  0.25825996  0.62318999  0.75692430  1
  O  O359  1  0.76216397  0.12968476  0.25954986  1
  O  O360  1  0.76227979  0.11294529  0.74808929  1
  O  O361  1  0.76162534  0.61947921  0.24656178  1
  O  O362  1  0.75331471  0.61120992  0.74606349  1
  O  O363  1  0.37918093  0.11098877  0.36584679  1
  O  O364  1  0.37660401  0.11936786  0.86114379  1
  O  O365  1  0.36986947  0.61794730  0.37001817  1
  O  O366  1  0.36910126  0.62243018  0.86904457  1
  O  O367  1  0.87263774  0.11874709  0.36973741  1
  O  O368  1  0.87876774  0.11466707  0.86949170  1
  O  O369  1  0.87682208  0.61743638  0.36745641  1
  O  O370  1  0.87157013  0.61241620  0.88092189  1
  O  O371  1  0.13801354  0.38206109  0.12170757  1
  O  O372  1  0.12951952  0.38115212  0.63340734  1
  O  O373  1  0.13366769  0.88402156  0.12654411  1
  O  O374  1  0.12028199  0.88286919  0.63425924  1
  O  O375  1  0.63441100  0.38153721  0.13067607  1
  O  O376  1  0.63625488  0.38187400  0.61867869  1
  O  O377  1  0.61891020  0.86679192  0.14104571  1
  O  O378  1  0.63878032  0.88561989  0.61896381  1
  O  O379  1  0.11621122  0.24205171  0.25957755  1
  O  O380  1  0.11785000  0.25413805  0.75544137  1
  O  O381  1  0.11141178  0.74839010  0.24513904  1
  O  O382  1  0.11289669  0.75727861  0.75721667  1
  O  O383  1  0.62286460  0.25430490  0.25271818  1
  O  O384  1  0.61380892  0.24628741  0.74695727  1
  O  O385  1  0.61889005  0.75327685  0.25885156  1
  O  O386  1  0.62588029  0.74347976  0.75832843  1
  O  O387  1  0.37946209  0.24074635  0.24108319  1
  O  O388  1  0.38110460  0.24244664  0.74591193  1
  O  O389  1  0.38249754  0.74097484  0.24544999  1
  O  O390  1  0.37058945  0.74275316  0.74335101  1
  O  O391  1  0.88879210  0.24306224  0.24861938  1
  O  O392  1  0.88035299  0.24595227  0.74587361  1
  O  O393  1  0.87885467  0.74377412  0.24566529  1
  O  O394  1  0.88552701  0.75831747  0.74274916  1
  O  O395  1  0.37662720  0.50033368  0.48594662  1
  O  O396  1  0.37868972  0.50374371  0.98721018  1
  O  O397  1  0.37661007  0.99616144  0.49282094  1
  O  O398  1  0.37965333  0.99248976  0.99362471  1
  O  O399  1  0.87763597  0.49739318  0.49427357  1
  O  O400  1  0.88277176  0.49682544  0.99692914  1
  O  O401  1  0.87373871  0.99425894  0.48853185  1
  O  O402  1  0.88105359  1.00220116  0.99604050  1
  O  O403  1  0.11960177  0.00529759  0.00604777  1
  O  O404  1  0.12139057  0.01215681  0.50959172  1
  O  O405  1  0.11880368  0.50674230  0.00536306  1
  O  O406  1  0.11686257  0.50946286  0.50755616  1
  O  O407  1  0.61242031  -0.00614380  -0.00342904  1
  O  O408  1  0.61768381  -0.00089616  0.50458145  1
  O  O409  1  0.62768337  0.50809131  0.00842232  1
  O  O410  1  0.62553779  0.50796611  0.51093440  1
  O  O411  1  0.36746650  0.36769653  0.12361542  1
  O  O412  1  0.35749901  0.37844004  0.63003771  1
  O  O413  1  0.36864090  0.86675588  0.11693719  1
  O  O414  1  0.35860907  0.88621772  0.61277808  1
  O  O415  1  0.86892679  0.37630144  0.11423114  1
  O  O416  1  0.86890016  0.36584401  0.61891229  1
  O  O417  1  0.88019002  0.86211888  0.12805325  1
  O  O418  1  0.86922750  0.87001505  0.61924667  1
  O  O419  1  0.12350965  0.13167516  0.38399574  1
  O  O420  1  0.12261752  0.13327411  0.88299037  1
  O  O421  1  0.13178995  0.62187181  0.38559741  1
  O  O422  1  0.13175741  0.62888893  0.88202125  1
  O  O423  1  0.63543091  0.12891110  0.37133338  1
  O  O424  1  0.62239482  0.13253805  0.88251005  1
  O  O425  1  0.62115173  0.62950336  0.39084629  1
  O  O426  1  0.62969504  0.63177628  0.88187934  1
