# generated using pymatgen
data_V85Zn86O256
_symmetry_space_group_name_H-M   'P 1'
_cell_length_a   16.97625754
_cell_length_b   16.94916681
_cell_length_c   16.95668383
_cell_angle_alpha   90.06346295
_cell_angle_beta   90.19387354
_cell_angle_gamma   90.04730844
_symmetry_Int_Tables_number   1
_chemical_formula_structural   V85Zn86O256
_chemical_formula_sum   'V85 Zn86 O256'
_cell_volume   4878.97204249
_cell_formula_units_Z   1
loop_
 _symmetry_equiv_pos_site_id
 _symmetry_equiv_pos_as_xyz
  1  'x, y, z'
loop_
 _atom_site_type_symbol
 _atom_site_label
 _atom_site_symmetry_multiplicity
 _atom_site_fract_x
 _atom_site_fract_y
 _atom_site_fract_z
 _atom_site_occupancy
  V  V0  1  0.74570321  0.00157033  0.75168225  1
  V  V1  1  0.12237620  0.86365749  0.25409617  1
  V  V2  1  0.12839744  0.25241220  0.87339745  1
  V  V3  1  0.48805541  0.62857969  0.12955005  1
  V  V4  1  -0.00155238  0.12213685  0.62045069  1
  V  V5  1  0.38214171  -0.00018475  0.37980753  1
  V  V6  1  0.37622835  0.36880900  0.50309221  1
  V  V7  1  0.49928501  0.12632085  0.12834680  1
  V  V8  1  0.37802190  0.12701039  0.25328852  1
  V  V9  1  0.37690439  0.62507262  0.75000298  1
  V  V10  1  0.62813076  0.74783232  0.37199501  1
  V  V11  1  -0.00139208  0.38054994  0.87678969  1
  V  V12  1  0.49622463  0.37252708  0.36793698  1
  V  V13  1  0.75289767  0.00146226  0.25046267  1
  V  V14  1  0.74841659  0.12307510  0.37519055  1
  V  V15  1  0.25397352  -0.00826720  0.24735569  1
  V  V16  1  0.87308194  0.37944724  0.00142491  1
  V  V17  1  0.61592669  0.00059708  0.61961364  1
  V  V18  1  0.48298770  0.74839054  0.25081601  1
  V  V19  1  0.00242979  0.50141520  0.49112544  1
  V  V20  1  0.25340412  0.49866980  0.74914785  1
  V  V21  1  0.85584710  0.62981947  0.25144975  1
  V  V22  1  0.00258316  0.63415319  0.13966383  1
  V  V23  1  0.31131132  0.81284631  0.05898616  1
  V  V24  1  0.49887707  0.50083625  0.50428891  1
  V  V25  1  0.00128401  -0.00344795  0.00192700  1
  V  V26  1  0.62411647  0.38365205  0.24983405  1
  V  V27  1  0.38534170  0.87706119  0.50277697  1
  V  V28  1  0.50587410  0.86852553  0.87733842  1
  V  V29  1  0.37797702  0.74855972  0.62712609  1
  V  V30  1  0.25569699  0.24992317  -0.00085512  1
  V  V31  1  0.13192882  -0.00433590  0.12430989  1
  V  V32  1  0.24905960  0.12282461  0.87390665  1
  V  V33  1  0.12533319  0.50102290  0.12431517  1
  V  V34  1  -0.04824782  0.31871407  0.31513857  1
  V  V35  1  0.61709514  0.24865627  0.36976878  1
  V  V36  1  0.87883910  0.88576703  0.50070962  1
  V  V37  1  0.12629903  0.50759714  0.62045433  1
  V  V38  1  0.74989509  0.87266665  0.62690845  1
  V  V39  1  0.62427878  0.00036532  0.12696288  1
  V  V40  1  0.74559154  0.61477255  0.86992065  1
  V  V41  1  0.49313688  0.13376548  0.62133398  1
  V  V42  1  0.64256647  0.49395801  0.62524309  1
  V  V43  1  0.61638526  0.25439006  0.87582820  1
  V  V44  1  -0.00462958  0.86578168  0.86773858  1
  V  V45  1  0.38228854  0.37524305  -0.00160608  1
  V  V46  1  0.74953954  0.13018570  0.87848180  1
  V  V47  1  0.24890966  0.87529076  0.62629584  1
  V  V48  1  0.25410509  0.50331625  0.24856155  1
  V  V49  1  0.11973245  -0.00355057  0.61561212  1
  V  V50  1  0.75388950  0.25047300  0.00514003  1
  V  V51  1  0.86861490  0.50451198  0.36822101  1
  V  V52  1  0.74616093  0.25350805  0.50598681  1
  V  V53  1  0.23974616  0.62637310  0.37373659  1
  V  V54  1  0.87076542  0.25305445  0.62827091  1
  V  V55  1  0.50345589  0.50026310  0.00092845  1
  V  V56  1  0.62992004  0.62319083  0.49615163  1
  V  V57  1  0.25125294  0.62942573  0.88185127  1
  V  V58  1  0.87502594  0.00091329  0.87557167  1
  V  V59  1  0.75146429  0.38148376  0.12768736  1
  V  V60  1  -0.00184450  0.25233124  0.75198884  1
  V  V61  1  0.37319244  -0.00624995  0.87530972  1
  V  V62  1  0.24828196  0.24681661  0.50028751  1
  V  V63  1  0.37541591  0.50859940  0.37283359  1
  V  V64  1  0.11781194  0.86945329  0.74342363  1
  V  V65  1  0.25378926  0.36747190  0.62678304  1
  V  V66  1  0.87329784  0.13119508  0.75509389  1
  V  V67  1  0.12799198  0.36543010  0.25162751  1
  V  V68  1  0.87270137  0.87447150  0.00127621  1
  V  V69  1  0.11253402  0.13481429  0.00524974  1
  V  V70  1  0.75114208  0.87268922  0.12692897  1
  V  V71  1  0.88019941  0.37489165  0.50916976  1
  V  V72  1  0.38052329  0.25159394  0.13161305  1
  V  V73  1  0.62164289  0.63395438  -0.00064539  1
  V  V74  1  0.62697158  0.38048791  0.75386794  1
  V  V75  1  0.49231270  -0.00326289  0.00274819  1
  V  V76  1  0.74561242  0.75240928  -0.00762681  1
  V  V77  1  0.38184464  0.49583429  0.87391326  1
  V  V78  1  0.75433870  0.74715201  0.49839185  1
  V  V79  1  0.62434325  0.12723937  0.00191500  1
  V  V80  1  -0.00424579  0.50660421  0.00065442  1
  V  V81  1  0.12706816  0.37584905  0.74945820  1
  V  V82  1  0.88722106  0.73549581  0.63376178  1
  V  V83  1  0.24734676  0.74727589  0.49793815  1
  V  V84  1  0.12622691  0.75134173  0.87762909  1
  Zn  Zn85  1  0.11588741  0.63048865  0.49777243  1
  Zn  Zn86  1  0.50512621  0.62414675  0.62846365  1
  Zn  Zn87  1  0.88238733  0.75697698  0.13308686  1
  Zn  Zn88  1  0.62697310  0.86608378  0.75437737  1
  Zn  Zn89  1  0.12652169  0.63476388  0.00583539  1
  Zn  Zn90  1  0.00614812  0.86986362  0.37222503  1
  Zn  Zn91  1  0.88547996  0.00796501  0.38332299  1
  Zn  Zn92  1  0.61968136  0.12252412  0.49756483  1
  Zn  Zn93  1  0.12094850  0.12500213  0.49844164  1
  Zn  Zn94  1  0.12400245  0.24998748  0.37466413  1
  Zn  Zn95  1  0.62326991  0.87393845  0.25340929  1
  Zn  Zn96  1  0.88723159  0.56717856  0.79885850  1
  Zn  Zn97  1  0.49445489  0.25553379  0.74917970  1
  Zn  Zn98  1  0.87705982  0.13992276  0.24764911  1
  Zn  Zn99  1  0.37625684  0.12808797  0.74910371  1
  Zn  Zn100  1  0.62797273  0.50692182  0.13290664  1
  Zn  Zn101  1  0.50293566  0.87582123  0.37823763  1
  Zn  Zn102  1  -0.00421118  0.13607060  0.13652799  1
  Zn  Zn103  1  0.25178346  0.37564896  0.12457609  1
  Zn  Zn104  1  0.24976635  0.12537503  0.37546690  1
  Zn  Zn105  1  0.50622039  0.74545902  0.75736804  1
  Zn  Zn106  1  0.24781332  0.00001103  0.74986667  1
  Zn  Zn107  1  0.19388066  0.18189797  0.18596525  1
  Zn  Zn108  1  0.18650673  0.18635057  0.68664424  1
  Zn  Zn109  1  0.19609379  0.68712121  0.18563035  1
  Zn  Zn110  1  0.18845617  0.69001503  0.68982248  1
  Zn  Zn111  1  0.68794543  0.19261759  0.18911310  1
  Zn  Zn112  1  0.68206597  0.19039432  0.69058523  1
  Zn  Zn113  1  0.68257648  0.69067600  0.18101777  1
  Zn  Zn114  1  0.68819439  0.68532219  0.68663789  1
  Zn  Zn115  1  0.31107076  0.31423154  0.31432920  1
  Zn  Zn116  1  0.31934737  0.31077387  0.81155953  1
  Zn  Zn117  1  0.30826014  0.81436043  0.31619266  1
  Zn  Zn118  1  0.31386480  0.81239751  0.81561312  1
  Zn  Zn119  1  0.79000260  0.31890473  0.31906703  1
  Zn  Zn120  1  0.83026696  0.36320914  0.78695530  1
  Zn  Zn121  1  0.81235418  0.81322827  0.31505453  1
  Zn  Zn122  1  0.81028321  0.80766776  0.81083990  1
  Zn  Zn123  1  0.18736152  0.43392383  0.43450796  1
  Zn  Zn124  1  0.19147818  0.43988806  0.93925567  1
  Zn  Zn125  1  0.19388714  0.93702058  0.43541557  1
  Zn  Zn126  1  0.18498087  0.93472167  0.93802645  1
  Zn  Zn127  1  0.68824394  0.43541170  0.43871072  1
  Zn  Zn128  1  0.68342246  0.43689736  0.93850308  1
  Zn  Zn129  1  0.68776475  0.93454574  0.43957766  1
  Zn  Zn130  1  0.68395494  0.94091836  0.94024627  1
  Zn  Zn131  1  0.31056150  0.06185215  0.06201507  1
  Zn  Zn132  1  0.31264027  0.05888237  0.56330951  1
  Zn  Zn133  1  0.31256404  0.56494861  0.06196645  1
  Zn  Zn134  1  0.31152493  0.56050536  0.56090390  1
  Zn  Zn135  1  0.81868429  0.06506884  0.07053459  1
  Zn  Zn136  1  0.80562079  0.06697071  0.56662709  1
  Zn  Zn137  1  0.81254479  0.56640777  0.06374600  1
  Zn  Zn138  1  0.81655997  0.56302062  0.55673092  1
  Zn  Zn139  1  0.43817590  0.44056011  0.18679090  1
  Zn  Zn140  1  0.44218496  0.43321529  0.68714922  1
  Zn  Zn141  1  0.43485558  0.93126031  0.18802385  1
  Zn  Zn142  1  0.43607016  0.93912060  0.69448707  1
  Zn  Zn143  1  0.93228018  0.44750583  0.18142745  1
  Zn  Zn144  1  0.94930945  0.47148898  0.69015187  1
  Zn  Zn145  1  0.96794801  0.98016583  0.22617962  1
  Zn  Zn146  1  0.93467290  0.93625035  0.68646524  1
  Zn  Zn147  1  0.06854307  0.06261449  0.32032029  1
  Zn  Zn148  1  0.06158386  0.05800396  0.81095208  1
  Zn  Zn149  1  0.06032066  0.55467032  0.31180582  1
  Zn  Zn150  1  0.06738327  0.56599358  0.81002460  1
  Zn  Zn151  1  0.56089541  0.06106164  0.31148368  1
  Zn  Zn152  1  0.56081697  0.06322644  0.81102387  1
  Zn  Zn153  1  0.55999013  0.56608345  0.31487803  1
  Zn  Zn154  1  0.56652368  0.56205974  0.81335403  1
  Zn  Zn155  1  0.43820406  0.18638335  0.44240709  1
  Zn  Zn156  1  0.43602681  0.18238864  0.93714871  1
  Zn  Zn157  1  0.43821834  0.68804333  0.43844546  1
  Zn  Zn158  1  0.43472156  0.68764922  0.94135261  1
  Zn  Zn159  1  0.93191898  0.18328457  0.44181170  1
  Zn  Zn160  1  0.94465396  0.19607573  0.95723750  1
  Zn  Zn161  1  0.93499762  0.68855723  0.43165773  1
  Zn  Zn162  1  0.93465490  0.69008176  0.94268652  1
  Zn  Zn163  1  0.06518794  0.31526515  0.06251511  1
  Zn  Zn164  1  0.06123753  0.31584736  0.56239836  1
  Zn  Zn165  1  0.06785036  0.81540056  0.06471829  1
  Zn  Zn166  1  0.04078713  0.79204469  0.52893163  1
  Zn  Zn167  1  0.56288504  0.31358300  0.06576749  1
  Zn  Zn168  1  0.56360212  0.31439236  0.56098955  1
  Zn  Zn169  1  0.55734197  0.81413323  0.06634194  1
  Zn  Zn170  1  0.56661226  0.80811683  0.56921504  1
  O  O171  1  0.12626021  0.11327375  0.12071327  1
  O  O172  1  0.11568320  0.11554520  0.62616341  1
  O  O173  1  0.11928708  0.61838406  0.12531373  1
  O  O174  1  0.13560750  0.61076221  0.62344013  1
  O  O175  1  0.61831712  0.12184269  0.12352438  1
  O  O176  1  0.61752419  0.11388438  0.62452036  1
  O  O177  1  0.61541356  0.62296256  0.11513064  1
  O  O178  1  0.62502932  0.60983571  0.61605134  1
  O  O179  1  0.38061743  0.38344060  0.38154711  1
  O  O180  1  0.37201044  0.38715921  0.88390607  1
  O  O181  1  0.37640263  0.88097024  0.38628214  1
  O  O182  1  0.38338913  0.88771173  0.87193270  1
  O  O183  1  0.88359524  0.37525428  0.37309980  1
  O  O184  1  0.88736082  0.37215068  0.89066005  1
  O  O185  1  0.87228998  0.87467080  0.39379567  1
  O  O186  1  0.87890108  0.87768622  0.87961292  1
  O  O187  1  0.26399599  0.00294728  0.36717319  1
  O  O188  1  0.25521056  0.00630452  0.87644618  1
  O  O189  1  0.25716341  0.50435630  0.36853803  1
  O  O190  1  0.25927774  0.50617600  0.86827296  1
  O  O191  1  0.74186939  0.01259322  0.37005317  1
  O  O192  1  0.75337480  0.00771025  0.87055806  1
  O  O193  1  0.76953792  0.48944578  0.38034018  1
  O  O194  1  0.74499872  0.51536092  0.88315306  1
  O  O195  1  0.24390650  0.50071739  0.13114396  1
  O  O196  1  0.24584080  0.48850032  0.62741401  1
  O  O197  1  0.24477977  1.00468143  0.13394339  1
  O  O198  1  0.24212566  0.99109620  0.62768792  1
  O  O199  1  0.74445793  0.48685518  0.11467162  1
  O  O200  1  0.73989115  0.49623175  0.61456546  1
  O  O201  1  0.74293763  0.99547514  0.13142247  1
  O  O202  1  0.74125582  0.99623091  0.63500876  1
  O  O203  1  0.00546317  0.37375280  0.24531304  1
  O  O204  1  0.00877465  0.37203627  0.76143070  1
  O  O205  1  0.01853040  0.87354928  0.24600738  1
  O  O206  1  0.00590525  0.87633787  0.75585087  1
  O  O207  1  0.50266679  0.37800326  0.26247763  1
  O  O208  1  0.51727659  0.37146222  0.74366501  1
  O  O209  1  0.50342194  0.85993103  0.25285631  1
  O  O210  1  0.50105944  0.87669962  0.76676872  1
  O  O211  1  0.48666984  0.12059856  0.24324087  1
  O  O212  1  0.50151816  0.12525849  0.73528804  1
  O  O213  1  0.50280825  0.63779289  0.24428549  1
  O  O214  1  0.48842549  0.62278957  0.75001793  1
  O  O215  1  0.99003246  0.10099005  0.24506960  1
  O  O216  1  0.99226629  0.13294376  0.74807820  1
  O  O217  1  0.99988617  0.62407929  0.24157141  1
  O  O218  1  0.98251787  0.57580103  0.74227736  1
  O  O219  1  0.37115028  0.25651090  0.00327838  1
  O  O220  1  0.36885529  0.26307684  0.49676578  1
  O  O221  1  0.36544043  0.75555837  -0.00588779  1
  O  O222  1  0.36733435  0.75458503  0.50815063  1
  O  O223  1  0.85944237  0.26016397  -0.00203235  1
  O  O224  1  0.86744591  0.25517555  0.50669646  1
  O  O225  1  0.86484798  0.75976379  0.00577072  1
  O  O226  1  0.86595911  0.75968608  0.51135343  1
  O  O227  1  0.13466871  0.25038734  0.50056802  1
  O  O228  1  0.14660842  0.25751021  0.99085261  1
  O  O229  1  0.14549659  0.74484459  0.51638824  1
  O  O230  1  0.12128805  0.75210337  0.98245049  1
  O  O231  1  0.63142218  0.25142620  0.49007856  1
  O  O232  1  0.63024341  0.24687029  0.99710315  1
  O  O233  1  0.62959600  0.74088466  0.49515711  1
  O  O234  1  0.62928195  0.74293912  1.00574413  1
  O  O235  1  0.48730395  0.24397585  0.12043724  1
  O  O236  1  0.50520540  0.23655353  0.62337293  1
  O  O237  1  0.50568245  0.74391710  0.14271299  1
  O  O238  1  0.48613604  0.74540767  0.62373110  1
  O  O239  1  1.02240887  0.21182159  0.05492135  1
  O  O240  1  0.99385087  0.24348378  0.63302639  1
  O  O241  1  0.99932426  0.73840457  0.11632093  1
  O  O242  1  0.98587901  0.75013131  0.62078258  1
  O  O243  1  0.00121694  0.25117345  0.37426614  1
  O  O244  1  0.00794492  0.26327122  0.87550318  1
  O  O245  1  0.01172712  0.76682146  0.41891924  1
  O  O246  1  0.00321065  0.75939866  0.87669931  1
  O  O247  1  0.50592761  0.25968064  0.38128612  1
  O  O248  1  0.51392653  0.24418800  0.88216672  1
  O  O249  1  0.50673229  0.74821723  0.36512156  1
  O  O250  1  0.49491510  0.76590990  0.87833810  1
  O  O251  1  0.25300248  0.13925471  0.50551860  1
  O  O252  1  0.24288058  0.13354897  0.99222601  1
  O  O253  1  0.25085595  0.63014051  0.49105818  1
  O  O254  1  0.24485708  0.61590442  0.98504499  1
  O  O255  1  0.74544091  0.13508409  0.49256593  1
  O  O256  1  0.74448034  0.13229114  0.99979417  1
  O  O257  1  0.74176806  0.63379490  0.50265587  1
  O  O258  1  0.73991484  0.63459322  0.99969350  1
  O  O259  1  0.26474672  0.36966743  0.00203366  1
  O  O260  1  0.25682631  0.36734581  0.50628688  1
  O  O261  1  0.25264587  0.87660147  0.00437394  1
  O  O262  1  0.25790598  0.86753530  0.51059895  1
  O  O263  1  0.75550562  0.37054047  0.00293983  1
  O  O264  1  0.76141986  0.35993050  0.49010122  1
  O  O265  1  0.75117347  0.87136315  0.00495365  1
  O  O266  1  0.75374747  0.86805954  0.50996142  1
  O  O267  1  0.13037514  0.49072847  0.23949415  1
  O  O268  1  0.13717245  0.49327692  0.74147113  1
  O  O269  1  0.13831744  0.99653882  0.24182724  1
  O  O270  1  0.12731155  0.98582862  0.74375052  1
  O  O271  1  0.61812336  0.48848136  0.25327997  1
  O  O272  1  0.62365538  0.49238202  0.73747048  1
  O  O273  1  0.63342465  0.99848541  0.24404610  1
  O  O274  1  0.63569570  0.99976825  0.74334825  1
  O  O275  1  0.37148424  0.00442365  0.25546401  1
  O  O276  1  0.36876127  0.00612220  0.76076991  1
  O  O277  1  0.36584297  0.49391896  0.25955884  1
  O  O278  1  0.37375737  0.50354772  0.75660981  1
  O  O279  1  0.85542998  -0.00639520  0.25633141  1
  O  O280  1  0.86259472  0.00654776  0.75582976  1
  O  O281  1  0.87823159  0.51524199  0.25607243  1
  O  O282  1  0.86105953  0.46694043  0.75460639  1
  O  O283  1  0.12626972  0.37171357  0.35963580  1
  O  O284  1  0.12405852  0.37112265  0.87033355  1
  O  O285  1  0.13170942  0.87885525  0.35815711  1
  O  O286  1  0.11674176  0.86969084  0.86561169  1
  O  O287  1  0.61653530  0.37029167  0.37056191  1
  O  O288  1  0.62513725  0.36982561  0.86478401  1
  O  O289  1  0.62094961  0.86393481  0.37747765  1
  O  O290  1  0.60956002  0.88317770  0.87366576  1
  O  O291  1  0.37959953  0.13225709  0.13139595  1
  O  O292  1  0.39086931  0.11617390  0.62619220  1
  O  O293  1  0.38853136  0.62408891  0.12117585  1
  O  O294  1  0.37388314  0.63074979  0.63353815  1
  O  O295  1  0.87934971  0.13256814  0.13254677  1
  O  O296  1  0.87995809  0.13155851  0.63441794  1
  O  O297  1  0.88258291  0.62659837  0.13829709  1
  O  O298  1  0.87108289  0.63619162  0.62304929  1
  O  O299  1  0.26291371  0.24927826  0.11493817  1
  O  O300  1  0.24695928  0.26122418  0.62071435  1
  O  O301  1  0.25295701  0.74807228  0.11254212  1
  O  O302  1  0.26241839  0.75511408  0.62294709  1
  O  O303  1  0.73998619  0.26551847  0.11490951  1
  O  O304  1  0.75501208  0.24165022  0.61558627  1
  O  O305  1  0.74922724  0.75972639  0.11532620  1
  O  O306  1  0.75100954  0.75837347  0.61591139  1
  O  O307  1  0.24940456  0.24919677  0.38631333  1
  O  O308  1  0.25075326  0.24232798  0.88191325  1
  O  O309  1  0.25662469  0.73787669  0.38466908  1
  O  O310  1  0.24097977  0.74001144  0.86687017  1
  O  O311  1  0.73900970  0.23895460  0.38193857  1
  O  O312  1  0.73491605  0.24176302  0.88903833  1
  O  O313  1  0.74218691  0.75529818  0.38975744  1
  O  O314  1  0.74823333  0.74828589  0.88885746  1
  O  O315  1  0.00396725  0.09725534  -0.03130905  1
  O  O316  1  -0.00181900  0.12669589  0.51639793  1
  O  O317  1  0.00312905  0.61763555  0.00542643  1
  O  O318  1  -0.00009762  0.60687201  0.49523256  1
  O  O319  1  0.50456027  0.11706569  0.00867183  1
  O  O320  1  0.50258741  0.12346855  0.51500691  1
  O  O321  1  0.50463300  0.62108172  0.00600467  1
  O  O322  1  0.50750784  0.61631728  0.50188792  1
  O  O323  1  0.49302957  0.38095113  0.49244656  1
  O  O324  1  0.49005682  0.38380841  1.00555665  1
  O  O325  1  0.48766377  0.86700987  0.50285966  1
  O  O326  1  0.50534979  0.88584983  0.99047768  1
  O  O327  1  0.98929703  0.37976529  0.49649202  1
  O  O328  1  0.99235130  0.38314748  0.99837076  1
  O  O329  1  0.97740075  0.89137767  0.51760946  1
  O  O330  1  0.99476895  0.88140976  0.99209754  1
  O  O331  1  0.49352681  0.49451882  0.38462648  1
  O  O332  1  0.48983748  0.50737212  0.88469963  1
  O  O333  1  0.48730688  0.99555021  0.37091125  1
  O  O334  1  0.49222606  0.99625771  0.88334221  1
  O  O335  1  0.98892349  0.49579620  0.38023206  1
  O  O336  1  1.01307079  0.48789856  0.88944926  1
  O  O337  1  0.99364853  0.98466110  0.35850697  1
  O  O338  1  0.99270957  0.98287129  0.87444878  1
  O  O339  1  0.01009191  0.00170288  0.11220038  1
  O  O340  1  0.00791419  0.01083748  0.63609777  1
  O  O341  1  0.00816377  0.51019469  0.11860607  1
  O  O342  1  0.01941787  0.48517667  0.60632755  1
  O  O343  1  0.50409674  0.00290912  0.11997727  1
  O  O344  1  0.51378716  0.00150143  0.63151386  1
  O  O345  1  0.50153702  0.50905883  0.11821645  1
  O  O346  1  0.50189696  0.50130700  0.61165125  1
  O  O347  1  0.24406544  0.38548280  0.24680541  1
  O  O348  1  0.24889625  0.37825435  0.74339495  1
  O  O349  1  0.24743682  0.88665353  0.25094619  1
  O  O350  1  0.24492950  0.87286180  0.73763040  1
  O  O351  1  0.73843626  0.37721387  0.23977194  1
  O  O352  1  0.72477815  0.35945846  0.74375806  1
  O  O353  1  0.74503983  0.88019254  0.24316572  1
  O  O354  1  0.74805055  0.88435060  0.74490272  1
  O  O355  1  0.26428553  0.11492551  0.25108613  1
  O  O356  1  0.24649195  0.12385135  0.76437285  1
  O  O357  1  0.24712239  0.61161986  0.25730802  1
  O  O358  1  0.26154906  0.61945939  0.75672380  1
  O  O359  1  0.74979791  0.12067003  0.25761812  1
  O  O360  1  0.75351653  0.12116535  0.75736002  1
  O  O361  1  0.75793088  0.62389909  0.24143071  1
  O  O362  1  0.74363323  0.62662884  0.76965078  1
  O  O363  1  0.37615798  0.11914516  0.36928660  1
  O  O364  1  0.36488138  0.11290234  0.87833687  1
  O  O365  1  0.36882298  0.61173915  0.38141400  1
  O  O366  1  0.36936560  0.61803168  0.86939503  1
  O  O367  1  0.86252482  0.12469167  0.37082215  1
  O  O368  1  0.86777513  0.12303522  0.87217344  1
  O  O369  1  0.87454576  0.61989874  0.36115784  1
  O  O370  1  0.85425473  0.62969454  0.88462878  1
  O  O371  1  0.12772230  0.38184193  0.13132309  1
  O  O372  1  0.13567157  0.38027032  0.63104446  1
  O  O373  1  0.12530645  0.88851426  0.13273967  1
  O  O374  1  0.13148616  0.87934299  0.62914229  1
  O  O375  1  0.62805193  0.37935854  0.13487806  1
  O  O376  1  0.62169636  0.38960095  0.62762315  1
  O  O377  1  0.63413732  0.88334883  0.12540711  1
  O  O378  1  0.63372445  0.88616337  0.62566697  1
  O  O379  1  0.13247587  0.26108060  0.24459263  1
  O  O380  1  0.11947321  0.25583498  0.75530595  1
  O  O381  1  0.13605916  0.76591092  0.24427899  1
  O  O382  1  0.12649149  0.76178446  0.75667372  1
  O  O383  1  0.62749012  0.26231779  0.26359345  1
  O  O384  1  0.61691690  0.25579885  0.76035329  1
  O  O385  1  0.62732626  0.74765434  0.26520586  1
  O  O386  1  0.61616963  0.75435464  0.73560892  1
  O  O387  1  0.36857782  0.24212006  0.24182937  1
  O  O388  1  0.38299603  0.24164183  0.75668551  1
  O  O389  1  0.38512394  0.74949244  0.25729767  1
  O  O390  1  0.37915656  0.74143118  0.74489331  1
  O  O391  1  0.88348642  0.26397136  0.26339953  1
  O  O392  1  0.87963108  0.25563347  0.74558909  1
  O  O393  1  0.87031566  0.73665654  0.25061330  1
  O  O394  1  0.87069739  0.75407079  0.73233089  1
  O  O395  1  0.38132933  0.49138253  0.49337704  1
  O  O396  1  0.38296587  0.49427644  0.99473525  1
  O  O397  1  0.37007730  0.98891598  0.49256271  1
  O  O398  1  0.38680902  1.00642651  0.99504137  1
  O  O399  1  0.88328198  0.49106315  0.49368693  1
  O  O400  1  0.88692469  0.49579309  1.00513658  1
  O  O401  1  0.85888162  0.98939192  0.49946695  1
  O  O402  1  0.88011744  0.99308602  0.99460734  1
  O  O403  1  0.11874108  0.00469726  0.00604820  1
  O  O404  1  0.13098445  0.00030075  0.51263633  1
  O  O405  1  0.11984859  0.49829600  0.01346497  1
  O  O406  1  0.12073542  0.49893842  0.50298276  1
  O  O407  1  0.61631784  0.00888737  0.00822595  1
  O  O408  1  0.63117197  0.00195841  0.51673648  1
  O  O409  1  0.61123055  0.50589557  0.00053984  1
  O  O410  1  0.61961106  0.50232856  0.50602527  1
  O  O411  1  0.37500048  0.36769610  0.11887135  1
  O  O412  1  0.36646654  0.38170556  0.61481549  1
  O  O413  1  0.37532230  0.86702883  0.11863801  1
  O  O414  1  0.36942880  0.87003588  0.62282295  1
  O  O415  1  0.86715777  0.37867174  0.11362732  1
  O  O416  1  0.87840094  0.36783787  0.61254838  1
  O  O417  1  0.85873002  0.87661330  0.11816020  1
  O  O418  1  0.86065728  0.87492604  0.61982258  1
  O  O419  1  0.13193631  0.13062948  0.38185108  1
  O  O420  1  0.13111567  0.13260971  0.88026452  1
  O  O421  1  0.13688443  0.61691307  0.37652689  1
  O  O422  1  0.13358108  0.63336956  0.87279025  1
  O  O423  1  0.62618501  0.13291292  0.37575327  1
  O  O424  1  0.62990151  0.12920494  0.88258166  1
  O  O425  1  0.62206313  0.62976493  0.38850020  1
  O  O426  1  0.63149538  0.62406453  0.88847772  1
