# generated using pymatgen
data_V85Zn86O256
_symmetry_space_group_name_H-M   'P 1'
_cell_length_a   16.93790063
_cell_length_b   16.92677831
_cell_length_c   16.93817792
_cell_angle_alpha   90.02263351
_cell_angle_beta   89.98205965
_cell_angle_gamma   90.03005306
_symmetry_Int_Tables_number   1
_chemical_formula_structural   V85Zn86O256
_chemical_formula_sum   'V85 Zn86 O256'
_cell_volume   4856.24358257
_cell_formula_units_Z   1
loop_
 _symmetry_equiv_pos_site_id
 _symmetry_equiv_pos_as_xyz
  1  'x, y, z'
loop_
 _atom_site_type_symbol
 _atom_site_label
 _atom_site_symmetry_multiplicity
 _atom_site_fract_x
 _atom_site_fract_y
 _atom_site_fract_z
 _atom_site_occupancy
  V  V0  1  0.36447161  0.62808693  0.25323665  1
  V  V1  1  0.63099182  0.11807945  0.50318899  1
  V  V2  1  0.49808127  0.75168075  0.25022097  1
  V  V3  1  0.24617654  0.49014974  0.25490650  1
  V  V4  1  0.50586206  0.36983638  0.87805733  1
  V  V5  1  0.50039543  0.74426778  0.74953010  1
  V  V6  1  0.49343611  0.12731917  0.13569989  1
  V  V7  1  0.13980031  0.87658804  0.75161322  1
  V  V8  1  0.50242004  0.49369026  0.49612559  1
  V  V9  1  0.12261343  0.49987098  0.62475302  1
  V  V10  1  0.86967814  0.75034113  0.62780227  1
  V  V11  1  0.74509886  0.38500291  0.12674427  1
  V  V12  1  0.79927514  0.93165449  0.67990195  1
  V  V13  1  0.87358282  0.74529866  0.12999873  1
  V  V14  1  0.50239459  0.62081033  0.12875451  1
  V  V15  1  0.75353714  0.49426648  0.74274413  1
  V  V16  1  0.87861909  0.61789712  0.75313087  1
  V  V17  1  0.87365084  0.50965990  0.36937377  1
  V  V18  1  0.87365849  0.87676862  -0.00400574  1
  V  V19  1  0.75195268  0.00311822  0.24876309  1
  V  V20  1  0.50458715  0.61549450  0.62475657  1
  V  V21  1  0.87615196  0.00347578  0.37494963  1
  V  V22  1  0.25034470  0.62252733  0.87774989  1
  V  V23  1  0.61514525  0.38402260  0.24937161  1
  V  V24  1  0.75453845  0.61620798  0.87521183  1
  V  V25  1  0.12396103  0.62163282  0.00363390  1
  V  V26  1  0.25077589  0.24737427  0.49628712  1
  V  V27  1  0.24854805  0.14469492  0.87688416  1
  V  V28  1  0.86799160  0.25429325  0.12399310  1
  V  V29  1  0.25875202  0.11417888  0.35744905  1
  V  V30  1  -0.00348678  0.37685007  0.38229617  1
  V  V31  1  0.11880337  0.87639913  0.24791406  1
  V  V32  1  0.62669756  0.87795872  0.25105501  1
  V  V33  1  -0.00023130  0.25989800  0.25144765  1
  V  V34  1  -0.00035672  0.87350875  0.37847003  1
  V  V35  1  0.27398103  0.90012623  0.15240113  1
  V  V36  1  0.50629815  0.24561705  0.75349997  1
  V  V37  1  0.37389015  0.49288013  0.88060378  1
  V  V38  1  0.62443438  0.61822153  0.00280539  1
  V  V39  1  0.49957663  0.00221065  -0.00218999  1
  V  V40  1  0.25576801  0.87113401  0.60483509  1
  V  V41  1  0.75906083  0.12005577  0.86504188  1
  V  V42  1  0.50332491  0.87448232  0.87383322  1
  V  V43  1  0.74425281  0.75328868  0.50628937  1
  V  V44  1  0.62175161  0.88003337  0.72996616  1
  V  V45  1  0.37326649  0.50441416  0.37623186  1
  V  V46  1  0.24958433  0.49830318  0.75221200  1
  V  V47  1  0.36295812  0.00029713  0.86814175  1
  V  V48  1  0.12186966  0.49688859  0.13051231  1
  V  V49  1  0.48508505  0.00303895  0.50353062  1
  V  V50  1  0.38029143  0.24561290  0.62350806  1
  V  V51  1  0.12754566  0.25666376  0.37005658  1
  V  V52  1  0.25243165  0.37569192  0.10830186  1
  V  V53  1  0.87482457  0.12862874  0.24940024  1
  V  V54  1  0.74967514  0.74934555  0.00079912  1
  V  V55  1  -0.00392420  0.00370751  -0.00096854  1
  V  V56  1  -0.00233741  0.50150884  -0.01145093  1
  V  V57  1  0.00036273  0.75484462  0.74966685  1
  V  V58  1  0.62628922  0.74911424  0.87498025  1
  V  V59  1  0.62463517  0.00393947  0.12508038  1
  V  V60  1  0.62353429  0.13505808  -0.00853797  1
  V  V61  1  0.37822509  0.37112447  0.48951240  1
  V  V62  1  0.87616265  0.24965372  0.62489101  1
  V  V63  1  0.87161626  0.37908007  -0.01003959  1
  V  V64  1  -0.00476912  0.73812347  0.25465688  1
  V  V65  1  0.37604128  0.62130633  0.74995839  1
  V  V66  1  0.24738686  0.75209800  0.00677086  1
  V  V67  1  0.48824535  0.88746324  0.37604054  1
  V  V68  1  0.61953723  0.25399709  0.37349125  1
  V  V69  1  0.49859252  0.49459220  0.00476506  1
  V  V70  1  -0.00081862  0.12864735  0.12403062  1
  V  V71  1  0.62386856  0.75001073  0.37552189  1
  V  V72  1  0.13155894  0.00558477  0.62695735  1
  V  V73  1  0.13887358  0.74882791  0.37963365  1
  V  V74  1  0.36902299  0.25026406  0.11868978  1
  V  V75  1  0.87052890  0.87644479  0.50128717  1
  V  V76  1  0.00142024  0.87952043  0.87483605  1
  V  V77  1  0.37300352  0.87247895  -0.00404673  1
  V  V78  1  0.00305719  0.35782187  0.87362364  1
  V  V79  1  0.13768585  0.63052123  0.49959328  1
  V  V80  1  0.12434056  0.00214058  0.12740136  1
  V  V81  1  0.12345810  0.36180004  0.75303909  1
  V  V82  1  0.12154307  0.12573813  0.49754082  1
  V  V83  1  0.62963960  0.37183098  0.74548188  1
  V  V84  1  0.25043604  0.37264764  0.62364009  1
  Zn  Zn85  1  -0.00115095  0.00536178  0.50349923  1
  Zn  Zn86  1  0.74490015  0.26184760  0.50743928  1
  Zn  Zn87  1  0.62718906  0.62185846  0.49747582  1
  Zn  Zn88  1  0.48987300  0.25277621  0.25520129  1
  Zn  Zn89  1  -0.00492832  0.62013671  0.12844793  1
  Zn  Zn90  1  0.12872618  0.14033156  0.00000163  1
  Zn  Zn91  1  0.74832012  0.51012076  0.24593824  1
  Zn  Zn92  1  0.36532807  0.74508845  0.60845506  1
  Zn  Zn93  1  0.00466522  0.21846209  0.73945012  1
  Zn  Zn94  1  0.00242612  0.62768498  0.62504173  1
  Zn  Zn95  1  0.63933092  0.48773584  0.61111647  1
  Zn  Zn96  1  0.75774087  0.63261948  0.36835366  1
  Zn  Zn97  1  0.37515480  0.74660651  0.12320192  1
  Zn  Zn98  1  0.75213029  0.13465347  0.37392997  1
  Zn  Zn99  1  0.74394022  0.25456745  -0.00794069  1
  Zn  Zn100  1  0.12598073  0.74944355  0.87618057  1
  Zn  Zn101  1  0.50730506  0.11831415  0.62973262  1
  Zn  Zn102  1  0.75015364  0.87660680  0.12313990  1
  Zn  Zn103  1  -0.00118058  0.50461655  0.50005711  1
  Zn  Zn104  1  0.37439182  0.11960002  0.74727705  1
  Zn  Zn105  1  0.85854918  0.38395729  0.50973377  1
  Zn  Zn106  1  0.87245324  0.11879061  0.74436320  1
  Zn  Zn107  1  0.18500299  0.19379977  0.18439205  1
  Zn  Zn108  1  0.19599863  0.18342196  0.68979305  1
  Zn  Zn109  1  0.18522878  0.69050780  0.18829871  1
  Zn  Zn110  1  0.18877987  0.69032919  0.68604447  1
  Zn  Zn111  1  0.68392887  0.19133315  0.18757674  1
  Zn  Zn112  1  0.69075933  0.18811963  0.68656791  1
  Zn  Zn113  1  0.68742832  0.68688111  0.18804115  1
  Zn  Zn114  1  0.68509739  0.68411881  0.68723939  1
  Zn  Zn115  1  0.31183693  0.30967654  0.30726127  1
  Zn  Zn116  1  0.32173330  0.31549316  0.80654515  1
  Zn  Zn117  1  0.31379293  0.82253439  0.31150838  1
  Zn  Zn118  1  0.31541124  0.80551908  0.81497955  1
  Zn  Zn119  1  0.80810817  0.31984611  0.31593799  1
  Zn  Zn120  1  0.81155439  0.30152498  0.81000112  1
  Zn  Zn121  1  0.81041063  0.81356237  0.31336873  1
  Zn  Zn122  1  0.81261348  0.80893959  0.81726461  1
  Zn  Zn123  1  0.18765628  0.43741540  0.43800940  1
  Zn  Zn124  1  0.18488234  0.31497555  0.94085039  1
  Zn  Zn125  1  0.18968207  0.94106626  0.43466910  1
  Zn  Zn126  1  0.18431621  0.93808821  0.94407300  1
  Zn  Zn127  1  0.69008725  0.43478499  0.43001149  1
  Zn  Zn128  1  0.68564557  0.43691149  0.93376101  1
  Zn  Zn129  1  0.68826737  0.93778103  0.43827998  1
  Zn  Zn130  1  0.68537521  0.93911161  0.93500229  1
  Zn  Zn131  1  0.31355670  0.06819380  0.05772703  1
  Zn  Zn132  1  0.30687091  0.06360486  0.55899215  1
  Zn  Zn133  1  0.31309362  0.55982976  0.06512573  1
  Zn  Zn134  1  0.31386021  0.56029390  0.56449392  1
  Zn  Zn135  1  0.81007304  0.06395245  0.05901464  1
  Zn  Zn136  1  0.81529119  0.07275613  0.55992576  1
  Zn  Zn137  1  0.81479645  0.56208606  0.06217667  1
  Zn  Zn138  1  0.81566695  0.56741246  0.55802269  1
  Zn  Zn139  1  0.43134108  0.43684697  0.18645940  1
  Zn  Zn140  1  0.43984176  0.43181971  0.68652369  1
  Zn  Zn141  1  0.44136958  0.94013371  0.18645932  1
  Zn  Zn142  1  0.43652255  0.93442791  0.68502875  1
  Zn  Zn143  1  0.93547889  0.43778257  0.18805074  1
  Zn  Zn144  1  0.93859380  0.43224910  0.68879517  1
  Zn  Zn145  1  0.93719154  0.93462645  0.18564393  1
  Zn  Zn146  1  0.97520082  0.98649543  0.71564461  1
  Zn  Zn147  1  0.06436887  0.06720571  0.31225791  1
  Zn  Zn148  1  0.07404667  0.06275198  0.81959357  1
  Zn  Zn149  1  0.06562211  0.56331431  0.31832624  1
  Zn  Zn150  1  0.06525100  0.56032454  0.81299909  1
  Zn  Zn151  1  0.56459951  0.06585656  0.31688256  1
  Zn  Zn152  1  0.56296806  0.05928980  0.81165931  1
  Zn  Zn153  1  0.55851551  0.56233055  0.31502326  1
  Zn  Zn154  1  0.56735064  0.55533485  0.81396556  1
  Zn  Zn155  1  0.43834367  0.18167441  0.43291344  1
  Zn  Zn156  1  0.43349448  0.18892528  0.94051497  1
  Zn  Zn157  1  0.43555086  0.68724459  0.43622086  1
  Zn  Zn158  1  0.43739824  0.68353788  0.93717028  1
  Zn  Zn159  1  0.93628511  0.19166742  0.44295310  1
  Zn  Zn160  1  0.93161289  0.18683808  0.93677589  1
  Zn  Zn161  1  0.94315168  0.68737621  0.44515270  1
  Zn  Zn162  1  0.93766850  0.69015128  0.93662134  1
  Zn  Zn163  1  0.05763760  0.31960785  0.06852974  1
  Zn  Zn164  1  0.05805201  0.30977399  0.56460448  1
  Zn  Zn165  1  0.06064487  0.81250053  0.06667025  1
  Zn  Zn166  1  0.06461995  0.81609426  0.56489650  1
  Zn  Zn167  1  0.55800441  0.31253648  0.06848120  1
  Zn  Zn168  1  0.56412425  0.30955154  0.56200323  1
  Zn  Zn169  1  0.56194608  0.81049760  0.06413622  1
  Zn  Zn170  1  0.53237029  0.80113502  0.54904371  1
  O  O171  1  0.11733084  0.11896172  0.12298781  1
  O  O172  1  0.13805857  0.11216506  0.61740615  1
  O  O173  1  0.12209738  0.61783960  0.12008233  1
  O  O174  1  0.12572494  0.61851138  0.61906062  1
  O  O175  1  0.61599692  0.12080501  0.11709757  1
  O  O176  1  0.62417517  0.13123840  0.60697060  1
  O  O177  1  0.61141126  0.62949336  0.11687991  1
  O  O178  1  0.61455310  0.61593653  0.62316085  1
  O  O179  1  0.37096548  0.37933428  0.38575374  1
  O  O180  1  0.38750187  0.38721202  0.86980761  1
  O  O181  1  0.39046942  0.87532289  0.37648070  1
  O  O182  1  0.38057326  0.88092889  0.88068268  1
  O  O183  1  0.88199851  0.38505914  0.38001158  1
  O  O184  1  0.88032952  0.36883724  0.88574902  1
  O  O185  1  0.88256366  0.88236037  0.37857717  1
  O  O186  1  0.88299511  0.87078205  0.88758590  1
  O  O187  1  0.24501336  0.01457186  0.36965832  1
  O  O188  1  0.26219969  -0.00277764  0.88083255  1
  O  O189  1  0.26067581  0.49653603  0.36861642  1
  O  O190  1  0.26149325  0.50647327  0.86792023  1
  O  O191  1  0.76371187  0.00049478  0.36799518  1
  O  O192  1  0.74319925  0.02102471  0.88495963  1
  O  O193  1  0.76427767  0.50488421  0.37283782  1
  O  O194  1  0.74722312  0.51172251  0.86676775  1
  O  O195  1  0.24396548  0.49277115  0.13100753  1
  O  O196  1  0.24251464  0.49297708  0.63094616  1
  O  O197  1  0.23811571  0.99543879  0.11102459  1
  O  O198  1  0.24176231  0.98675854  0.61933163  1
  O  O199  1  0.75218770  0.48897593  0.12482512  1
  O  O200  1  0.75303473  0.50833530  0.63882450  1
  O  O201  1  0.74340511  0.99847823  0.13026277  1
  O  O202  1  0.75036864  0.99235604  0.61882644  1
  O  O203  1  -0.00605084  0.36529120  0.26030539  1
  O  O204  1  0.01077342  0.38113307  0.76295379  1
  O  O205  1  0.00502265  0.86750059  0.25820019  1
  O  O206  1  0.00911658  0.87434247  0.75991306  1
  O  O207  1  0.51215702  0.37611625  0.24219586  1
  O  O208  1  0.50726819  0.36793056  0.75839854  1
  O  O209  1  0.50728409  0.87630388  0.25952370  1
  O  O210  1  0.50590930  0.86338912  0.75341253  1
  O  O211  1  0.50182108  0.12244948  0.23805136  1
  O  O212  1  0.49784893  0.13083739  0.74859908  1
  O  O213  1  0.49192209  0.62848830  0.24335682  1
  O  O214  1  0.49743666  0.62399132  0.74702518  1
  O  O215  1  0.99336027  0.13696383  0.24414243  1
  O  O216  1  0.99219430  0.10160866  0.75318771  1
  O  O217  1  1.00093260  0.63539802  0.25155954  1
  O  O218  1  0.99495988  0.63507441  0.75241207  1
  O  O219  1  0.38044022  0.25445506  0.01704133  1
  O  O220  1  0.37415997  0.25497593  0.50336999  1
  O  O221  1  0.36761967  0.75575898  -0.00234904  1
  O  O222  1  0.42605002  0.76117134  0.51602222  1
  O  O223  1  0.87265115  0.25972023  0.00916674  1
  O  O224  1  0.87080876  0.25421647  0.50940878  1
  O  O225  1  0.86913169  0.75704414  0.00547406  1
  O  O226  1  0.86812446  0.75637762  0.50758450  1
  O  O227  1  0.13089193  0.24492622  0.49369961  1
  O  O228  1  0.11908133  0.25294271  1.00547874  1
  O  O229  1  0.12175166  0.73996072  0.49480935  1
  O  O230  1  0.13046846  0.74112762  1.00307907  1
  O  O231  1  0.62210185  0.24154128  0.48933720  1
  O  O232  1  0.62149662  0.23742607  1.00400467  1
  O  O233  1  0.62818031  0.75175895  0.49225055  1
  O  O234  1  0.62908837  0.74019209  0.99585112  1
  O  O235  1  0.49140941  0.24144293  0.12883328  1
  O  O236  1  0.49400484  0.24540002  0.63168476  1
  O  O237  1  0.49751927  0.74160337  0.13228642  1
  O  O238  1  0.51022964  0.73427494  0.64367733  1
  O  O239  1  0.98656305  0.25214395  0.13420396  1
  O  O240  1  0.98891506  0.24659152  0.62639266  1
  O  O241  1  0.99244052  0.74836845  0.13647967  1
  O  O242  1  0.99369566  0.75610867  0.63861835  1
  O  O243  1  0.00418332  0.25758458  0.36981701  1
  O  O244  1  -0.00354911  0.25566526  0.86780914  1
  O  O245  1  0.00303307  0.75823611  0.37061268  1
  O  O246  1  0.00174650  0.76079820  0.86631408  1
  O  O247  1  0.51301081  0.24636266  0.37210314  1
  O  O248  1  0.49215543  0.25899100  0.86753902  1
  O  O249  1  0.50756819  0.76458434  0.36785274  1
  O  O250  1  0.50512417  0.75088717  0.86683824  1
  O  O251  1  0.24088553  0.13170571  0.48927704  1
  O  O252  1  0.24936981  0.12377139  0.98206591  1
  O  O253  1  0.23781384  0.62584993  0.50780681  1
  O  O254  1  0.24280134  0.63089073  1.00065350  1
  O  O255  1  0.73852546  0.12982155  0.49415006  1
  O  O256  1  0.73331533  0.12788999  1.00098462  1
  O  O257  1  0.74708786  0.63924692  0.49293760  1
  O  O258  1  0.74275491  0.62630980  0.99477616  1
  O  O259  1  0.24744435  0.38563416  0.01013032  1
  O  O260  1  0.25802668  0.36808913  0.50496156  1
  O  O261  1  0.25839551  0.86806433  0.00330847  1
  O  O262  1  0.25004292  0.87277853  0.50567985  1
  O  O263  1  0.75403071  0.37513242  0.00418205  1
  O  O264  1  0.74369824  0.37665697  0.50688212  1
  O  O265  1  0.75696120  0.87039166  -0.00094087  1
  O  O266  1  0.75603930  0.86346078  0.49421397  1
  O  O267  1  0.13478040  0.50983021  0.24367444  1
  O  O268  1  0.13271812  0.49421398  0.74303364  1
  O  O269  1  0.11586659  0.99179635  0.23804826  1
  O  O270  1  0.12577577  0.99134507  0.73751712  1
  O  O271  1  0.62408354  0.48730567  0.25618305  1
  O  O272  1  0.63656957  0.49059509  0.74766859  1
  O  O273  1  0.63087143  0.99628784  0.24683377  1
  O  O274  1  0.61570929  0.97926536  0.74763817  1
  O  O275  1  0.33702268  -0.05783596  0.22686214  1
  O  O276  1  0.38253846  -0.00090747  0.76540587  1
  O  O277  1  0.36822408  0.50653787  0.25827990  1
  O  O278  1  0.37073921  0.50297256  0.75443875  1
  O  O279  1  0.87266014  0.00598541  0.25422104  1
  O  O280  1  0.86177304  -0.01244372  0.73822474  1
  O  O281  1  0.87444214  0.49703256  0.26513303  1
  O  O282  1  0.87244692  0.51119125  0.74815800  1
  O  O283  1  0.11757679  0.36389237  0.37844571  1
  O  O284  1  0.11736698  0.37154261  0.86422688  1
  O  O285  1  0.11586043  0.87124331  0.37078451  1
  O  O286  1  0.11966175  0.87275406  0.87041007  1
  O  O287  1  0.62432492  0.36657453  0.35986584  1
  O  O288  1  0.61272263  0.37848802  0.86491960  1
  O  O289  1  0.62116619  0.87135406  0.36399024  1
  O  O290  1  0.61886520  0.86670105  0.87255622  1
  O  O291  1  0.38151416  0.13270723  0.12208518  1
  O  O292  1  0.37356472  0.13568063  0.62449029  1
  O  O293  1  0.38506058  0.62563352  0.13211076  1
  O  O294  1  0.38610454  0.62453387  0.63178213  1
  O  O295  1  0.87862300  0.13547816  0.12743750  1
  O  O296  1  0.87845710  0.13635095  0.62622907  1
  O  O297  1  0.87680368  0.64060390  0.11879071  1
  O  O298  1  0.88030755  0.63284860  0.63498934  1
  O  O299  1  0.25119886  0.26772750  0.12554093  1
  O  O300  1  0.25860498  0.25371999  0.61774129  1
  O  O301  1  0.25262127  0.75788651  0.11598540  1
  O  O302  1  0.25116478  0.76455601  0.62504728  1
  O  O303  1  0.75818566  0.25922963  0.12378979  1
  O  O304  1  0.76665586  0.24659154  0.62585448  1
  O  O305  1  0.75526715  0.75470410  0.11805097  1
  O  O306  1  0.75417493  0.74484634  0.61730771  1
  O  O307  1  0.24136630  0.25003222  0.37792049  1
  O  O308  1  0.25899349  0.24885074  0.87738341  1
  O  O309  1  0.23748536  0.75699103  0.37167662  1
  O  O310  1  0.24908941  0.74244351  0.88971375  1
  O  O311  1  0.73516157  0.25249260  0.37604859  1
  O  O312  1  0.74962870  0.23046786  0.87894566  1
  O  O313  1  0.73966398  0.75269195  0.38134423  1
  O  O314  1  0.74492707  0.73920523  0.88170436  1
  O  O315  1  -0.00145534  0.11804681  0.00511532  1
  O  O316  1  0.01708535  0.12408071  0.49160363  1
  O  O317  1  0.00601779  0.62014292  0.00023137  1
  O  O318  1  0.01439573  0.62307167  0.50738786  1
  O  O319  1  0.50691232  0.11831949  0.00498616  1
  O  O320  1  0.50861352  0.11340039  0.49794760  1
  O  O321  1  0.50601815  0.61850817  0.00680281  1
  O  O322  1  0.50039423  0.60890615  0.50896834  1
  O  O323  1  0.49169064  0.38445905  0.50562364  1
  O  O324  1  0.50875623  0.38534343  0.99359272  1
  O  O325  1  0.51365001  0.89666625  0.48329203  1
  O  O326  1  0.49495183  0.88023447  0.99388723  1
  O  O327  1  1.00237740  0.37934345  0.48831495  1
  O  O328  1  0.99200360  0.38221697  0.99160647  1
  O  O329  1  0.99336898  0.87447177  0.48998487  1
  O  O330  1  0.99418522  0.87874528  0.99424229  1
  O  O331  1  0.48479911  0.50105997  0.38284747  1
  O  O332  1  0.49456253  0.49412927  0.88391751  1
  O  O333  1  0.49833200  0.99361176  0.37730472  1
  O  O334  1  0.49267922  0.99541644  0.88360280  1
  O  O335  1  0.99302911  0.49285732  0.37424492  1
  O  O336  1  1.00526224  0.49303012  0.88644839  1
  O  O337  1  0.99110594  0.99299459  0.37367788  1
  O  O338  1  1.00633334  0.98809925  0.88519865  1
  O  O339  1  0.00483792  0.00602227  0.11973633  1
  O  O340  1  0.02690476  -0.01350437  0.61536445  1
  O  O341  1  0.00645772  0.49965592  0.11970384  1
  O  O342  1  0.01467302  0.50021391  0.62709624  1
  O  O343  1  0.50191856  0.00725593  0.11679108  1
  O  O344  1  0.49506069  0.00012945  0.60883957  1
  O  O345  1  0.49404714  0.50653510  0.11477459  1
  O  O346  1  0.50102902  0.50245674  0.61761819  1
  O  O347  1  0.25010125  0.38842737  0.24307272  1
  O  O348  1  0.24301198  0.37754967  0.74438267  1
  O  O349  1  0.22442518  0.85489728  0.24398390  1
  O  O350  1  0.24056174  0.86857060  0.75531881  1
  O  O351  1  0.73986306  0.38088949  0.24164325  1
  O  O352  1  0.74330562  0.38336306  0.76079732  1
  O  O353  1  0.74197016  0.88328866  0.24735726  1
  O  O354  1  0.73948915  0.87190872  0.74526500  1
  O  O355  1  0.24308925  0.12964483  0.25897961  1
  O  O356  1  0.25778491  0.12858575  0.76935987  1
  O  O357  1  0.26151826  0.61843334  0.24135530  1
  O  O358  1  0.25554961  0.62087654  0.75547667  1
  O  O359  1  0.75637362  0.12035121  0.24971759  1
  O  O360  1  0.74879115  0.12096967  0.76084349  1
  O  O361  1  0.74537755  0.62319539  0.25551741  1
  O  O362  1  0.75790552  0.61925610  0.75760500  1
  O  O363  1  0.35795849  0.13133454  0.37126321  1
  O  O364  1  0.36645994  0.11504301  0.87714610  1
  O  O365  1  0.37747851  0.61868427  0.36629331  1
  O  O366  1  0.37189522  0.61471240  0.86915094  1
  O  O367  1  0.87569497  0.11904888  0.36980398  1
  O  O368  1  0.86333438  0.12051700  0.87186648  1
  O  O369  1  0.88072222  0.61313719  0.37911396  1
  O  O370  1  0.86620733  0.63116950  0.86646605  1
  O  O371  1  0.13367033  0.39043225  0.12478151  1
  O  O372  1  0.13034916  0.38192888  0.62896007  1
  O  O373  1  0.12530403  0.88442549  0.13296409  1
  O  O374  1  0.13970075  0.87902363  0.63147968  1
  O  O375  1  0.63266919  0.36806599  0.13867202  1
  O  O376  1  0.61941681  0.37473972  0.64064101  1
  O  O377  1  0.62165108  0.88271280  0.13636404  1
  O  O378  1  0.61230501  0.86611795  0.63340860  1
  O  O379  1  0.11165343  0.24847689  0.25777394  1
  O  O380  1  0.12076591  0.25832963  0.73928343  1
  O  O381  1  0.11270731  0.75244378  0.25897197  1
  O  O382  1  0.11628228  0.75757249  0.75177085  1
  O  O383  1  0.61974930  0.25726826  0.25881361  1
  O  O384  1  0.61423611  0.25424805  0.74741552  1
  O  O385  1  0.61871435  0.76107290  0.25423663  1
  O  O386  1  0.62108949  0.75575500  0.75762603  1
  O  O387  1  0.37776766  0.26124485  0.23105656  1
  O  O388  1  0.38808861  0.24965106  0.73932838  1
  O  O389  1  0.37959851  0.74432116  0.24939925  1
  O  O390  1  0.38551732  0.73873577  0.75100668  1
  O  O391  1  0.87756971  0.24827274  0.24486343  1
  O  O392  1  0.88250836  0.24411157  0.74063756  1
  O  O393  1  0.88234867  0.75947828  0.24152853  1
  O  O394  1  0.88099542  0.74397538  0.74729246  1
  O  O395  1  0.37793492  0.49211517  0.49420892  1
  O  O396  1  0.38527871  0.50682482  0.99039200  1
  O  O397  1  0.38668296  1.00592506  0.49641996  1
  O  O398  1  0.38362200  0.99225725  0.99292344  1
  O  O399  1  0.87981374  0.50045420  0.48980922  1
  O  O400  1  0.88524398  0.49152112  1.00410878  1
  O  O401  1  0.87760608  0.99641717  0.49116272  1
  O  O402  1  0.88698504  0.99169225  1.00801932  1
  O  O403  1  0.11075895  0.00022280  0.01052137  1
  O  O404  1  0.12662803  0.00868133  0.50596910  1
  O  O405  1  0.11510517  0.51366148  0.01140486  1
  O  O406  1  0.12685454  0.51031312  0.50743906  1
  O  O407  1  0.61281178  0.00450812  0.00558099  1
  O  O408  1  0.62109510  0.01615005  0.48911368  1
  O  O409  1  0.61682491  0.51194296  -0.00500917  1
  O  O410  1  0.61594501  0.50100640  0.49470734  1
  O  O411  1  0.35823364  0.37561840  0.12177128  1
  O  O412  1  0.37095044  0.36381358  0.61655993  1
  O  O413  1  0.37840704  0.86923269  0.10662158  1
  O  O414  1  0.35707643  0.87348170  0.63043179  1
  O  O415  1  0.86682880  0.37034327  0.11732239  1
  O  O416  1  0.88195702  0.36072556  0.62369092  1
  O  O417  1  0.87583927  0.86532129  0.11276668  1
  O  O418  1  0.86521994  0.87148970  0.62258037  1
  O  O419  1  0.13127421  0.13710283  0.37932082  1
  O  O420  1  0.14397541  0.12749865  0.87841075  1
  O  O421  1  0.12548462  0.63323032  0.39021174  1
  O  O422  1  0.13225855  0.62580607  0.88494518  1
  O  O423  1  0.62846310  0.13619328  0.38133923  1
  O  O424  1  0.62262807  0.12190713  0.88982269  1
  O  O425  1  0.61731476  0.64200708  0.37567396  1
  O  O426  1  0.63156375  0.62971580  0.88204180  1
