# generated using pymatgen
data_V85Zn86O256
_symmetry_space_group_name_H-M   'P 1'
_cell_length_a   16.95305492
_cell_length_b   16.95267126
_cell_length_c   16.96476350
_cell_angle_alpha   90.08134548
_cell_angle_beta   90.06758844
_cell_angle_gamma   90.05080186
_symmetry_Int_Tables_number   1
_chemical_formula_structural   V85Zn86O256
_chemical_formula_sum   'V85 Zn86 O256'
_cell_volume   4875.65545244
_cell_formula_units_Z   1
loop_
 _symmetry_equiv_pos_site_id
 _symmetry_equiv_pos_as_xyz
  1  'x, y, z'
loop_
 _atom_site_type_symbol
 _atom_site_label
 _atom_site_symmetry_multiplicity
 _atom_site_fract_x
 _atom_site_fract_y
 _atom_site_fract_z
 _atom_site_occupancy
  V  V0  1  0.37813513  0.87505051  -0.00012278  1
  V  V1  1  0.62960107  0.12257348  0.49400235  1
  V  V2  1  0.00114100  0.86317667  0.36786431  1
  V  V3  1  0.37902929  0.12976585  0.74551891  1
  V  V4  1  0.24548268  0.25026440  -0.00005318  1
  V  V5  1  0.24789882  0.63533248  0.37150285  1
  V  V6  1  0.00091180  0.51085433  0.00296283  1
  V  V7  1  0.87607938  0.89534816  0.00017345  1
  V  V8  1  0.24870446  0.38177078  0.12191429  1
  V  V9  1  0.37782090  0.11852088  0.24649761  1
  V  V10  1  0.38238210  0.74758283  0.13325007  1
  V  V11  1  0.88101049  0.00746605  0.38173316  1
  V  V12  1  0.74262278  0.11559629  0.86644576  1
  V  V13  1  0.87038796  0.25020032  0.62522604  1
  V  V14  1  0.87490892  0.50587111  0.87256090  1
  V  V15  1  0.39105481  0.37782106  -0.00358391  1
  V  V16  1  0.37449884  0.24516869  0.12454114  1
  V  V17  1  0.49993873  0.87779058  0.87568874  1
  V  V18  1  0.24822365  0.87644810  0.12609631  1
  V  V19  1  0.24939234  0.50236393  0.74110034  1
  V  V20  1  0.05318311  0.56489493  0.56535769  1
  V  V21  1  0.75187844  0.87376836  0.62368966  1
  V  V22  1  0.50029155  0.86810946  0.37084165  1
  V  V23  1  0.12061325  0.50049266  0.13151249  1
  V  V24  1  0.12215632  0.00000320  0.11877746  1
  V  V25  1  0.74664518  0.24843869  -0.00892504  1
  V  V26  1  0.04495070  0.68372449  0.18537361  1
  V  V27  1  -0.00376277  0.12088464  0.62080392  1
  V  V28  1  0.23357732  0.74583903  0.50202260  1
  V  V29  1  0.62809684  0.74953247  0.87447150  1
  V  V30  1  0.61590214  0.25230996  0.37702661  1
  V  V31  1  -0.00131179  0.25066172  0.25425074  1
  V  V32  1  0.75422773  0.74980556  -0.00035079  1
  V  V33  1  0.12374474  0.38269390  0.74478022  1
  V  V34  1  0.75102143  0.62207812  0.37535105  1
  V  V35  1  0.49825828  0.62264284  0.62245456  1
  V  V36  1  0.87023703  0.11115442  0.75240022  1
  V  V37  1  0.62159596  0.74589024  0.36651150  1
  V  V38  1  0.86833612  0.12338927  0.25072508  1
  V  V39  1  0.87729718  0.37699653  0.00129634  1
  V  V40  1  0.12145888  0.25385475  0.87509876  1
  V  V41  1  0.30441333  0.45181297  0.30794964  1
  V  V42  1  0.50055440  0.27095090  0.74480095  1
  V  V43  1  0.63209189  0.87855896  0.74893935  1
  V  V44  1  0.37529340  0.86989121  0.50274702  1
  V  V45  1  0.62413929  0.62116443  0.00038384  1
  V  V46  1  0.24637090  0.12200231  0.38339442  1
  V  V47  1  0.12498156  0.87600675  0.75620401  1
  V  V48  1  0.25229720  0.74908835  -0.00231432  1
  V  V49  1  0.62610327  0.62028069  0.50130640  1
  V  V50  1  0.74978377  0.49666807  0.24928033  1
  V  V51  1  0.88102038  0.87648789  0.49870581  1
  V  V52  1  0.38964626  0.01804066  0.89009460  1
  V  V53  1  0.49157552  0.49196345  0.48677537  1
  V  V54  1  -0.00286078  0.89438384  0.87994529  1
  V  V55  1  0.25460453  0.00179089  0.75340355  1
  V  V56  1  0.50172149  0.75009765  0.74546223  1
  V  V57  1  0.12239534  -0.00048778  0.62099748  1
  V  V58  1  0.25088999  0.87549821  0.62731171  1
  V  V59  1  0.37183803  -0.00275488  0.37649356  1
  V  V60  1  0.00096965  0.37716913  0.87659944  1
  V  V61  1  0.24037710  -0.00242693  0.25069354  1
  V  V62  1  0.12207602  0.12343153  0.50129150  1
  V  V63  1  -0.00426131  0.12013995  0.11915241  1
  V  V64  1  0.24551172  0.12922082  0.87289507  1
  V  V65  1  0.62055625  0.26849618  0.86827711  1
  V  V66  1  0.87430267  0.75179865  0.12744578  1
  V  V67  1  0.87539918  0.62575328  0.24536246  1
  V  V68  1  0.24886231  0.62306898  0.87310136  1
  V  V69  1  0.62927551  0.00216184  0.62819238  1
  V  V70  1  0.74297468  0.49699092  0.74578785  1
  V  V71  1  0.61676490  0.49457320  0.11848761  1
  V  V72  1  -0.00377766  0.25057979  0.75030287  1
  V  V73  1  0.12098763  0.25104124  0.38302037  1
  V  V74  1  0.87494776  0.24892446  0.12477546  1
  V  V75  1  0.61670835  0.37259854  0.25453125  1
  V  V76  1  0.74437110  -0.00579782  0.25570046  1
  V  V77  1  0.74681292  0.37237940  0.12457778  1
  V  V78  1  0.50094518  -0.00131251  0.50159279  1
  V  V79  1  0.75072148  0.24843228  0.49003393  1
  V  V80  1  0.88323038  0.37666653  0.49543883  1
  V  V81  1  -0.00688994  0.74978766  0.75192446  1
  V  V82  1  0.88737729  0.49560847  0.37703940  1
  V  V83  1  0.11829535  0.37808647  0.25749999  1
  V  V84  1  0.24912852  0.36883226  0.61434465  1
  Zn  Zn85  1  0.49942532  0.24392863  0.25035408  1
  Zn  Zn86  1  0.12238813  0.75311236  0.87960296  1
  Zn  Zn87  1  0.37495113  0.62325819  0.74901031  1
  Zn  Zn88  1  0.74527004  0.37338788  0.62554465  1
  Zn  Zn89  1  0.50205677  0.12809380  0.62569319  1
  Zn  Zn90  1  0.61835613  0.48990535  0.62821222  1
  Zn  Zn91  1  0.12441707  0.62840636  0.00413032  1
  Zn  Zn92  1  0.37273918  0.74782653  0.62589586  1
  Zn  Zn93  1  0.38570860  0.62315586  0.26530465  1
  Zn  Zn94  1  0.11708653  0.12331267  -0.00265687  1
  Zn  Zn95  1  0.88114920  0.74761448  0.61814496  1
  Zn  Zn96  1  0.75088025  0.74863224  0.49966956  1
  Zn  Zn97  1  0.61808416  0.87224448  0.24304561  1
  Zn  Zn98  1  0.38620053  0.48828648  0.87117969  1
  Zn  Zn99  1  0.50234362  0.62640744  0.13079111  1
  Zn  Zn100  1  0.75344200  0.62699736  0.87127051  1
  Zn  Zn101  1  0.37206662  0.24869238  0.60956307  1
  Zn  Zn102  1  0.73872234  0.88313591  0.11983038  1
  Zn  Zn103  1  0.11866892  0.86072203  0.25107378  1
  Zn  Zn104  1  0.87979475  0.61851674  0.73617707  1
  Zn  Zn105  1  0.37427315  0.37195664  0.48679475  1
  Zn  Zn106  1  0.58831758  0.04855311  0.09120699  1
  Zn  Zn107  1  0.18673036  0.18512507  0.18930521  1
  Zn  Zn108  1  0.18477735  0.19180183  0.68752615  1
  Zn  Zn109  1  0.20916756  0.68362513  0.18751487  1
  Zn  Zn110  1  0.17955850  0.68801755  0.68554333  1
  Zn  Zn111  1  0.68938917  0.18351902  0.19122798  1
  Zn  Zn112  1  0.68471056  0.19057835  0.68756846  1
  Zn  Zn113  1  0.68919955  0.68730401  0.18525517  1
  Zn  Zn114  1  0.69254549  0.68312993  0.68656434  1
  Zn  Zn115  1  0.30939903  0.29027572  0.31799648  1
  Zn  Zn116  1  0.31323963  0.31558188  0.80976240  1
  Zn  Zn117  1  0.30864427  0.81290677  0.31446405  1
  Zn  Zn118  1  0.31607396  0.81102791  0.81582576  1
  Zn  Zn119  1  0.80895247  0.31187625  0.31426501  1
  Zn  Zn120  1  0.81352114  0.31569304  0.81152661  1
  Zn  Zn121  1  0.81373732  0.81182494  0.31434419  1
  Zn  Zn122  1  0.81384897  0.82131515  0.81740088  1
  Zn  Zn123  1  0.17357118  0.44306262  0.44274298  1
  Zn  Zn124  1  0.18891580  0.44255673  0.93689218  1
  Zn  Zn125  1  0.18214720  0.93224590  0.43890514  1
  Zn  Zn126  1  0.19356931  0.94171846  0.93948586  1
  Zn  Zn127  1  0.68968182  0.43606430  0.44082271  1
  Zn  Zn128  1  0.68935558  0.43758568  0.93510417  1
  Zn  Zn129  1  0.69155979  0.93662037  0.43472765  1
  Zn  Zn130  1  0.68438540  0.93694441  0.93967291  1
  Zn  Zn131  1  0.41395708  0.06202046  0.06168849  1
  Zn  Zn132  1  0.31158841  0.06094335  0.56352796  1
  Zn  Zn133  1  0.31406712  0.56152370  0.06044019  1
  Zn  Zn134  1  0.31192199  0.56189369  0.55958688  1
  Zn  Zn135  1  0.76681534  0.05200454  0.05068143  1
  Zn  Zn136  1  0.80892598  0.06167491  0.56220215  1
  Zn  Zn137  1  0.81021870  0.56316612  0.06317017  1
  Zn  Zn138  1  0.82031643  0.56262731  0.56273505  1
  Zn  Zn139  1  0.44129918  0.43100851  0.17906900  1
  Zn  Zn140  1  0.42925073  0.44305882  0.67883977  1
  Zn  Zn141  1  0.43866260  0.93501131  0.18758328  1
  Zn  Zn142  1  0.44066676  0.94067757  0.69074876  1
  Zn  Zn143  1  0.93850840  0.43817287  0.18952326  1
  Zn  Zn144  1  0.93353988  0.43637536  0.68499620  1
  Zn  Zn145  1  0.93418365  0.93820937  0.18849688  1
  Zn  Zn146  1  0.93894287  0.93516263  0.68766244  1
  Zn  Zn147  1  0.05578665  0.06090213  0.31132022  1
  Zn  Zn148  1  0.06175105  0.06415458  0.80593799  1
  Zn  Zn149  1  0.06800814  0.56099197  0.32602503  1
  Zn  Zn150  1  0.06489512  0.56546953  0.81235291  1
  Zn  Zn151  1  0.56048569  0.06162978  0.31761784  1
  Zn  Zn152  1  0.56540744  0.06704140  0.81298858  1
  Zn  Zn153  1  0.56145344  0.56183965  0.30771241  1
  Zn  Zn154  1  0.56317894  0.56040414  0.81352730  1
  Zn  Zn155  1  0.43750882  0.18631463  0.44049475  1
  Zn  Zn156  1  0.43551533  0.19851661  0.92912367  1
  Zn  Zn157  1  0.43510590  0.68489056  0.43837106  1
  Zn  Zn158  1  0.45453481  0.65570916  0.92090044  1
  Zn  Zn159  1  0.93867557  0.18804297  0.43922685  1
  Zn  Zn160  1  0.93038479  0.18364252  0.93631251  1
  Zn  Zn161  1  0.93544759  0.68754258  0.43874862  1
  Zn  Zn162  1  0.93988453  0.69388265  0.93437462  1
  Zn  Zn163  1  0.06094794  0.31387193  0.06559099  1
  Zn  Zn164  1  0.06097368  0.31507878  0.56486880  1
  Zn  Zn165  1  0.06302556  0.82065773  0.05653574  1
  Zn  Zn166  1  0.05819902  0.81629038  0.56480341  1
  Zn  Zn167  1  0.57792054  0.26333525  0.07738098  1
  Zn  Zn168  1  0.56285984  0.31517863  0.56336902  1
  Zn  Zn169  1  0.56389498  0.81606189  0.06113172  1
  Zn  Zn170  1  0.56604990  0.80872797  0.55820479  1
  O  O171  1  0.11435744  0.11930484  0.12569316  1
  O  O172  1  0.11731490  0.12020102  0.62275715  1
  O  O173  1  0.12066106  0.61935822  0.13171358  1
  O  O174  1  0.11453229  0.62795009  0.61811217  1
  O  O175  1  0.61357519  0.15752580  0.11531255  1
  O  O176  1  0.62497752  0.11719010  0.61699903  1
  O  O177  1  0.63179277  0.61028071  0.11994116  1
  O  O178  1  0.61934834  0.62185751  0.61533050  1
  O  O179  1  0.35822927  0.38442664  0.36374660  1
  O  O180  1  0.37369163  0.37176738  0.89052562  1
  O  O181  1  0.37967489  0.87747473  0.38328147  1
  O  O182  1  0.38400501  0.88282920  0.88137504  1
  O  O183  1  0.86791507  0.38395546  0.38129286  1
  O  O184  1  0.88201028  0.38591042  0.88089843  1
  O  O185  1  0.88196593  0.88336871  0.38048340  1
  O  O186  1  0.88145723  0.87969883  0.89128840  1
  O  O187  1  0.25056381  0.00160804  0.37071756  1
  O  O188  1  0.25836720  0.01442961  0.87248334  1
  O  O189  1  0.24943187  0.50611098  0.37568567  1
  O  O190  1  0.25338542  0.50825721  0.86564480  1
  O  O191  1  0.76616449  -0.00345751  0.36599406  1
  O  O192  1  0.74212358  0.01714617  0.87192488  1
  O  O193  1  0.75223930  0.50940482  0.36777294  1
  O  O194  1  0.75938542  0.50105570  0.86641134  1
  O  O195  1  0.23690583  0.48991167  0.11910425  1
  O  O196  1  0.25267420  0.49190686  0.63531958  1
  O  O197  1  0.23861223  0.99112458  0.13758878  1
  O  O198  1  0.24414122  0.99467151  0.63408986  1
  O  O199  1  0.74636281  0.48573713  0.12794958  1
  O  O200  1  0.75118220  0.50069892  0.63858639  1
  O  O201  1  0.76548279  0.99701838  0.15246088  1
  O  O202  1  0.73800428  0.98882617  0.62051247  1
  O  O203  1  0.00793842  0.36385876  0.24605731  1
  O  O204  1  0.00563627  0.37074485  0.75430105  1
  O  O205  1  -0.00200262  0.87576304  0.26304153  1
  O  O206  1  0.00672121  0.87464229  0.76153545  1
  O  O207  1  0.51347824  0.36999198  0.24575915  1
  O  O208  1  0.49246046  0.36902565  0.74559218  1
  O  O209  1  0.49904655  0.87900832  0.26752356  1
  O  O210  1  0.51149204  0.86750998  0.75192208  1
  O  O211  1  0.48116274  0.12140779  0.25874323  1
  O  O212  1  0.48978525  0.12955825  0.74824460  1
  O  O213  1  0.49580344  0.62260411  0.24352280  1
  O  O214  1  0.50336499  0.63363275  0.73573118  1
  O  O215  1  0.98912107  0.13121197  0.24222002  1
  O  O216  1  0.99200206  0.13207140  0.74103157  1
  O  O217  1  0.99329266  0.62259806  0.25457357  1
  O  O218  1  0.99928841  0.64633139  0.76166250  1
  O  O219  1  0.36444504  0.25678503  0.00578134  1
  O  O220  1  0.37531253  0.25857541  0.49553508  1
  O  O221  1  0.36314037  0.75913299  0.00553147  1
  O  O222  1  0.36998615  0.76224994  0.50344365  1
  O  O223  1  0.86952980  0.25943689  0.00376931  1
  O  O224  1  0.86694956  0.25165379  0.50418279  1
  O  O225  1  0.86754181  0.74811260  0.00926784  1
  O  O226  1  0.86991537  0.76212049  0.49878898  1
  O  O227  1  0.11550442  0.24430127  0.48886967  1
  O  O228  1  0.12808198  0.25026165  0.99389152  1
  O  O229  1  0.13578476  0.75882167  0.50253540  1
  O  O230  1  0.13715737  0.74937490  1.00272333  1
  O  O231  1  0.62984552  0.24326152  0.49448236  1
  O  O232  1  0.63365016  0.25753456  0.97836661  1
  O  O233  1  0.62836392  0.73584978  0.48970401  1
  O  O234  1  0.63940842  0.74762494  0.99579471  1
  O  O235  1  0.47761156  0.25271420  0.13060956  1
  O  O236  1  0.49736988  0.24908672  0.63607635  1
  O  O237  1  0.48360580  0.75410884  0.12177925  1
  O  O238  1  0.50136883  0.74334599  0.62932235  1
  O  O239  1  0.99519433  0.24454412  0.13585770  1
  O  O240  1  0.98806812  0.24267551  0.62915055  1
  O  O241  1  0.99289854  0.74768168  0.11892221  1
  O  O242  1  0.99769214  0.76611458  0.64783814  1
  O  O243  1  0.00596490  0.24282539  0.36222377  1
  O  O244  1  0.00240031  0.25580591  0.87114227  1
  O  O245  1  -0.00792053  0.76438669  0.37329367  1
  O  O246  1  0.00334414  0.76592062  0.86857159  1
  O  O247  1  0.51230462  0.24614884  0.37180438  1
  O  O248  1  0.51188240  0.25158200  0.86138032  1
  O  O249  1  0.50855903  0.75660943  0.38329539  1
  O  O250  1  0.50753858  0.75522351  0.86464294  1
  O  O251  1  0.24147202  0.11690348  0.48990305  1
  O  O252  1  0.24465935  0.14292052  0.98766051  1
  O  O253  1  0.25327339  0.64158880  0.49700828  1
  O  O254  1  0.24799739  0.63171402  0.99323594  1
  O  O255  1  0.74065487  0.13418371  0.50464882  1
  O  O256  1  0.76133738  0.14345726  0.98046133  1
  O  O257  1  0.74259377  0.62225752  0.49069520  1
  O  O258  1  0.74426681  0.63370110  0.99883289  1
  O  O259  1  0.24697320  0.36612490  0.00774674  1
  O  O260  1  0.24499739  0.38201805  0.51335135  1
  O  O261  1  0.25393583  0.86654271  0.00520176  1
  O  O262  1  0.25593686  0.86615597  0.50409788  1
  O  O263  1  0.75581199  0.36708030  0.00467627  1
  O  O264  1  0.75845752  0.36302298  0.50152495  1
  O  O265  1  0.76407179  0.86674426  -0.00075991  1
  O  O266  1  0.75976166  0.87432604  0.50648334  1
  O  O267  1  0.11768400  0.48968939  0.24483898  1
  O  O268  1  0.13036360  0.48869687  0.75557005  1
  O  O269  1  0.13214356  1.00310647  0.24486225  1
  O  O270  1  0.13203753  0.99235497  0.74328519  1
  O  O271  1  0.63217673  0.48986061  0.24147359  1
  O  O272  1  0.63921578  0.50537496  0.75060829  1
  O  O273  1  0.64090184  1.00279806  0.26083172  1
  O  O274  1  0.61988856  0.99138618  0.73883426  1
  O  O275  1  0.35994964  0.00126797  0.25600946  1
  O  O276  1  0.37338675  0.01144354  0.75967783  1
  O  O277  1  0.36987398  0.49773852  0.24464782  1
  O  O278  1  0.36422785  0.50280250  0.75362848  1
  O  O279  1  0.87139158  0.00671859  0.26245573  1
  O  O280  1  0.87619259  0.01231114  0.74562062  1
  O  O281  1  0.86871207  0.50562549  0.25401411  1
  O  O282  1  0.87009051  0.50136529  0.75947455  1
  O  O283  1  0.13100246  0.36589247  0.36565150  1
  O  O284  1  0.11906877  0.37299093  0.86856004  1
  O  O285  1  0.10605736  0.87916965  0.37261096  1
  O  O286  1  0.11950283  0.88059877  0.87049227  1
  O  O287  1  0.63266624  0.36576923  0.36597920  1
  O  O288  1  0.62610281  0.36754077  0.86826125  1
  O  O289  1  0.61703951  0.86436612  0.37697194  1
  O  O290  1  0.62157871  0.87042946  0.86811727  1
  O  O291  1  0.36016370  0.13292188  0.13491856  1
  O  O292  1  0.37381747  0.12777043  0.63407756  1
  O  O293  1  0.37332505  0.64001246  0.12178094  1
  O  O294  1  0.38376950  0.62813948  0.62700394  1
  O  O295  1  0.87979243  0.13280214  0.13414149  1
  O  O296  1  0.87949433  0.12903261  0.62942264  1
  O  O297  1  0.87250694  0.62973053  0.13751555  1
  O  O298  1  0.87188563  0.63651562  0.62534826  1
  O  O299  1  0.25184114  0.25913873  0.11926667  1
  O  O300  1  0.25035645  0.26462139  0.62846883  1
  O  O301  1  0.25877672  0.75736898  0.11660960  1
  O  O302  1  0.24977300  0.75663841  0.61642890  1
  O  O303  1  0.75527717  0.25809696  0.11504119  1
  O  O304  1  0.76083708  0.24682863  0.61822939  1
  O  O305  1  0.75855504  0.75400416  0.11731601  1
  O  O306  1  0.74762538  0.76466504  0.62290012  1
  O  O307  1  0.23268376  0.23337638  0.37331318  1
  O  O308  1  0.24108849  0.24944974  0.87882902  1
  O  O309  1  0.24899962  0.74452993  0.38718163  1
  O  O310  1  0.24427566  0.74927186  0.88313391  1
  O  O311  1  0.74163593  0.24815968  0.38559510  1
  O  O312  1  0.73971763  0.25294437  0.87490669  1
  O  O313  1  0.74578270  0.73616852  0.37514275  1
  O  O314  1  0.74726763  0.75031344  0.88233045  1
  O  O315  1  -0.00235742  0.13197100  0.01461548  1
  O  O316  1  0.00369499  0.12648341  0.51397556  1
  O  O317  1  0.00224515  0.61419230  -0.00417046  1
  O  O318  1  -0.00274636  0.61750144  0.49740686  1
  O  O319  1  0.45280927  0.09103543  -0.04165144  1
  O  O320  1  0.50768632  0.11558817  0.50353996  1
  O  O321  1  0.52228453  0.64059665  0.01391829  1
  O  O322  1  0.50574675  0.61897667  0.50734970  1
  O  O323  1  0.49934586  0.38883139  0.49858476  1
  O  O324  1  0.48624027  0.36486458  1.00712375  1
  O  O325  1  0.49298089  0.87846383  0.49445165  1
  O  O326  1  0.49072722  0.86817665  0.98705081  1
  O  O327  1  0.98268155  0.36538882  0.49997826  1
  O  O328  1  0.99625678  0.38482374  0.99644096  1
  O  O329  1  0.98784591  0.87459381  0.49180049  1
  O  O330  1  0.98521449  0.87819708  0.99457023  1
  O  O331  1  0.50208587  0.50414933  0.38902134  1
  O  O332  1  0.48148870  0.54659604  0.88476721  1
  O  O333  1  0.49195483  0.99177997  0.38372542  1
  O  O334  1  0.50234215  0.98224318  0.86282351  1
  O  O335  1  0.98628114  0.49596832  0.36951866  1
  O  O336  1  0.99535575  0.49631604  0.88213559  1
  O  O337  1  0.98480382  0.99257169  0.37348888  1
  O  O338  1  1.00328332  0.99432106  0.87412223  1
  O  O339  1  0.00766879  0.00965306  0.13361581  1
  O  O340  1  0.01021961  0.00881253  0.63258325  1
  O  O341  1  0.01112449  0.49432360  0.11717399  1
  O  O342  1  -0.00420470  0.51093978  0.63096349  1
  O  O343  1  0.49114863  0.00857776  0.12408627  1
  O  O344  1  0.51213775  -0.00080133  0.61844940  1
  O  O345  1  0.51455795  0.49757774  0.12153110  1
  O  O346  1  0.50070289  0.50912916  0.61673028  1
  O  O347  1  0.24706757  0.38196225  0.24812081  1
  O  O348  1  0.24171246  0.38232584  0.74383752  1
  O  O349  1  0.24098892  0.88034322  0.24789293  1
  O  O350  1  0.24432223  0.88036421  0.74936410  1
  O  O351  1  0.74307153  0.37580913  0.24059631  1
  O  O352  1  0.75792219  0.39299185  0.74804010  1
  O  O353  1  0.74781565  0.88593839  0.25448534  1
  O  O354  1  0.73902411  0.87308421  0.74400697  1
  O  O355  1  0.25363526  0.11607746  0.26105013  1
  O  O356  1  0.25259967  0.12187159  0.75333633  1
  O  O357  1  0.26278816  0.62537967  0.26637947  1
  O  O358  1  0.24548531  0.61803066  0.75277252  1
  O  O359  1  0.76261394  0.11847990  0.25154951  1
  O  O360  1  0.75637587  0.13037450  0.75779124  1
  O  O361  1  0.75752581  0.61810046  0.25506708  1
  O  O362  1  0.75651403  0.61391173  0.75344388  1
  O  O363  1  0.36350245  0.11609045  0.37134811  1
  O  O364  1  0.35709695  0.13602551  0.85762068  1
  O  O365  1  0.35870470  0.62485053  0.38092659  1
  O  O366  1  0.35378648  0.64124761  0.86657839  1
  O  O367  1  0.88148161  0.11394267  0.36975195  1
  O  O368  1  0.86068208  0.13310048  0.86158155  1
  O  O369  1  0.86822630  0.61881192  0.36523575  1
  O  O370  1  0.87664856  0.61315429  0.87663708  1
  O  O371  1  0.13128471  0.37898587  0.13737498  1
  O  O372  1  0.13387408  0.36897035  0.63534064  1
  O  O373  1  0.12688130  0.88373983  0.12942267  1
  O  O374  1  0.12952187  0.88363276  0.63360798  1
  O  O375  1  0.63230223  0.37290025  0.12920419  1
  O  O376  1  0.63237957  0.37814758  0.62227717  1
  O  O377  1  0.62604850  0.87441947  0.13073768  1
  O  O378  1  0.63073064  0.88044703  0.62945303  1
  O  O379  1  0.11690107  0.25501284  0.25759024  1
  O  O380  1  0.11646968  0.25971955  0.75627021  1
  O  O381  1  0.11752122  0.74183472  0.23481205  1
  O  O382  1  0.11810112  0.76540141  0.75287584  1
  O  O383  1  0.62679405  0.25545648  0.26138257  1
  O  O384  1  0.61072397  0.25172811  0.75459898  1
  O  O385  1  0.63007555  0.74897672  0.26334758  1
  O  O386  1  0.61867102  0.75638331  0.75240489  1
  O  O387  1  0.37209164  0.23704857  0.24252095  1
  O  O388  1  0.38741604  0.24735239  0.74761917  1
  O  O389  1  0.36852396  0.75242234  0.23536052  1
  O  O390  1  0.39092404  0.75367014  0.74659363  1
  O  O391  1  0.87940352  0.24368014  0.24826663  1
  O  O392  1  0.87857937  0.24680907  0.74059707  1
  O  O393  1  0.87055205  0.74342663  0.23660375  1
  O  O394  1  0.88761738  0.75608949  0.75529668  1
  O  O395  1  0.38706180  0.49410654  0.50072956  1
  O  O396  1  0.37209149  0.48113647  1.00273754  1
  O  O397  1  0.37722064  0.98845770  0.49665974  1
  O  O398  1  0.35775829  0.97911467  0.99874722  1
  O  O399  1  0.86580425  0.48826469  0.48792217  1
  O  O400  1  0.88148682  0.49619545  0.99644707  1
  O  O401  1  0.87000616  0.99598167  0.48804004  1
  O  O402  1  0.86453804  0.99214324  1.00922193  1
  O  O403  1  0.13141837  0.00501931  0.01486566  1
  O  O404  1  0.12881671  0.00330486  0.51505430  1
  O  O405  1  0.11724936  0.50255089  0.00999321  1
  O  O406  1  0.10970407  0.49858647  0.51196151  1
  O  O407  1  0.66387969  0.00879879  0.02078654  1
  O  O408  1  0.62291470  0.00578207  0.50324376  1
  O  O409  1  0.63529697  0.50818387  0.00722622  1
  O  O410  1  0.61763128  0.50989436  0.49862532  1
  O  O411  1  0.36344518  0.36783150  0.11769902  1
  O  O412  1  0.35730645  0.37219577  0.62304511  1
  O  O413  1  0.36939476  0.86577749  0.11932666  1
  O  O414  1  0.36876661  0.87680513  0.61938589  1
  O  O415  1  0.86794291  0.36952455  0.12200440  1
  O  O416  1  0.87034612  0.36475478  0.61701478  1
  O  O417  1  0.87535867  0.86775613  0.11409868  1
  O  O418  1  0.86820988  0.87627437  0.61718639  1
  O  O419  1  0.12601581  0.12689294  0.38151428  1
  O  O420  1  0.13184983  0.13138220  0.87240935  1
  O  O421  1  0.14719122  0.62051856  0.37746641  1
  O  O422  1  0.13613207  0.62989561  0.87837275  1
  O  O423  1  0.62265501  0.13164978  0.38767652  1
  O  O424  1  0.63858218  0.13859440  0.86620712  1
  O  O425  1  0.63211031  0.62757174  0.37909121  1
  O  O426  1  0.63096226  0.63372813  0.88346452  1
