# generated using pymatgen
data_V85Zn86O256
_symmetry_space_group_name_H-M   'P 1'
_cell_length_a   16.94831477
_cell_length_b   16.95299111
_cell_length_c   16.95350328
_cell_angle_alpha   90.01248702
_cell_angle_beta   89.89816190
_cell_angle_gamma   90.07957095
_symmetry_Int_Tables_number   1
_chemical_formula_structural   V85Zn86O256
_chemical_formula_sum   'V85 Zn86 O256'
_cell_volume   4871.14654701
_cell_formula_units_Z   1
loop_
 _symmetry_equiv_pos_site_id
 _symmetry_equiv_pos_as_xyz
  1  'x, y, z'
loop_
 _atom_site_type_symbol
 _atom_site_label
 _atom_site_symmetry_multiplicity
 _atom_site_fract_x
 _atom_site_fract_y
 _atom_site_fract_z
 _atom_site_occupancy
  V  V0  1  0.37296884  0.24984510  0.11947559  1
  V  V1  1  0.75556298  0.24761399  0.50211436  1
  V  V2  1  0.87473410  0.62585889  0.25188996  1
  V  V3  1  0.10365807  0.50312241  0.63717831  1
  V  V4  1  0.25047561  0.86846176  0.11810209  1
  V  V5  1  0.37131640  0.50826003  0.38473315  1
  V  V6  1  0.62237348  0.62461627  0.00216901  1
  V  V7  1  0.62403988  0.12582611  0.00013148  1
  V  V8  1  0.12671574  0.50152280  0.12959492  1
  V  V9  1  0.49576618  0.38179325  0.38246978  1
  V  V10  1  0.37147073  0.86354818  0.49709198  1
  V  V11  1  0.75039693  0.49979345  0.74805306  1
  V  V12  1  -0.00250881  0.50417641  0.00265392  1
  V  V13  1  0.62033098  0.37541396  0.25084764  1
  V  V14  1  -0.00024060  0.75390303  0.26336940  1
  V  V15  1  0.74824037  0.50192881  0.25273677  1
  V  V16  1  0.39011960  0.24399822  0.63181306  1
  V  V17  1  0.88117979  0.75070008  0.62325466  1
  V  V18  1  0.37568195  0.50425363  0.86721684  1
  V  V19  1  0.37498678  -0.00050747  0.37436286  1
  V  V20  1  0.01069927  0.00538061  0.50180599  1
  V  V21  1  0.38038147  0.74132430  0.12098252  1
  V  V22  1  0.49768723  -0.00070525  0.50206356  1
  V  V23  1  0.00206220  0.63046387  0.12522089  1
  V  V24  1  0.75020858  0.75037064  -0.00037722  1
  V  V25  1  0.75343790  0.87375401  0.62201594  1
  V  V26  1  0.74467354  0.87493096  0.13026827  1
  V  V27  1  0.24838692  0.88065925  0.62371721  1
  V  V28  1  0.87648500  0.00363821  0.87446310  1
  V  V29  1  0.00700237  0.74747137  0.74766218  1
  V  V30  1  0.87581182  0.87513775  -0.00101388  1
  V  V31  1  0.75714517  0.12900830  0.87216756  1
  V  V32  1  0.87626031  0.75128086  0.12503141  1
  V  V33  1  0.62224186  -0.00226599  0.13087994  1
  V  V34  1  0.11262125  0.24856770  0.38009181  1
  V  V35  1  0.12204697  0.87447165  0.25334792  1
  V  V36  1  0.61835741  0.87510309  0.75121525  1
  V  V37  1  -0.00204668  0.13988109  0.12681458  1
  V  V38  1  0.13482408  0.63065665  0.00060574  1
  V  V39  1  0.00137639  0.87509680  0.87322557  1
  V  V40  1  0.11404402  0.37014453  0.25763779  1
  V  V41  1  0.24832252  0.37114682  0.12760853  1
  V  V42  1  0.87483109  0.13623570  0.24562195  1
  V  V43  1  0.14570744  0.74362697  0.37997932  1
  V  V44  1  0.37262563  0.12675954  0.24841283  1
  V  V45  1  0.62160607  0.50135162  0.61503845  1
  V  V46  1  0.24577109  0.12813172  0.38163437  1
  V  V47  1  0.24960980  0.00053812  0.24608246  1
  V  V48  1  0.87573671  0.36992179  0.00588583  1
  V  V49  1  0.37251432  0.74921741  0.63311346  1
  V  V50  1  0.49182976  0.62125624  0.62685413  1
  V  V51  1  0.88596753  0.87282145  0.49506840  1
  V  V52  1  0.24385335  0.37009975  0.64126605  1
  V  V53  1  0.50379801  0.87358772  0.36318974  1
  V  V54  1  0.37493210  0.87216174  -0.00779141  1
  V  V55  1  0.24757472  0.12218848  0.87081591  1
  V  V56  1  0.12875256  0.88091245  0.74655411  1
  V  V57  1  0.36900211  0.37417177  -0.00196748  1
  V  V58  1  0.00528587  0.00343003  0.00274759  1
  V  V59  1  0.38713342  0.11839320  0.74945235  1
  V  V60  1  0.74843767  0.62641879  0.87397697  1
  V  V61  1  0.25210880  0.62781229  0.86045141  1
  V  V62  1  0.62245732  0.25029007  0.87104074  1
  V  V63  1  0.61800335  0.50481148  0.12860225  1
  V  V64  1  0.88315364  -0.00521737  0.36957856  1
  V  V65  1  0.74757429  0.12022213  0.37262024  1
  V  V66  1  0.37150702  0.37346565  0.50540063  1
  V  V67  1  0.62421174  -0.00009140  0.62322026  1
  V  V68  1  0.61906910  0.12408208  0.50510459  1
  V  V69  1  0.50077058  -0.00631710  -0.01109506  1
  V  V70  1  0.61771264  0.75541311  0.87586009  1
  V  V71  1  0.88335706  0.49372938  0.37766721  1
  V  V72  1  0.49627791  0.25115302  0.25004237  1
  V  V73  1  0.62029042  0.24864338  0.37637799  1
  V  V74  1  0.62191294  0.37254462  0.74732588  1
  V  V75  1  0.87681479  0.62496951  0.74409986  1
  V  V76  1  0.75772162  0.37150930  0.62099832  1
  V  V77  1  0.49750011  0.50398673  0.00361691  1
  V  V78  1  0.75136020  0.36901132  0.12727068  1
  V  V79  1  0.62709542  0.75117944  0.37014253  1
  V  V80  1  0.13094425  0.75178711  0.87628810  1
  V  V81  1  0.50072077  0.37389028  0.87376989  1
  V  V82  1  0.24882134  0.50450720  0.26128883  1
  V  V83  1  0.00514925  0.37546348  0.87229858  1
  V  V84  1  0.75270739  0.00419793  0.74837888  1
  Zn  Zn85  1  0.37425405  -0.00706993  0.86579947  1
  Zn  Zn86  1  0.00448186  0.15786391  0.61097111  1
  Zn  Zn87  1  0.75087587  0.24910857  0.00478724  1
  Zn  Zn88  1  0.49803547  0.12339148  0.12286421  1
  Zn  Zn89  1  0.74880110  0.62406283  0.38081816  1
  Zn  Zn90  1  0.74816455  -0.00274342  0.25082953  1
  Zn  Zn91  1  0.62381532  0.62634044  0.50035706  1
  Zn  Zn92  1  0.24671840  0.49506615  0.75193437  1
  Zn  Zn93  1  0.13852396  0.26064115  0.87765970  1
  Zn  Zn94  1  0.49759384  0.74757605  0.75396698  1
  Zn  Zn95  1  0.12677320  0.62239470  0.50401773  1
  Zn  Zn96  1  0.89519451  0.35988391  0.49084169  1
  Zn  Zn97  1  0.12278745  0.00181936  0.12579729  1
  Zn  Zn98  1  0.74943612  0.74709807  0.50038592  1
  Zn  Zn99  1  0.00374842  0.49740769  0.50419971  1
  Zn  Zn100  1  0.24661208  0.24165804  0.50981163  1
  Zn  Zn101  1  0.37562738  0.62456783  0.25345203  1
  Zn  Zn102  1  0.14181889  0.13826858  0.00687486  1
  Zn  Zn103  1  0.87447554  0.50273128  0.87727917  1
  Zn  Zn104  1  0.50401072  0.73817223  0.24366784  1
  Zn  Zn105  1  -0.00410604  0.22914716  0.75417020  1
  Zn  Zn106  1  0.12984664  0.01865083  0.62863087  1
  Zn  Zn107  1  0.18362103  0.18909198  0.18955114  1
  Zn  Zn108  1  0.18040724  0.19014710  0.69776716  1
  Zn  Zn109  1  0.19174718  0.68923970  0.19072180  1
  Zn  Zn110  1  0.20318735  0.66973250  0.65490708  1
  Zn  Zn111  1  0.68552892  0.18520246  0.18911912  1
  Zn  Zn112  1  0.68873335  0.18768538  0.68682221  1
  Zn  Zn113  1  0.68543704  0.68717424  0.18974927  1
  Zn  Zn114  1  0.68545381  0.68823050  0.68569949  1
  Zn  Zn115  1  0.30833298  0.31535688  0.31365668  1
  Zn  Zn116  1  0.31681476  0.30078453  0.81294523  1
  Zn  Zn117  1  0.31632574  0.81398025  0.30516146  1
  Zn  Zn118  1  0.30809813  0.81310196  0.80824223  1
  Zn  Zn119  1  0.80803833  0.31183520  0.31463773  1
  Zn  Zn120  1  0.81676576  0.31379094  0.81693792  1
  Zn  Zn121  1  0.81062233  0.81263325  0.31180798  1
  Zn  Zn122  1  0.81161473  0.81492787  0.80883417  1
  Zn  Zn123  1  0.18562765  0.43328406  0.44772763  1
  Zn  Zn124  1  0.18799597  0.44336717  0.94053941  1
  Zn  Zn125  1  0.19118130  0.93040598  0.43248967  1
  Zn  Zn126  1  0.19129485  0.94538725  0.93373162  1
  Zn  Zn127  1  0.68880216  0.43539687  0.43623428  1
  Zn  Zn128  1  0.68831144  0.43784442  0.93889893  1
  Zn  Zn129  1  0.68843807  0.93379313  0.43593129  1
  Zn  Zn130  1  0.68816466  0.93861609  0.93886478  1
  Zn  Zn131  1  0.31357410  0.05960246  0.05840638  1
  Zn  Zn132  1  0.31393058  0.06126871  0.56600841  1
  Zn  Zn133  1  0.30835661  0.55900325  0.06015385  1
  Zn  Zn134  1  0.30634781  0.55767090  0.56159655  1
  Zn  Zn135  1  0.81381599  0.06297554  0.06259691  1
  Zn  Zn136  1  0.81604625  0.06372204  0.55636400  1
  Zn  Zn137  1  0.81008922  0.56136557  0.06679546  1
  Zn  Zn138  1  0.81126451  0.56309580  0.56168118  1
  Zn  Zn139  1  0.43442071  0.44139237  0.19190832  1
  Zn  Zn140  1  0.43850438  0.43548310  0.68586078  1
  Zn  Zn141  1  0.43599843  0.93602442  0.18080108  1
  Zn  Zn142  1  0.43806241  0.93643353  0.68345663  1
  Zn  Zn143  1  0.93668848  0.43843121  0.18824389  1
  Zn  Zn144  1  0.94305399  0.36012784  0.67946924  1
  Zn  Zn145  1  0.93678198  0.93901082  0.18697753  1
  Zn  Zn146  1  0.93415585  1.03504668  0.68427849  1
  Zn  Zn147  1  0.06085307  0.06463938  0.31027984  1
  Zn  Zn148  1  0.06649559  0.06705177  0.81183143  1
  Zn  Zn149  1  0.06387834  0.56824530  0.31605076  1
  Zn  Zn150  1  0.06369477  0.55984897  0.80976973  1
  Zn  Zn151  1  0.55918596  0.06333847  0.31262016  1
  Zn  Zn152  1  0.56404725  0.06444439  0.81118019  1
  Zn  Zn153  1  0.55598078  0.56792594  0.31469344  1
  Zn  Zn154  1  0.56172922  0.56259580  0.80874871  1
  Zn  Zn155  1  0.43341077  0.18847625  0.44030885  1
  Zn  Zn156  1  0.43722694  0.18599407  0.93427680  1
  Zn  Zn157  1  0.44490807  0.68615980  0.44241806  1
  Zn  Zn158  1  0.43456262  0.68665384  0.93994833  1
  Zn  Zn159  1  0.93579331  0.17900357  0.43324347  1
  Zn  Zn160  1  0.94018813  0.19207405  0.94370639  1
  Zn  Zn161  1  0.94136599  0.67669965  0.44282514  1
  Zn  Zn162  1  0.93940176  0.68670119  0.93454049  1
  Zn  Zn163  1  0.06684546  0.31426020  0.05884951  1
  Zn  Zn164  1  0.06841193  0.32084033  0.55582581  1
  Zn  Zn165  1  0.06392911  0.81416430  0.06324171  1
  Zn  Zn166  1  0.06309316  0.81337505  0.55992851  1
  Zn  Zn167  1  0.56069067  0.31423649  0.06124878  1
  Zn  Zn168  1  0.56354350  0.31350760  0.56154707  1
  Zn  Zn169  1  0.55962662  0.81428908  0.06089047  1
  Zn  Zn170  1  0.55902491  0.81025961  0.55906732  1
  O  O171  1  0.11313856  0.12329935  0.12497428  1
  O  O172  1  0.11813982  0.12981616  0.62468741  1
  O  O173  1  0.12330983  0.62444238  0.11896247  1
  O  O174  1  0.10616252  0.60610543  0.64000849  1
  O  O175  1  0.62377779  0.11814053  0.11528587  1
  O  O176  1  0.62929776  0.11749145  0.61216377  1
  O  O177  1  0.63072956  0.61189423  0.11891891  1
  O  O178  1  0.61960300  0.61571080  0.62487076  1
  O  O179  1  0.37900545  0.37766161  0.38575284  1
  O  O180  1  0.37922387  0.37873524  0.88320989  1
  O  O181  1  0.37996999  0.87974505  0.38026403  1
  O  O182  1  0.36730975  0.87287334  0.88780514  1
  O  O183  1  0.86537426  0.38954666  0.37539432  1
  O  O184  1  0.87976288  0.38562707  0.89187131  1
  O  O185  1  0.86655099  0.88280588  0.38326132  1
  O  O186  1  0.88000042  0.87914974  0.88058390  1
  O  O187  1  0.25450016  0.00447982  0.36279609  1
  O  O188  1  0.25971609  0.01158137  0.87250442  1
  O  O189  1  0.25720685  0.49178319  0.37201351  1
  O  O190  1  0.25803668  0.50775030  0.87301554  1
  O  O191  1  0.75619274  0.00484731  0.37306727  1
  O  O192  1  0.75373967  0.00877195  0.86866179  1
  O  O193  1  0.75105826  0.50038632  0.36250468  1
  O  O194  1  0.74722618  0.51011828  0.86841973  1
  O  O195  1  0.24522265  0.48963876  0.13266534  1
  O  O196  1  0.26494376  0.47657753  0.63557171  1
  O  O197  1  0.24929834  0.99452125  0.13477418  1
  O  O198  1  0.24494805  0.98702985  0.61879640  1
  O  O199  1  0.74150955  0.49313324  0.13681204  1
  O  O200  1  0.74113992  0.49454003  0.63119254  1
  O  O201  1  0.74092697  0.99169760  0.12196274  1
  O  O202  1  0.74569587  0.99394989  0.63058386  1
  O  O203  1  0.01594998  0.37886583  0.24541897  1
  O  O204  1  -0.00341094  0.39980678  0.77738047  1
  O  O205  1  0.01033078  0.86604414  0.24173936  1
  O  O206  1  0.00772539  0.85901243  0.76046741  1
  O  O207  1  0.50261438  0.36965909  0.25775896  1
  O  O208  1  0.51463515  0.38092600  0.75735661  1
  O  O209  1  0.49311008  0.87450388  0.26151549  1
  O  O210  1  0.51540275  0.87501544  0.74578480  1
  O  O211  1  0.49108605  0.13325346  0.24789614  1
  O  O212  1  0.48766219  0.12544979  0.75240404  1
  O  O213  1  0.48911337  0.62392184  0.24763781  1
  O  O214  1  0.50776910  0.63004949  0.73415060  1
  O  O215  1  0.99113122  0.12018787  0.23432121  1
  O  O216  1  0.99122903  0.11352440  0.74649308  1
  O  O217  1  0.99514089  0.63382714  0.24350440  1
  O  O218  1  0.98695698  0.63629514  0.76280197  1
  O  O219  1  0.38327192  0.25928111  0.01179534  1
  O  O220  1  0.37047645  0.25158896  0.51355262  1
  O  O221  1  0.37826221  0.75866479  0.00969555  1
  O  O222  1  0.38319556  0.76054767  0.50831338  1
  O  O223  1  0.87012573  0.26602591  0.00288036  1
  O  O224  1  0.85942391  0.24735027  0.48692329  1
  O  O225  1  0.87014371  0.75369474  0.00436937  1
  O  O226  1  0.87608278  0.75400944  0.50613961  1
  O  O227  1  0.13179525  0.25398334  0.48267191  1
  O  O228  1  0.12038506  0.24761381  0.99042435  1
  O  O229  1  0.12181640  0.75517554  0.47978437  1
  O  O230  1  0.11890976  0.74203097  0.98972268  1
  O  O231  1  0.62756622  0.23991709  0.49508163  1
  O  O232  1  0.62726474  0.24243275  0.99452027  1
  O  O233  1  0.62702615  0.75250815  0.48604488  1
  O  O234  1  0.63002744  0.74567185  0.99460996  1
  O  O235  1  0.49156851  0.25067107  0.13203392  1
  O  O236  1  0.48865777  0.24774601  0.62049677  1
  O  O237  1  0.48537439  0.75492154  0.12553588  1
  O  O238  1  0.49327416  0.74300045  0.62859044  1
  O  O239  1  0.99965719  0.23832487  0.12281134  1
  O  O240  1  1.00109056  0.27123038  0.63081973  1
  O  O241  1  0.99464278  0.74626056  0.13099514  1
  O  O242  1  0.98948558  0.75499460  0.63347846  1
  O  O243  1  0.01363943  0.24332418  0.37601015  1
  O  O244  1  -0.00771854  0.27070518  0.87946526  1
  O  O245  1  -0.00071431  0.74684337  0.36380273  1
  O  O246  1  0.00979605  0.75474802  0.87053707  1
  O  O247  1  0.50082064  0.25771612  0.36953520  1
  O  O248  1  0.51481673  0.25766528  0.88168435  1
  O  O249  1  0.50839305  0.75729486  0.37269870  1
  O  O250  1  0.51417710  0.74350480  0.87529018  1
  O  O251  1  0.25454423  0.12076220  0.48446568  1
  O  O252  1  0.25569617  0.11930695  0.98397577  1
  O  O253  1  0.23208381  0.63684461  0.54599062  1
  O  O254  1  0.23722425  0.61989370  0.99081607  1
  O  O255  1  0.74049967  0.12866099  0.49237414  1
  O  O256  1  0.73938727  0.12534287  0.99355158  1
  O  O257  1  0.74352232  0.62904118  0.49865864  1
  O  O258  1  0.74425776  0.62887026  0.99338196  1
  O  O259  1  0.26240905  0.38349939  0.00957861  1
  O  O260  1  0.26177934  0.36758465  0.51166515  1
  O  O261  1  0.25644415  0.88493073  0.01186899  1
  O  O262  1  0.26285214  0.87759747  0.50485429  1
  O  O263  1  0.75684130  0.37883512  0.01076493  1
  O  O264  1  0.74144491  0.36109756  0.50614823  1
  O  O265  1  0.75604008  0.86933405  0.00677657  1
  O  O266  1  0.75659422  0.87495022  0.51144187  1
  O  O267  1  0.13024456  0.49251876  0.24981451  1
  O  O268  1  0.12881495  0.49467289  0.74177711  1
  O  O269  1  0.13176557  0.99165005  0.24940536  1
  O  O270  1  0.11627940  0.98271211  0.74670758  1
  O  O271  1  0.62837602  0.49650696  0.24569488  1
  O  O272  1  0.63464379  0.49384881  0.74442308  1
  O  O273  1  0.62421020  1.00587403  0.23443375  1
  O  O274  1  0.63388658  0.99425085  0.74643514  1
  O  O275  1  0.36823364  0.00438576  0.25250360  1
  O  O276  1  0.38169436  0.01256059  0.74656545  1
  O  O277  1  0.36473488  0.49599537  0.26486155  1
  O  O278  1  0.37869746  0.49559253  0.76578892  1
  O  O279  1  0.87181873  0.00465900  0.25649469  1
  O  O280  1  0.85880541  -0.00968878  0.75914113  1
  O  O281  1  0.86528085  0.50402793  0.25520992  1
  O  O282  1  0.85822881  0.51103756  0.75322915  1
  O  O283  1  0.13157735  0.36385558  0.36456983  1
  O  O284  1  0.10896662  0.38140276  0.88743443  1
  O  O285  1  0.13138832  0.86301821  0.35889432  1
  O  O286  1  0.12360230  0.86877814  0.86965618  1
  O  O287  1  0.61406989  0.37041806  0.37115963  1
  O  O288  1  0.62389531  0.36899584  0.86866959  1
  O  O289  1  0.61670372  0.86514281  0.37538871  1
  O  O290  1  0.63458464  0.86597521  0.86578557  1
  O  O291  1  0.37469561  0.13472617  0.12849397  1
  O  O292  1  0.37065749  0.13442948  0.63561090  1
  O  O293  1  0.36652059  0.64013264  0.11703971  1
  O  O294  1  0.38585261  0.63255166  0.62418514  1
  O  O295  1  0.88477933  0.12233659  0.13206552  1
  O  O296  1  0.89291801  0.11510873  0.61513840  1
  O  O297  1  0.87913789  0.63194608  0.13170458  1
  O  O298  1  0.86915733  0.63296960  0.63728075  1
  O  O299  1  0.25693675  0.26298273  0.13103355  1
  O  O300  1  0.25872685  0.25970591  0.62900244  1
  O  O301  1  0.25954905  0.76130487  0.12857447  1
  O  O302  1  0.26510136  0.76557334  0.63185718  1
  O  O303  1  0.74045175  0.26546189  0.12582680  1
  O  O304  1  0.74302528  0.25826284  0.61387300  1
  O  O305  1  0.75313170  0.75601296  0.11921178  1
  O  O306  1  0.76023242  0.75801605  0.62645343  1
  O  O307  1  0.24697622  0.23929665  0.37468552  1
  O  O308  1  0.25579481  0.23255580  0.87839374  1
  O  O309  1  0.24462656  0.75143519  0.37128230  1
  O  O310  1  0.23868029  0.74344446  0.87178035  1
  O  O311  1  0.73785287  0.24258353  0.38095611  1
  O  O312  1  0.74177783  0.24541439  0.87819735  1
  O  O313  1  0.73815451  0.75011837  0.37498517  1
  O  O314  1  0.74303154  0.74360117  0.87939913  1
  O  O315  1  -0.00368833  0.11816662  0.01269276  1
  O  O316  1  0.00269178  0.10832915  0.49384049  1
  O  O317  1  0.00728165  0.62154544  0.00583371  1
  O  O318  1  0.01266249  0.60982425  0.49322911  1
  O  O319  1  0.51122742  0.11871794  -0.00039788  1
  O  O320  1  0.50831561  0.11354077  0.49028512  1
  O  O321  1  0.50591338  0.61137950  -0.00341289  1
  O  O322  1  0.50669527  0.62793947  0.52040054  1
  O  O323  1  0.48747536  0.36756227  0.49241839  1
  O  O324  1  0.49177029  0.38512184  0.99478250  1
  O  O325  1  0.49221352  0.88219013  0.48922265  1
  O  O326  1  0.49023807  0.88300277  1.00043362  1
  O  O327  1  1.00365255  0.38526961  0.48993182  1
  O  O328  1  0.99108125  0.38728828  1.00333015  1
  O  O329  1  0.98893169  0.87887076  0.49642299  1
  O  O330  1  0.99573640  0.88213753  0.99434707  1
  O  O331  1  0.49079774  0.48642463  0.37352696  1
  O  O332  1  0.49571884  0.49550966  0.88263394  1
  O  O333  1  0.49542796  0.99231847  0.38058069  1
  O  O334  1  0.50009908  1.00143332  0.88551956  1
  O  O335  1  0.98312520  0.50029550  0.36245402  1
  O  O336  1  0.99915298  0.50203862  0.89287962  1
  O  O337  1  0.98847687  1.00145033  0.37797695  1
  O  O338  1  0.99406367  0.99502634  0.88292007  1
  O  O339  1  0.00104166  0.00338171  0.11521592  1
  O  O340  1  0.01013637  -0.01231113  0.60495414  1
  O  O341  1  0.00623599  0.50916756  0.12002714  1
  O  O342  1  0.00675059  0.47940805  0.63321860  1
  O  O343  1  0.50722825  0.00128530  0.11485724  1
  O  O344  1  0.50769144  -0.00612372  0.60918953  1
  O  O345  1  0.50711707  0.49292555  0.11721100  1
  O  O346  1  0.50676084  0.51105935  0.63115671  1
  O  O347  1  0.24263742  0.38456715  0.24360241  1
  O  O348  1  0.25631488  0.37109074  0.74450607  1
  O  O349  1  0.24586349  0.88344031  0.24030710  1
  O  O350  1  0.23937259  0.87505054  0.74047722  1
  O  O351  1  0.74039801  0.38116203  0.24561375  1
  O  O352  1  0.74205538  0.38311874  0.74194299  1
  O  O353  1  0.75316990  0.87642229  0.23373726  1
  O  O354  1  0.74273076  0.88108859  0.73838311  1
  O  O355  1  0.25415246  0.11738156  0.25323276  1
  O  O356  1  0.26505470  0.12854068  0.76262863  1
  O  O357  1  0.25477610  0.60841855  0.24504754  1
  O  O358  1  0.24643948  0.62311186  0.75816455  1
  O  O359  1  0.75511585  0.12088938  0.25461438  1
  O  O360  1  0.74495235  0.11631262  0.75914158  1
  O  O361  1  0.75637993  0.61649643  0.25012881  1
  O  O362  1  0.75236006  0.62138550  0.75707858  1
  O  O363  1  0.36793185  0.11904761  0.36705772  1
  O  O364  1  0.37511566  0.12294684  0.86244464  1
  O  O365  1  0.37871906  0.61110609  0.38320942  1
  O  O366  1  0.36409296  0.61684777  0.88203352  1
  O  O367  1  0.86729538  0.11369949  0.36594057  1
  O  O368  1  0.86250005  0.12395672  0.88461337  1
  O  O369  1  0.87018518  0.61526767  0.36611821  1
  O  O370  1  0.86237366  0.62686834  0.86754881  1
  O  O371  1  0.13179956  0.37937677  0.13459235  1
  O  O372  1  0.14282950  0.37938844  0.62825576  1
  O  O373  1  0.13463874  0.87436396  0.13360837  1
  O  O374  1  0.13448811  0.86857676  0.63179104  1
  O  O375  1  0.62884596  0.38606310  0.12990954  1
  O  O376  1  0.62823715  0.38159286  0.63156878  1
  O  O377  1  0.63312014  0.88443813  0.11668149  1
  O  O378  1  0.63249147  0.87933404  0.62927502  1
  O  O379  1  0.12866728  0.26444129  0.25837725  1
  O  O380  1  0.11145385  0.24427494  0.76921101  1
  O  O381  1  0.11957785  0.75455523  0.25770032  1
  O  O382  1  0.11783098  0.75392956  0.75803284  1
  O  O383  1  0.61618806  0.25459761  0.25590307  1
  O  O384  1  0.63070384  0.26005957  0.75853620  1
  O  O385  1  0.62234320  0.74831953  0.26301398  1
  O  O386  1  0.62727335  0.75912646  0.75899203  1
  O  O387  1  0.37773451  0.24910955  0.23994524  1
  O  O388  1  0.38219722  0.24056294  0.73835691  1
  O  O389  1  0.37649591  0.74748139  0.23438058  1
  O  O390  1  0.38138408  0.75805072  0.73857878  1
  O  O391  1  0.86973077  0.23564476  0.25672501  1
  O  O392  1  0.89038644  0.27848658  0.74471323  1
  O  O393  1  0.88162598  0.74688192  0.24519260  1
  O  O394  1  0.88106908  0.74509360  0.74320928  1
  O  O395  1  0.37075026  0.48771336  0.49586640  1
  O  O396  1  0.38148536  0.49336088  0.99443352  1
  O  O397  1  0.38267321  0.99462726  0.49377181  1
  O  O398  1  0.38650358  0.98973004  1.00022424  1
  O  O399  1  0.87155528  0.50332710  0.48206428  1
  O  O400  1  0.88316650  0.49836851  1.00329429  1
  O  O401  1  0.88392496  0.99005607  0.48880698  1
  O  O402  1  0.88273145  0.99469464  0.99370234  1
  O  O403  1  0.11253281  0.00125414  0.00171159  1
  O  O404  1  0.11021238  -0.00937915  0.48747125  1
  O  O405  1  0.11802144  0.50978915  0.01090093  1
  O  O406  1  0.13067457  0.49751082  0.52525172  1
  O  O407  1  0.61929121  0.00672476  0.00503710  1
  O  O408  1  0.61843342  0.00507924  0.50157031  1
  O  O409  1  0.61713752  0.50247022  0.00852133  1
  O  O410  1  0.62654793  0.49706554  0.51259986  1
  O  O411  1  0.36822303  0.37041478  0.12004872  1
  O  O412  1  0.37604709  0.36144780  0.62258482  1
  O  O413  1  0.36760950  0.86694863  0.11584681  1
  O  O414  1  0.37088806  0.86965041  0.61618926  1
  O  O415  1  0.86285685  0.38353739  0.12005928  1
  O  O416  1  0.85754259  0.38701681  0.60601545  1
  O  O417  1  0.86811336  0.86960393  0.11747122  1
  O  O418  1  0.86686883  0.86496290  0.61375650  1
  O  O419  1  0.13307736  0.13971817  0.36223196  1
  O  O420  1  0.14108367  0.11657899  0.87981001  1
  O  O421  1  0.13167389  0.63985872  0.37241549  1
  O  O422  1  0.13154925  0.63172599  0.88067243  1
  O  O423  1  0.62863720  0.12743544  0.38217389  1
  O  O424  1  0.63342472  0.13225920  0.87979300  1
  O  O425  1  0.62459026  0.63677216  0.37861363  1
  O  O426  1  0.63373456  0.63077681  0.87987949  1
