# generated using pymatgen
data_V85Zn86O256
_symmetry_space_group_name_H-M   'P 1'
_cell_length_a   16.93742841
_cell_length_b   16.95937210
_cell_length_c   16.95944695
_cell_angle_alpha   89.93555371
_cell_angle_beta   89.99184064
_cell_angle_gamma   90.08517327
_symmetry_Int_Tables_number   1
_chemical_formula_structural   V85Zn86O256
_chemical_formula_sum   'V85 Zn86 O256'
_cell_volume   4871.56125883
_cell_formula_units_Z   1
loop_
 _symmetry_equiv_pos_site_id
 _symmetry_equiv_pos_as_xyz
  1  'x, y, z'
loop_
 _atom_site_type_symbol
 _atom_site_label
 _atom_site_symmetry_multiplicity
 _atom_site_fract_x
 _atom_site_fract_y
 _atom_site_fract_z
 _atom_site_occupancy
  V  V0  1  0.50042209  0.00281700  0.00081642  1
  V  V1  1  0.87964368  0.00205992  0.87755681  1
  V  V2  1  0.24485875  0.12299399  0.38184204  1
  V  V3  1  0.74802115  0.37015931  0.11816959  1
  V  V4  1  0.12700544  0.75357256  0.86631308  1
  V  V5  1  0.00446374  0.00510419  0.49735327  1
  V  V6  1  0.23707008  0.49729201  0.74731413  1
  V  V7  1  0.37545793  0.88353256  0.50023024  1
  V  V8  1  0.37383609  0.37963397  0.48985198  1
  V  V9  1  0.12153711  0.25522563  0.85664837  1
  V  V10  1  0.62514716  -0.00115896  0.12732137  1
  V  V11  1  0.49950565  0.75115692  0.75042542  1
  V  V12  1  0.51095489  0.87317904  0.37003093  1
  V  V13  1  0.36806378  0.75568330  0.62451394  1
  V  V14  1  0.24734448  0.75374925  0.01028373  1
  V  V15  1  0.74680511  0.00111972  0.75851678  1
  V  V16  1  0.12370164  0.62439794  -0.00025488  1
  V  V17  1  0.87091307  0.62202180  0.75285608  1
  V  V18  1  0.71819341  0.92232813  0.59190304  1
  V  V19  1  0.37564427  0.12392523  0.25247153  1
  V  V20  1  0.00196495  0.49761723  0.50167465  1
  V  V21  1  0.24374906  0.37687164  0.62694230  1
  V  V22  1  0.61978452  0.49265876  0.12961628  1
  V  V23  1  0.24951795  0.62471999  0.87573950  1
  V  V24  1  0.00452356  0.87607490  0.86529057  1
  V  V25  1  -0.00168813  0.62297118  0.62452790  1
  V  V26  1  0.87592911  0.11995679  0.25034745  1
  V  V27  1  -0.00889025  0.87616874  0.37445962  1
  V  V28  1  0.01110441  0.12829614  0.62599459  1
  V  V29  1  0.12346200  0.49824335  0.12783445  1
  V  V30  1  0.50438464  0.37402220  0.86723690  1
  V  V31  1  0.62845641  0.87757836  0.74929530  1
  V  V32  1  0.12541890  0.74828858  0.37543054  1
  V  V33  1  0.74516934  0.74642170  0.49625803  1
  V  V34  1  0.12612620  0.87308551  0.24870076  1
  V  V35  1  0.62287840  0.62426451  0.49419987  1
  V  V36  1  0.38030971  0.24947013  0.62028861  1
  V  V37  1  0.86697939  0.75336994  0.62679384  1
  V  V38  1  0.87448493  0.86811500  -0.00439381  1
  V  V39  1  0.87379245  0.24970673  0.11665179  1
  V  V40  1  0.75237163  0.62192794  0.88010215  1
  V  V41  1  0.75448826  -0.00103803  0.24577306  1
  V  V42  1  0.24466527  0.24736058  -0.00220708  1
  V  V43  1  0.73995309  0.49511276  0.75229135  1
  V  V44  1  0.73772495  0.36927918  0.62666602  1
  V  V45  1  0.86861410  0.74652235  0.12049784  1
  V  V46  1  0.50157532  0.87688576  0.87568367  1
  V  V47  1  0.75363056  0.13789268  0.88058739  1
  V  V48  1  0.26073179  0.61914125  0.37197632  1
  V  V49  1  0.12598345  0.62225810  0.50313846  1
  V  V50  1  0.37308379  0.37523540  -0.00062621  1
  V  V51  1  0.51691846  0.11274382  0.61166119  1
  V  V52  1  0.24907284  -0.01378623  0.74633861  1
  V  V53  1  0.37485280  0.00097535  0.87378366  1
  V  V54  1  0.13143121  -0.00756327  0.12285737  1
  V  V55  1  -0.00252999  0.62337555  0.12346820  1
  V  V56  1  0.51065436  0.24863090  0.25234456  1
  V  V57  1  0.62883246  0.13409025  0.00022730  1
  V  V58  1  0.63761454  0.23224971  0.38701724  1
  V  V59  1  0.24884173  0.37455479  0.12835704  1
  V  V60  1  0.87707707  0.25170980  0.62733952  1
  V  V61  1  -0.00840800  0.49134103  -0.00646327  1
  V  V62  1  0.51175050  0.37852446  0.37178148  1
  V  V63  1  0.74678033  0.49186584  0.25023508  1
  V  V64  1  0.25311044  -0.00782440  0.25097577  1
  V  V65  1  0.87646567  0.87666346  0.49987172  1
  V  V66  1  0.37160536  0.87696411  0.00813540  1
  V  V67  1  0.37183073  0.50060453  0.87189375  1
  V  V68  1  0.50008553  0.62431058  0.62513800  1
  V  V69  1  0.12008116  0.24453399  0.39041240  1
  V  V70  1  0.00561176  0.12184276  0.12187299  1
  V  V71  1  -0.00771295  0.74944076  0.24919532  1
  V  V72  1  0.00300946  0.24903081  0.25194256  1
  V  V73  1  0.38632313  0.74761063  0.13313640  1
  V  V74  1  0.63052452  0.75087740  0.87978266  1
  V  V75  1  0.37473494  0.24831117  0.12678730  1
  V  V76  1  0.49693125  0.50374937  0.00454661  1
  V  V77  1  0.74671444  0.87088019  0.11919039  1
  V  V78  1  0.12707497  -0.02048813  0.62652401  1
  V  V79  1  0.62237221  0.62645510  0.00352299  1
  V  V80  1  0.87324343  0.50139510  0.37386707  1
  V  V81  1  0.88215752  0.13246668  0.75101252  1
  V  V82  1  -0.00108602  0.37319862  0.37718258  1
  V  V83  1  0.86667560  0.37567360  0.50298786  1
  V  V84  1  0.37939195  0.12446189  0.74613310  1
  Zn  Zn85  1  0.12863181  0.12193549  -0.00592824  1
  Zn  Zn86  1  0.40422725  0.61338186  0.23882354  1
  Zn  Zn87  1  0.25750710  0.49867068  0.25533595  1
  Zn  Zn88  1  0.61690764  0.49204847  0.62725543  1
  Zn  Zn89  1  0.50844737  0.25269029  0.74408055  1
  Zn  Zn90  1  0.87285317  0.62290106  0.24835236  1
  Zn  Zn91  1  0.81834397  0.05047349  0.41452865  1
  Zn  Zn92  1  0.37343004  0.62643347  0.74801441  1
  Zn  Zn93  1  0.49669272  0.50198925  0.49706687  1
  Zn  Zn94  1  0.00653950  -0.00241407  -0.00114719  1
  Zn  Zn95  1  0.38449241  0.00240603  0.38006715  1
  Zn  Zn96  1  0.74503599  0.62401746  0.37030277  1
  Zn  Zn97  1  0.12642491  0.37448110  0.25527405  1
  Zn  Zn98  1  0.50162360  0.12550103  0.12601355  1
  Zn  Zn99  1  0.86766311  0.37045921  -0.01330267  1
  Zn  Zn100  1  -0.00252001  0.37701603  0.85410789  1
  Zn  Zn101  1  0.00142535  0.75260295  0.74648781  1
  Zn  Zn102  1  0.54289336  0.74901919  0.26488586  1
  Zn  Zn103  1  0.24796207  0.24635104  0.50175182  1
  Zn  Zn104  1  0.24995810  0.12557377  0.87004704  1
  Zn  Zn105  1  0.24902312  0.75365973  0.50385799  1
  Zn  Zn106  1  0.63401129  0.26058815  0.87525426  1
  Zn  Zn107  1  0.18700616  0.18363379  0.19139522  1
  Zn  Zn108  1  0.19759513  0.18048251  0.68267574  1
  Zn  Zn109  1  0.18714574  0.68700232  0.18975545  1
  Zn  Zn110  1  0.18772520  0.68342553  0.68797274  1
  Zn  Zn111  1  0.69091426  0.18487404  0.18870026  1
  Zn  Zn112  1  0.68676257  0.19344312  0.69407536  1
  Zn  Zn113  1  0.68619188  0.67657277  0.18240228  1
  Zn  Zn114  1  0.68477743  0.68756018  0.68700476  1
  Zn  Zn115  1  0.31157803  0.30819706  0.31327700  1
  Zn  Zn116  1  0.31423052  0.31109010  0.80915866  1
  Zn  Zn117  1  0.31516337  0.81202492  0.31939758  1
  Zn  Zn118  1  0.31483529  0.81183598  0.81734423  1
  Zn  Zn119  1  0.81363821  0.31222166  0.30741822  1
  Zn  Zn120  1  0.81748542  0.31846469  0.80849092  1
  Zn  Zn121  1  0.75830762  0.79144184  0.29062771  1
  Zn  Zn122  1  0.81078334  0.81163728  0.81196682  1
  Zn  Zn123  1  0.18466476  0.43586502  0.44158000  1
  Zn  Zn124  1  0.18324838  0.43475296  0.93874997  1
  Zn  Zn125  1  0.18943357  0.93510976  0.43966533  1
  Zn  Zn126  1  0.19021913  0.93674602  0.93427283  1
  Zn  Zn127  1  0.68338111  0.43832422  0.44122015  1
  Zn  Zn128  1  0.68737650  0.44171043  0.93979052  1
  Zn  Zn129  1  0.67935326  0.94297809  0.42926661  1
  Zn  Zn130  1  0.68882261  0.94208584  0.94060142  1
  Zn  Zn131  1  0.31061741  0.06321325  0.06502447  1
  Zn  Zn132  1  0.31127055  0.06104177  0.56575712  1
  Zn  Zn133  1  0.31150172  0.56459286  0.06639130  1
  Zn  Zn134  1  0.31323480  0.56180367  0.56149744  1
  Zn  Zn135  1  0.81467638  0.06265192  0.06141390  1
  Zn  Zn136  1  0.78315457  0.08553061  0.57238020  1
  Zn  Zn137  1  0.80899798  0.55908014  0.06127778  1
  Zn  Zn138  1  0.80798995  0.55941066  0.56681907  1
  Zn  Zn139  1  0.43585471  0.43412940  0.19222483  1
  Zn  Zn140  1  0.42999919  0.43870360  0.68555668  1
  Zn  Zn141  1  0.44175411  0.93267275  0.19193502  1
  Zn  Zn142  1  0.44072917  0.93927646  0.68344483  1
  Zn  Zn143  1  0.93497970  0.43320214  0.18609458  1
  Zn  Zn144  1  0.92925370  0.44268877  0.68850975  1
  Zn  Zn145  1  0.93847758  0.93433794  0.18372493  1
  Zn  Zn146  1  0.93314985  0.94164625  0.68568540  1
  Zn  Zn147  1  0.06322112  0.06110062  0.31136732  1
  Zn  Zn148  1  0.06795408  0.06436712  0.80896196  1
  Zn  Zn149  1  0.06251321  0.56343241  0.31167641  1
  Zn  Zn150  1  0.05963713  0.56400591  0.81203889  1
  Zn  Zn151  1  0.56356789  0.05872214  0.31358714  1
  Zn  Zn152  1  0.56457520  0.07018544  0.81079145  1
  Zn  Zn153  1  0.56288208  0.56174731  0.31066892  1
  Zn  Zn154  1  0.56090041  0.56361045  0.81349855  1
  Zn  Zn155  1  0.44112218  0.18798719  0.43736426  1
  Zn  Zn156  1  0.43600324  0.18758368  0.93794045  1
  Zn  Zn157  1  0.43877284  0.69349566  0.43874145  1
  Zn  Zn158  1  0.43718591  0.68882220  0.94014187  1
  Zn  Zn159  1  0.91580576  0.18144348  0.44829213  1
  Zn  Zn160  1  0.94516617  0.18966481  0.93703883  1
  Zn  Zn161  1  0.93407287  0.68794818  0.43748666  1
  Zn  Zn162  1  0.93973074  0.68632442  0.93572575  1
  Zn  Zn163  1  0.06278244  0.31197834  0.06271034  1
  Zn  Zn164  1  0.06274325  0.31347406  0.68187921  1
  Zn  Zn165  1  0.05870817  0.81313743  0.05868900  1
  Zn  Zn166  1  0.05874336  0.80747366  0.56132122  1
  Zn  Zn167  1  0.55948314  0.31432942  0.06071756  1
  Zn  Zn168  1  0.56130478  0.30278757  0.55375525  1
  Zn  Zn169  1  0.56175252  0.81383950  0.06182215  1
  Zn  Zn170  1  0.55655739  0.81182786  0.55701863  1
  O  O171  1  0.12079053  0.11286430  0.12521182  1
  O  O172  1  0.11331276  0.12253237  0.62766382  1
  O  O173  1  0.11920164  0.61773444  0.11992705  1
  O  O174  1  0.11470210  0.63272212  0.61242924  1
  O  O175  1  0.62503916  0.11843405  0.11613136  1
  O  O176  1  0.61583082  0.12984340  0.62727125  1
  O  O177  1  0.63098603  0.61005451  0.10947113  1
  O  O178  1  0.61036164  0.62743685  0.61980425  1
  O  O179  1  0.38161284  0.36575098  0.38679672  1
  O  O180  1  0.37770794  0.38387795  0.88081364  1
  O  O181  1  0.38093436  0.87878037  0.38582299  1
  O  O182  1  0.38259841  0.88066983  0.88599855  1
  O  O183  1  0.87743905  0.38291034  0.38205724  1
  O  O184  1  0.88579851  0.37082510  0.87669217  1
  O  O185  1  0.88983606  0.86653307  0.38210652  1
  O  O186  1  0.87926111  0.88141273  0.87908360  1
  O  O187  1  0.24955952  0.00696955  0.36707143  1
  O  O188  1  0.25715430  0.00249613  0.86550920  1
  O  O189  1  0.24151181  0.51535970  0.37564917  1
  O  O190  1  0.25429643  0.50198480  0.87114885  1
  O  O191  1  0.75249074  -0.01407495  0.35195365  1
  O  O192  1  0.76100379  0.00808624  0.87277251  1
  O  O193  1  0.75539610  0.49618455  0.36734085  1
  O  O194  1  0.74425483  0.51003194  0.86648381  1
  O  O195  1  0.24022462  0.49101989  0.12331680  1
  O  O196  1  0.25713641  0.48706052  0.63268071  1
  O  O197  1  0.24221282  1.00250731  0.13666952  1
  O  O198  1  0.23429138  1.00068976  0.62925469  1
  O  O199  1  0.74269140  0.49107357  0.13000208  1
  O  O200  1  0.74353565  0.48958914  0.63388877  1
  O  O201  1  0.74449403  0.99323396  0.12534113  1
  O  O202  1  0.77006534  1.00221584  0.64856186  1
  O  O203  1  -0.00063323  0.36502596  0.25761236  1
  O  O204  1  0.00790671  0.38816987  0.74167775  1
  O  O205  1  0.00436590  0.86953210  0.25694618  1
  O  O206  1  -0.00931264  0.87289146  0.76192312  1
  O  O207  1  0.49252740  0.36279259  0.26585419  1
  O  O208  1  0.49228354  0.37770043  0.76487621  1
  O  O209  1  0.50074051  0.86678151  0.26353099  1
  O  O210  1  0.50809777  0.87208508  0.75626376  1
  O  O211  1  0.49134688  0.13023217  0.24895909  1
  O  O212  1  0.48950154  0.12443699  0.74204309  1
  O  O213  1  0.51117481  0.64007678  0.25276403  1
  O  O214  1  0.49722204  0.63296236  0.74423877  1
  O  O215  1  0.99983150  0.12857814  0.23657367  1
  O  O216  1  0.99074033  0.11612727  0.74003635  1
  O  O217  1  0.99627055  0.63078690  0.24128063  1
  O  O218  1  0.98991236  0.62574219  0.74276638  1
  O  O219  1  0.36346407  0.25427859  0.00443132  1
  O  O220  1  0.37278915  0.25855029  0.50508108  1
  O  O221  1  0.36875457  0.75751459  0.00798487  1
  O  O222  1  0.37228640  0.75791602  0.51012971  1
  O  O223  1  0.88256700  0.24842922  0.01370173  1
  O  O224  1  0.88694772  0.27208116  0.51149672  1
  O  O225  1  0.88064240  0.75875776  0.00428050  1
  O  O226  1  0.87137434  0.75755408  0.50829498  1
  O  O227  1  0.12675373  0.24717568  0.48884205  1
  O  O228  1  0.13678891  0.24795339  1.00007934  1
  O  O229  1  0.12608941  0.74304535  0.49235574  1
  O  O230  1  0.13093509  0.74635004  0.99339560  1
  O  O231  1  0.63126850  0.24390004  0.48657667  1
  O  O232  1  0.61877899  0.23794033  0.99537260  1
  O  O233  1  0.63555227  0.74069600  0.50852707  1
  O  O234  1  0.61651405  0.73866117  0.99225436  1
  O  O235  1  0.49209810  0.25092090  0.13295888  1
  O  O236  1  0.49092430  0.24414893  0.62499448  1
  O  O237  1  0.48761477  0.75599128  0.12745806  1
  O  O238  1  0.49146080  0.74505582  0.63228606  1
  O  O239  1  0.99738291  0.24273396  0.13213254  1
  O  O240  1  0.98997451  0.24036956  0.62701219  1
  O  O241  1  0.99012380  0.74495232  0.12817031  1
  O  O242  1  0.98757560  0.74024501  0.62590634  1
  O  O243  1  0.00239255  0.25146789  0.36980176  1
  O  O244  1  0.01892252  0.25014712  0.87395970  1
  O  O245  1  0.00507104  0.75370769  0.36896684  1
  O  O246  1  0.00955876  0.75709413  0.87286611  1
  O  O247  1  0.51171967  0.25414177  0.36925228  1
  O  O248  1  0.49281769  0.26937475  0.87798276  1
  O  O249  1  0.49458503  0.76607834  0.37352215  1
  O  O250  1  0.50797390  0.75537407  0.87035363  1
  O  O251  1  0.25704868  0.12527950  0.48552107  1
  O  O252  1  0.25086367  0.13439160  0.99563865  1
  O  O253  1  0.24154169  0.62558413  0.49218732  1
  O  O254  1  0.24267587  0.63194196  0.99496639  1
  O  O255  1  0.80945568  0.13763297  0.48132000  1
  O  O256  1  0.74271911  0.12100690  0.99238079  1
  O  O257  1  0.74041993  0.62952311  0.50321517  1
  O  O258  1  0.74024253  0.61739741  0.98766497  1
  O  O259  1  0.25312632  0.36891580  0.01034061  1
  O  O260  1  0.26055618  0.37352005  0.50596982  1
  O  O261  1  0.26053013  0.86575400  -0.00613005  1
  O  O262  1  0.26712484  0.86981923  0.49393175  1
  O  O263  1  0.75180138  0.38008584  0.01218166  1
  O  O264  1  0.75805509  0.38295034  0.51083677  1
  O  O265  1  0.76408134  0.88089748  0.00578136  1
  O  O266  1  0.75750219  0.86542530  0.50114092  1
  O  O267  1  0.12495475  0.49752189  0.23780844  1
  O  O268  1  0.13808262  0.50575917  0.75264092  1
  O  O269  1  0.13254479  0.99220064  0.24357380  1
  O  O270  1  0.13381418  1.00109194  0.73651416  1
  O  O271  1  0.63192828  0.49883271  0.23886411  1
  O  O272  1  0.63511619  0.50708850  0.74600304  1
  O  O273  1  0.63474333  1.00596298  0.23340218  1
  O  O274  1  0.63841212  0.99606127  0.75923251  1
  O  O275  1  0.36822654  0.00602317  0.24984496  1
  O  O276  1  0.37040219  0.00453391  0.75222612  1
  O  O277  1  0.36921977  0.50776350  0.23958296  1
  O  O278  1  0.36748794  0.50201551  0.76286470  1
  O  O279  1  0.86825452  0.00804918  0.23525365  1
  O  O280  1  0.87216998  0.00682718  0.76468131  1
  O  O281  1  0.87015334  0.49846055  0.25844666  1
  O  O282  1  0.85875630  0.51675572  0.74386772  1
  O  O283  1  0.11692200  0.36575258  0.37525156  1
  O  O284  1  0.12489906  0.35800925  0.87612737  1
  O  O285  1  0.11874799  0.86166293  0.37244027  1
  O  O286  1  0.11604159  0.86640260  0.87963745  1
  O  O287  1  0.61322202  0.36645022  0.37940783  1
  O  O288  1  0.60747305  0.37811614  0.88315852  1
  O  O289  1  0.61145317  0.86997194  0.38364562  1
  O  O290  1  0.62193760  0.86824467  0.87478902  1
  O  O291  1  0.37548963  0.13028482  0.13640082  1
  O  O292  1  0.37968430  0.13183561  0.62900744  1
  O  O293  1  0.37309563  0.64313893  0.12244195  1
  O  O294  1  0.38480485  0.63263440  0.62398653  1
  O  O295  1  0.88562022  0.13007082  0.12866158  1
  O  O296  1  0.88119834  0.13415614  0.63603055  1
  O  O297  1  0.87911826  0.63111467  0.12079610  1
  O  O298  1  0.87798781  0.63285649  0.63094123  1
  O  O299  1  0.25264245  0.25516319  0.12000133  1
  O  O300  1  0.26293403  0.25789233  0.62294224  1
  O  O301  1  0.25028293  0.74810879  0.11275429  1
  O  O302  1  0.26451560  0.74389418  0.62727273  1
  O  O303  1  0.76083421  0.25797864  0.13167570  1
  O  O304  1  0.76477158  0.25634474  0.63165094  1
  O  O305  1  0.76198022  0.75537823  0.11807209  1
  O  O306  1  0.76010742  0.74573566  0.61662177  1
  O  O307  1  0.23812753  0.24123283  0.37368441  1
  O  O308  1  0.24191690  0.25076598  0.88064154  1
  O  O309  1  0.24028423  0.73870880  0.37704927  1
  O  O310  1  0.24429555  0.74515238  0.88343588  1
  O  O311  1  0.73330789  0.25474546  0.36155818  1
  O  O312  1  0.75475517  0.24054096  0.87470609  1
  O  O313  1  0.76274767  0.74109854  0.39261234  1
  O  O314  1  0.73620990  0.74243160  0.87191022  1
  O  O315  1  0.00632745  0.12254070  0.01132271  1
  O  O316  1  -0.00763335  0.10940845  0.50910350  1
  O  O317  1  0.00488166  0.61473496  0.00423585  1
  O  O318  1  0.00403959  0.61983878  0.50522505  1
  O  O319  1  0.50618990  0.11866475  0.00177068  1
  O  O320  1  0.49960166  0.12563377  0.51265313  1
  O  O321  1  0.50604437  0.61177840  -0.00572309  1
  O  O322  1  0.50475576  0.62501295  0.50644565  1
  O  O323  1  0.49065915  0.37262454  0.48750967  1
  O  O324  1  0.49089308  0.38539151  0.99237610  1
  O  O325  1  0.48595791  0.87175227  0.49044973  1
  O  O326  1  0.49306986  0.88307698  0.99445676  1
  O  O327  1  0.99012648  0.39195344  0.49433481  1
  O  O328  1  0.99999541  0.38733782  1.00262081  1
  O  O329  1  0.99438862  0.87925090  0.49502202  1
  O  O330  1  0.98990569  0.87727758  0.98787782  1
  O  O331  1  0.50546952  0.48214793  0.37512156  1
  O  O332  1  0.49082684  0.49271638  0.88030550  1
  O  O333  1  0.49939875  0.98427457  0.37025785  1
  O  O334  1  0.49515806  0.99712640  0.88076682  1
  O  O335  1  0.99226992  0.49649560  0.38037140  1
  O  O336  1  1.00900536  0.49849661  0.89164981  1
  O  O337  1  1.01248534  0.98813891  0.38529128  1
  O  O338  1  0.99747018  0.99431729  0.87564791  1
  O  O339  1  0.00953131  0.00620240  0.12275284  1
  O  O340  1  0.01004089  0.00304386  0.62006458  1
  O  O341  1  0.00531768  0.50255907  0.11791681  1
  O  O342  1  -0.01062506  0.51605553  0.61450907  1
  O  O343  1  0.50847215  -0.00049809  0.11991183  1
  O  O344  1  0.50461072  0.01363509  0.62616628  1
  O  O345  1  0.50720369  0.49001558  0.11568137  1
  O  O346  1  0.49774817  0.50956415  0.62499068  1
  O  O347  1  0.24842769  0.37411774  0.23939486  1
  O  O348  1  0.25711374  0.38125771  0.73524221  1
  O  O349  1  0.24431905  0.88539353  0.25841160  1
  O  O350  1  0.25685736  0.88687591  0.75335759  1
  O  O351  1  0.75719389  0.38530584  0.23608774  1
  O  O352  1  0.75083969  0.38482710  0.74144629  1
  O  O353  1  0.76327673  0.88509573  0.22524585  1
  O  O354  1  0.74297815  0.88536178  0.75365792  1
  O  O355  1  0.25744148  0.11659501  0.25833866  1
  O  O356  1  0.26541066  0.11486483  0.74813699  1
  O  O357  1  0.24322789  0.62389502  0.26728793  1
  O  O358  1  0.25333266  0.61628182  0.75723332  1
  O  O359  1  0.76413337  0.11362477  0.24172413  1
  O  O360  1  0.76134674  0.11899291  0.76138524  1
  O  O361  1  0.75449250  0.60615855  0.25001229  1
  O  O362  1  0.75237426  0.62190436  0.75888536  1
  O  O363  1  0.36995279  0.12365775  0.36553575  1
  O  O364  1  0.37614965  0.11805067  0.86562124  1
  O  O365  1  0.36141569  0.62886947  0.37701956  1
  O  O366  1  0.36811710  0.61715489  0.87648242  1
  O  O367  1  0.89652915  0.11758904  0.35121083  1
  O  O368  1  0.87438764  0.12059669  0.87284840  1
  O  O369  1  0.87343561  0.61004233  0.37570340  1
  O  O370  1  0.86370726  0.63256093  0.86710694  1
  O  O371  1  0.13212106  0.38120715  0.12761836  1
  O  O372  1  0.14604783  0.36631018  0.61667000  1
  O  O373  1  0.11785298  0.88503307  0.13009839  1
  O  O374  1  0.11891830  0.88097236  0.62882114  1
  O  O375  1  0.63200069  0.38329954  0.11881012  1
  O  O376  1  0.63430412  0.36856539  0.61812688  1
  O  O377  1  0.63666702  0.88455278  0.11177753  1
  O  O378  1  0.63129792  0.87376258  0.62821831  1
  O  O379  1  0.11244992  0.24989475  0.25377495  1
  O  O380  1  0.13202408  0.24791700  0.75350951  1
  O  O381  1  0.11701232  0.75474011  0.25582916  1
  O  O382  1  0.12400263  0.74482482  0.76273216  1
  O  O383  1  0.61235150  0.24384655  0.24890222  1
  O  O384  1  0.61861563  0.24450556  0.76477602  1
  O  O385  1  0.65585755  0.75667291  0.25014275  1
  O  O386  1  0.61922156  0.75672332  0.75790989  1
  O  O387  1  0.38136800  0.24042733  0.24707731  1
  O  O388  1  0.37962245  0.24178458  0.74097864  1
  O  O389  1  0.36425451  0.75204665  0.23261530  1
  O  O390  1  0.38300698  0.75123268  0.74523870  1
  O  O391  1  0.88684110  0.24231653  0.24131057  1
  O  O392  1  0.87621167  0.23966662  0.74454235  1
  O  O393  1  0.87372856  0.74585657  0.23804495  1
  O  O394  1  0.87298550  0.74144147  0.74255359  1
  O  O395  1  0.37735364  0.48342915  0.50157396  1
  O  O396  1  0.37805819  0.49768272  0.99293454  1
  O  O397  1  0.37186714  0.98741903  0.50150542  1
  O  O398  1  0.37834317  0.99413548  0.99747760  1
  O  O399  1  0.87806747  0.49544096  0.49393040  1
  O  O400  1  0.88942731  0.49753268  1.00428280  1
  O  O401  1  0.88445355  0.98283832  0.49514316  1
  O  O402  1  0.87976193  0.99468675  0.98889046  1
  O  O403  1  0.12838803  0.00084472  0.00820213  1
  O  O404  1  0.11785735  -0.00840139  0.51472505  1
  O  O405  1  0.11771027  0.50267127  0.01084678  1
  O  O406  1  0.11333224  0.50933611  0.49682153  1
  O  O407  1  0.62001078  0.00958009  0.00755990  1
  O  O408  1  0.68990161  0.00129633  0.52432373  1
  O  O409  1  0.61391811  0.50557807  0.00553699  1
  O  O410  1  0.61893767  0.50903910  0.50789684  1
  O  O411  1  0.36645882  0.36780733  0.11914670  1
  O  O412  1  0.37270870  0.36688300  0.61285439  1
  O  O413  1  0.37749853  0.86771148  0.11405948  1
  O  O414  1  0.38240062  0.86799491  0.61309638  1
  O  O415  1  0.86815455  0.36520185  0.11992383  1
  O  O416  1  0.86510133  0.37106177  0.62022359  1
  O  O417  1  0.87374577  0.86615187  0.11268789  1
  O  O418  1  0.87264818  0.86799840  0.61657595  1
  O  O419  1  0.13331577  0.13200778  0.36862985  1
  O  O420  1  0.12966496  0.13859787  0.87382890  1
  O  O421  1  0.12346661  0.63432197  0.38468302  1
  O  O422  1  0.12879336  0.63289471  0.88180982  1
  O  O423  1  0.62781604  0.13244204  0.37163058  1
  O  O424  1  0.63810028  0.12295717  0.88499655  1
  O  O425  1  0.62719465  0.61913773  0.39052860  1
  O  O426  1  0.62895745  0.63150946  0.88345457  1
