# generated using pymatgen
data_V85Zn86O256
_symmetry_space_group_name_H-M   'P 1'
_cell_length_a   16.91374994
_cell_length_b   16.91530668
_cell_length_c   16.90493498
_cell_angle_alpha   90.04010585
_cell_angle_beta   90.04047891
_cell_angle_gamma   89.99625365
_symmetry_Int_Tables_number   1
_chemical_formula_structural   V85Zn86O256
_chemical_formula_sum   'V85 Zn86 O256'
_cell_volume   4836.52092266
_cell_formula_units_Z   1
loop_
 _symmetry_equiv_pos_site_id
 _symmetry_equiv_pos_as_xyz
  1  'x, y, z'
loop_
 _atom_site_type_symbol
 _atom_site_label
 _atom_site_symmetry_multiplicity
 _atom_site_fract_x
 _atom_site_fract_y
 _atom_site_fract_z
 _atom_site_occupancy
  V  V0  1  0.87590534  0.75338332  0.12617425  1
  V  V1  1  0.24774046  0.38685950  0.62678042  1
  V  V2  1  0.74955206  0.49955933  0.73804986  1
  V  V3  1  0.37349030  0.49724468  0.87005779  1
  V  V4  1  0.87819851  0.36908535  0.00309599  1
  V  V5  1  0.50748754  0.62516359  0.62995391  1
  V  V6  1  0.12395948  0.63229674  0.50322158  1
  V  V7  1  0.50163948  -0.00192110  0.49853059  1
  V  V8  1  0.88431621  0.75642084  0.62233102  1
  V  V9  1  0.88153978  0.62982487  0.74624881  1
  V  V10  1  0.75439740  0.75568746  -0.00310672  1
  V  V11  1  0.25444611  0.37266768  0.12654962  1
  V  V12  1  0.87448618  0.49864732  0.87265936  1
  V  V13  1  0.50251077  0.62822359  0.12895986  1
  V  V14  1  0.75323736  0.75761677  0.49963933  1
  V  V15  1  0.12079232  0.00006515  0.12781570  1
  V  V16  1  0.87261889  0.13108366  0.24714655  1
  V  V17  1  0.37542515  0.13360772  0.23268604  1
  V  V18  1  0.00107192  0.24482632  0.73813001  1
  V  V19  1  0.87558671  0.12124103  0.74308531  1
  V  V20  1  0.25840555  0.12113801  0.87695031  1
  V  V21  1  0.25180255  0.50021090  0.25066847  1
  V  V22  1  0.74869500  0.00146308  0.24954483  1
  V  V23  1  0.00926561  0.49237082  0.50417566  1
  V  V24  1  0.61621830  0.25477037  0.87280696  1
  V  V25  1  0.87940374  0.49558057  0.36777688  1
  V  V26  1  0.24147831  0.61883078  0.87587332  1
  V  V27  1  0.37109130  0.24872042  0.62820996  1
  V  V28  1  0.61390318  0.12791006  0.00119094  1
  V  V29  1  0.50862130  0.49991735  0.50540757  1
  V  V30  1  0.49907347  0.37497305  0.37257853  1
  V  V31  1  0.62730757  0.88004067  0.75272573  1
  V  V32  1  0.87644207  0.37674118  0.50010896  1
  V  V33  1  0.24301178  0.63253569  0.37392608  1
  V  V34  1  0.00607173  0.50277142  -0.00160253  1
  V  V35  1  0.24658818  -0.00177197  0.75251347  1
  V  V36  1  0.12528806  0.24709258  0.87299574  1
  V  V37  1  0.50091441  0.12512555  0.62859424  1
  V  V38  1  0.37892305  0.75253034  0.62717220  1
  V  V39  1  0.62163217  0.24849174  0.37248050  1
  V  V40  1  0.61912500  0.87071484  0.24983922  1
  V  V41  1  0.87540229  -0.00367084  0.37834529  1
  V  V42  1  0.36897494  0.01296746  0.37358783  1
  V  V43  1  0.37863269  0.75435472  0.11987456  1
  V  V44  1  -0.00480803  0.13415945  0.12466089  1
  V  V45  1  0.61658918  0.38089147  0.74722070  1
  V  V46  1  0.00251276  0.86932526  0.38354998  1
  V  V47  1  0.24575553  0.87478060  0.62288800  1
  V  V48  1  0.75235599  0.62267152  0.37012041  1
  V  V49  1  0.63486721  0.00047084  0.62695702  1
  V  V50  1  0.00258332  0.62693402  0.12322404  1
  V  V51  1  0.25395478  0.24876444  0.00467511  1
  V  V52  1  0.62702399  0.38270599  0.24832570  1
  V  V53  1  0.12752820  0.50380629  0.12478074  1
  V  V54  1  0.62715367  0.62513990  -0.00087787  1
  V  V55  1  0.37274494  0.87474377  0.49551312  1
  V  V56  1  0.74800846  0.25032644  0.50056628  1
  V  V57  1  0.24574531  0.23413651  0.49276253  1
  V  V58  1  0.49568477  -0.01484206  -0.00895646  1
  V  V59  1  0.38004708  0.37191097  -0.00302029  1
  V  V60  1  0.61911694  0.75176119  0.86946967  1
  V  V61  1  0.00095716  0.37097432  0.87300820  1
  V  V62  1  0.37523851  0.50138093  0.37515897  1
  V  V63  1  0.11806874  0.24077093  0.37225773  1
  V  V64  1  0.25183807  0.87529517  0.12125226  1
  V  V65  1  0.75387924  0.24785127  0.00203974  1
  V  V66  1  0.61746860  0.74794382  0.37540352  1
  V  V67  1  0.87265057  -0.00268561  0.87692346  1
  V  V68  1  0.37319507  0.37504305  0.50053514  1
  V  V69  1  0.12309620  0.12350956  0.00053667  1
  V  V70  1  0.75365766  0.38080016  0.12684378  1
  V  V71  1  0.12782570  0.38424235  0.74485425  1
  V  V72  1  0.12020538  0.01284715  0.62314021  1
  V  V73  1  0.12347900  0.86697800  0.25273081  1
  V  V74  1  0.37961943  0.63213866  0.25186532  1
  V  V75  1  0.37335933  0.62784957  0.75198144  1
  V  V76  1  0.23984961  0.74403047  0.00112348  1
  V  V77  1  -0.00671556  0.86771108  0.87896126  1
  V  V78  1  0.00021379  0.01528311  0.50361707  1
  V  V79  1  0.11560676  0.86288886  0.74806147  1
  V  V80  1  0.75125600  0.62496153  0.87298479  1
  V  V81  1  0.50226741  0.49891435  -0.00499705  1
  V  V82  1  0.75480013  0.87835680  0.12160341  1
  V  V83  1  0.74932260  0.12191006  0.86938021  1
  V  V84  1  0.61771032  0.00498071  0.12445569  1
  Zn  Zn85  1  0.75578396  0.87852205  0.62434831  1
  Zn  Zn86  1  0.74630568  0.37714148  0.62301216  1
  Zn  Zn87  1  0.87704697  0.24706665  0.62085412  1
  Zn  Zn88  1  0.00779130  0.62330724  0.62999431  1
  Zn  Zn89  1  0.37651987  0.12141588  0.75409041  1
  Zn  Zn90  1  0.87282628  0.62155309  0.24700868  1
  Zn  Zn91  1  0.62630173  0.12476256  0.49892336  1
  Zn  Zn92  1  -0.00694445  0.25802184  0.25253463  1
  Zn  Zn93  1  0.11574340  0.74114958  0.87508468  1
  Zn  Zn94  1  -0.00742567  -0.00362528  0.00307269  1
  Zn  Zn95  1  0.24603432  0.75476790  0.49427721  1
  Zn  Zn96  1  0.37382397  -0.02125448  0.87748057  1
  Zn  Zn97  1  0.00032949  0.74674742  0.25622951  1
  Zn  Zn98  1  0.50017251  0.24833761  0.23243138  1
  Zn  Zn99  1  0.63064144  0.62244005  0.50569572  1
  Zn  Zn100  1  0.24741122  0.00467907  0.25355501  1
  Zn  Zn101  1  0.49590302  0.87221501  0.36860003  1
  Zn  Zn102  1  0.74708503  0.12303214  0.37382406  1
  Zn  Zn103  1  0.63211322  0.50545920  0.12798772  1
  Zn  Zn104  1  0.11974416  0.37674454  0.26093656  1
  Zn  Zn105  1  0.45758923  0.81590955  0.81443739  1
  Zn  Zn106  1  0.49418397  0.25394107  0.75610729  1
  Zn  Zn107  1  0.18970055  0.18562507  0.19222361  1
  Zn  Zn108  1  0.18974417  0.19039945  0.68838413  1
  Zn  Zn109  1  0.18766117  0.68682594  0.18738880  1
  Zn  Zn110  1  0.19244900  0.68386741  0.68483449  1
  Zn  Zn111  1  0.68618513  0.19212286  0.18484623  1
  Zn  Zn112  1  0.68784182  0.19052751  0.68750558  1
  Zn  Zn113  1  0.68934308  0.68927918  0.19020389  1
  Zn  Zn114  1  0.69201066  0.69245735  0.68879703  1
  Zn  Zn115  1  0.31027304  0.30876117  0.31294178  1
  Zn  Zn116  1  0.31093163  0.31206142  0.81355223  1
  Zn  Zn117  1  0.31291374  0.81506028  0.30836066  1
  Zn  Zn118  1  0.29556633  0.80827203  0.81201876  1
  Zn  Zn119  1  0.80958287  0.31507122  0.31439404  1
  Zn  Zn120  1  0.81065851  0.31018384  0.81188144  1
  Zn  Zn121  1  0.81211243  0.81380222  0.31168746  1
  Zn  Zn122  1  0.81014152  0.81456427  0.80633771  1
  Zn  Zn123  1  0.18826711  0.43279130  0.43723270  1
  Zn  Zn124  1  0.18799510  0.43557407  0.93577992  1
  Zn  Zn125  1  0.18384165  0.94407715  0.43762203  1
  Zn  Zn126  1  0.18111211  0.93233695  0.93908971  1
  Zn  Zn127  1  0.69073627  0.43775648  0.43425212  1
  Zn  Zn128  1  0.68871163  0.43690282  0.93360366  1
  Zn  Zn129  1  0.68691047  0.93539637  0.43727800  1
  Zn  Zn130  1  0.68635909  0.93955083  0.93594231  1
  Zn  Zn131  1  0.30945565  0.05264025  0.05803530  1
  Zn  Zn132  1  0.31373564  0.05926436  0.56645851  1
  Zn  Zn133  1  0.31493135  0.56316257  0.05999527  1
  Zn  Zn134  1  0.31468603  0.56523628  0.56071676  1
  Zn  Zn135  1  0.81098874  0.06387021  0.06013129  1
  Zn  Zn136  1  0.81567142  0.06490938  0.55703388  1
  Zn  Zn137  1  0.81708621  0.56245369  0.06015919  1
  Zn  Zn138  1  0.81677328  0.56773486  0.55770354  1
  Zn  Zn139  1  0.43981909  0.43912685  0.18406924  1
  Zn  Zn140  1  0.43570877  0.43960848  0.68726280  1
  Zn  Zn141  1  0.43736568  0.94143475  0.18649072  1
  Zn  Zn142  1  0.43779538  0.93984975  0.68625533  1
  Zn  Zn143  1  0.93974820  0.43470607  0.18576605  1
  Zn  Zn144  1  0.93828013  0.43558473  0.68370728  1
  Zn  Zn145  1  0.93799139  0.93981935  0.19205304  1
  Zn  Zn146  1  0.93785626  0.93953045  0.69031749  1
  Zn  Zn147  1  0.06225900  0.06577946  0.31357894  1
  Zn  Zn148  1  0.06031796  0.05866748  0.81300674  1
  Zn  Zn149  1  0.06102251  0.56080313  0.31323500  1
  Zn  Zn150  1  0.06133572  0.55933744  0.81053386  1
  Zn  Zn151  1  0.55657519  0.06457119  0.30988948  1
  Zn  Zn152  1  0.56268337  0.06175687  0.81367770  1
  Zn  Zn153  1  0.56315323  0.56345349  0.31518977  1
  Zn  Zn154  1  0.56093115  0.56343773  0.81153422  1
  Zn  Zn155  1  0.43913886  0.18859032  0.44115934  1
  Zn  Zn156  1  0.43913865  0.18800195  1.05748320  1
  Zn  Zn157  1  0.43746185  0.68651953  0.44237498  1
  Zn  Zn158  1  0.43286873  0.68504849  0.94336476  1
  Zn  Zn159  1  0.93416541  0.18662799  0.43341562  1
  Zn  Zn160  1  0.93775847  0.18457623  0.93385124  1
  Zn  Zn161  1  0.93750570  0.68428068  0.44071987  1
  Zn  Zn162  1  0.93554856  0.68709736  0.94021753  1
  Zn  Zn163  1  0.06779400  0.31501156  0.06634708  1
  Zn  Zn164  1  0.06777585  0.31055974  0.55777070  1
  Zn  Zn165  1  0.06184424  0.81420610  0.06099125  1
  Zn  Zn166  1  0.06103208  0.81490276  0.56081646  1
  Zn  Zn167  1  0.56926676  0.31889492  0.05866917  1
  Zn  Zn168  1  0.56181439  0.31323793  0.56527180  1
  Zn  Zn169  1  0.56766709  0.81067578  0.06377283  1
  Zn  Zn170  1  0.56353008  0.81313941  0.56400047  1
  O  O171  1  0.11914541  0.11776921  0.12190449  1
  O  O172  1  0.12633308  0.11191005  0.63287560  1
  O  O173  1  0.11968068  0.61310488  0.12679402  1
  O  O174  1  0.12737942  0.62366661  0.60978894  1
  O  O175  1  0.63388231  0.11564794  0.11370880  1
  O  O176  1  0.61803978  0.11897897  0.62470857  1
  O  O177  1  0.62006569  0.62539971  0.12148673  1
  O  O178  1  0.61122657  0.63241194  0.62802888  1
  O  O179  1  0.37937066  0.37950042  0.37955076  1
  O  O180  1  0.36838721  0.38214681  0.88698891  1
  O  O181  1  0.37762128  0.88305612  0.37799246  1
  O  O182  1  0.37376845  0.86586861  0.86837065  1
  O  O183  1  0.86979663  0.38732584  0.38425188  1
  O  O184  1  0.88025356  0.37874722  0.88265281  1
  O  O185  1  0.88801595  0.88797421  0.36570437  1
  O  O186  1  0.88447927  0.88040996  0.86690514  1
  O  O187  1  0.26485046  -0.00222951  0.37388272  1
  O  O188  1  0.24566022  0.00225478  0.86926485  1
  O  O189  1  0.25701248  0.50853038  0.37131643  1
  O  O190  1  0.25991568  0.50757013  0.88264553  1
  O  O191  1  0.75778362  -0.00113631  0.37029513  1
  O  O192  1  0.75519478  0.01144027  0.87720492  1
  O  O193  1  0.76601708  0.50915566  0.38278114  1
  O  O194  1  0.75752916  0.50615636  0.86746711  1
  O  O195  1  0.24448671  0.49765838  0.12784107  1
  O  O196  1  0.25865155  0.48603427  0.62233990  1
  O  O197  1  0.24110772  0.99060164  0.12669701  1
  O  O198  1  0.24130178  0.99402522  0.63132346  1
  O  O199  1  0.75101914  0.48680743  0.11688026  1
  O  O200  1  0.75330179  0.50330748  0.63493967  1
  O  O201  1  0.74224812  0.99320994  0.12637127  1
  O  O202  1  0.73778630  1.00086279  0.61572934  1
  O  O203  1  0.00767748  0.36911823  0.24107928  1
  O  O204  1  0.00501492  0.36661170  0.75345884  1
  O  O205  1  0.00741741  0.87479643  0.26002227  1
  O  O206  1  0.00717475  0.87900918  0.76213343  1
  O  O207  1  0.50600103  0.37270292  0.25403026  1
  O  O208  1  0.51230740  0.37624665  0.74937955  1
  O  O209  1  0.51468262  0.87995910  0.24833023  1
  O  O210  1  0.51761499  0.87450989  0.73916120  1
  O  O211  1  0.48174907  0.12732197  0.25003408  1
  O  O212  1  0.49831515  0.12557595  0.73972149  1
  O  O213  1  0.49254481  0.62037542  0.24151827  1
  O  O214  1  0.48721099  0.62053427  0.74261159  1
  O  O215  1  0.99055998  0.12752716  0.24197011  1
  O  O216  1  0.99037456  0.13449172  0.75804776  1
  O  O217  1  0.99907155  0.62706396  0.23751362  1
  O  O218  1  0.98669868  0.61937402  0.74861560  1
  O  O219  1  0.36329866  0.25668013  -0.00093632  1
  O  O220  1  0.36758376  0.25481399  0.50728325  1
  O  O221  1  0.36370366  0.74508553  0.01477429  1
  O  O222  1  0.37123064  0.75896339  0.50515801  1
  O  O223  1  0.86825594  0.25790931  -0.00680957  1
  O  O224  1  0.86774693  0.25847298  0.49595861  1
  O  O225  1  0.86228136  0.74686343  0.00998470  1
  O  O226  1  0.86957644  0.74518805  0.51346552  1
  O  O227  1  0.13833051  0.24752280  0.49206558  1
  O  O228  1  0.13523400  0.24628219  0.99392313  1
  O  O229  1  0.12542515  0.73676667  0.49969450  1
  O  O230  1  0.13564485  0.74805470  1.00135263  1
  O  O231  1  0.63011720  0.25083595  0.49290898  1
  O  O232  1  0.63332715  0.24478709  0.99084714  1
  O  O233  1  0.63360512  0.74840542  0.49290203  1
  O  O234  1  0.63676685  0.74471611  0.99372335  1
  O  O235  1  0.50768847  0.24956711  0.11926437  1
  O  O236  1  0.48838514  0.24289727  0.62558488  1
  O  O237  1  0.49387704  0.73893945  0.11862402  1
  O  O238  1  0.48644332  0.74198406  0.61699943  1
  O  O239  1  1.00594699  0.23683679  0.12416467  1
  O  O240  1  1.00031490  0.25246042  0.63455095  1
  O  O241  1  0.99223122  0.74450014  0.12249829  1
  O  O242  1  0.98800971  0.74641309  0.62055634  1
  O  O243  1  0.01366858  0.24585883  0.37567927  1
  O  O244  1  0.00690790  0.25486548  0.86851699  1
  O  O245  1  -0.00809016  0.76520685  0.37573171  1
  O  O246  1  -0.00236035  0.76116497  0.87826265  1
  O  O247  1  0.50961036  0.25736981  0.37727657  1
  O  O248  1  0.51683520  0.24627110  0.87395859  1
  O  O249  1  0.51341385  0.74975488  0.38058366  1
  O  O250  1  0.51465912  0.74227965  0.88280914  1
  O  O251  1  0.25421524  0.13629003  0.50559416  1
  O  O252  1  0.24438679  0.12981031  0.99657567  1
  O  O253  1  0.23947473  0.62459387  0.49250160  1
  O  O254  1  0.25389709  0.63156590  0.99006109  1
  O  O255  1  0.74794123  0.13522255  0.49423078  1
  O  O256  1  0.74332978  0.13253856  0.99193115  1
  O  O257  1  0.74893451  0.63445488  0.49003574  1
  O  O258  1  0.74599750  0.63118225  0.99386956  1
  O  O259  1  0.25602073  0.36691881  0.00483607  1
  O  O260  1  0.25680071  0.36732872  0.50973270  1
  O  O261  1  0.24356001  0.86609346  0.01423070  1
  O  O262  1  0.25343514  0.87601182  0.50434153  1
  O  O263  1  0.75879172  0.36858482  0.00182526  1
  O  O264  1  0.75713418  0.37000842  0.50166296  1
  O  O265  1  0.74369422  0.86737984  0.00855682  1
  O  O266  1  0.75005199  0.86211121  0.50091777  1
  O  O267  1  0.13367238  0.49887298  0.24311344  1
  O  O268  1  0.12115670  0.48375085  0.74984506  1
  O  O269  1  0.12478373  0.99410424  0.24084403  1
  O  O270  1  0.13093640  0.99196532  0.74462064  1
  O  O271  1  0.62238302  0.48722427  0.25020889  1
  O  O272  1  0.63308620  0.48850870  0.75774613  1
  O  O273  1  0.62903361  0.99707717  0.24235718  1
  O  O274  1  0.62306289  0.99088234  0.74220226  1
  O  O275  1  0.37642741  0.00895321  0.26051715  1
  O  O276  1  0.35880614  -0.00130989  0.74993502  1
  O  O277  1  0.37133411  0.51102537  0.25322822  1
  O  O278  1  0.37845949  0.50479229  0.76433354  1
  O  O279  1  0.86788153  0.00887300  0.25601348  1
  O  O280  1  0.87905118  0.00988390  0.76087413  1
  O  O281  1  0.87946862  0.49944044  0.26422341  1
  O  O282  1  0.86836023  0.50377288  0.75328879  1
  O  O283  1  0.13950417  0.35316288  0.37433168  1
  O  O284  1  0.12155338  0.36689474  0.86743664  1
  O  O285  1  0.11218928  0.88204420  0.36745447  1
  O  O286  1  0.11205026  0.87065852  0.86680907  1
  O  O287  1  0.62093445  0.37019735  0.36704727  1
  O  O288  1  0.63221977  0.36614263  0.86180059  1
  O  O289  1  0.62280496  0.86718508  0.36717418  1
  O  O290  1  0.62819132  0.86907832  0.86254666  1
  O  O291  1  0.37421826  0.12074257  0.12852421  1
  O  O292  1  0.38196002  0.13054804  0.62878966  1
  O  O293  1  0.38300582  0.63041660  0.13168406  1
  O  O294  1  0.37840177  0.63330947  0.63251042  1
  O  O295  1  0.88284935  0.11950583  0.13270188  1
  O  O296  1  0.87000123  0.12635261  0.63862320  1
  O  O297  1  0.88226340  0.63285235  0.12653243  1
  O  O298  1  0.87875263  0.63404021  0.63111462  1
  O  O299  1  0.24287201  0.26023775  0.11656988  1
  O  O300  1  0.25907230  0.25283057  0.61712459  1
  O  O301  1  0.25595373  0.75388888  0.12022215  1
  O  O302  1  0.26176648  0.75643385  0.62184265  1
  O  O303  1  0.74521740  0.26115956  0.10905998  1
  O  O304  1  0.75118654  0.25190598  0.61126503  1
  O  O305  1  0.75557291  0.75748184  0.11848511  1
  O  O306  1  0.75972085  0.74982821  0.61507080  1
  O  O307  1  0.25226868  0.24575382  0.38983146  1
  O  O308  1  0.24480401  0.24006769  0.88203628  1
  O  O309  1  0.25543748  0.73643693  0.37383695  1
  O  O310  1  0.24177462  0.73840009  0.88497894  1
  O  O311  1  0.73738339  0.25179899  0.38360296  1
  O  O312  1  0.74486246  0.24287087  0.88411107  1
  O  O313  1  0.74711422  0.74490620  0.38186885  1
  O  O314  1  0.74483053  0.74679408  0.88104224  1
  O  O315  1  0.00567609  0.12239376  0.00606769  1
  O  O316  1  -0.00343548  0.11429788  0.50037744  1
  O  O317  1  -0.00415209  0.61575880  0.01074635  1
  O  O318  1  0.01235590  0.61610227  0.50016012  1
  O  O319  1  0.51175473  0.11567858  -0.00151844  1
  O  O320  1  0.50073164  0.11575806  0.51105190  1
  O  O321  1  0.50708491  0.61959393  0.00779986  1
  O  O322  1  0.50161112  0.61627255  0.50959634  1
  O  O323  1  0.49348423  0.38135080  0.49665066  1
  O  O324  1  0.49104561  0.38538112  1.00223187  1
  O  O325  1  0.49320735  0.88582041  0.49996192  1
  O  O326  1  0.50965320  0.88679788  0.99996270  1
  O  O327  1  0.99579633  0.38515536  0.50160713  1
  O  O328  1  0.99515995  0.37870036  0.99641383  1
  O  O329  1  1.00300679  0.88280140  0.48604498  1
  O  O330  1  1.00221026  0.87749763  0.98426877  1
  O  O331  1  0.49400188  0.49490469  0.38229328  1
  O  O332  1  0.49143244  0.50835955  0.88774542  1
  O  O333  1  0.49109529  0.99851636  0.38366525  1
  O  O334  1  0.49893408  0.99950636  0.88689547  1
  O  O335  1  0.98722598  0.50422555  0.38661956  1
  O  O336  1  0.99574051  0.49259475  0.88167455  1
  O  O337  1  0.99564232  0.99605354  0.38480282  1
  O  O338  1  0.99179673  0.98923499  0.87828399  1
  O  O339  1  0.00553855  0.00726173  0.12350281  1
  O  O340  1  0.00409887  -0.00506861  0.61112164  1
  O  O341  1  0.00685034  0.50691801  0.11775784  1
  O  O342  1  -0.00365121  0.50336929  0.60793592  1
  O  O343  1  0.51284010  -0.00389191  0.11519100  1
  O  O344  1  0.50606968  0.00754430  0.61748184  1
  O  O345  1  0.50201300  0.51181763  0.11390695  1
  O  O346  1  0.49286887  0.51094382  0.61654652  1
  O  O347  1  0.25406978  0.38209249  0.24079344  1
  O  O348  1  0.24105153  0.36701021  0.73877097  1
  O  O349  1  0.24090032  0.87769912  0.24064674  1
  O  O350  1  0.23657161  0.88141102  0.74324924  1
  O  O351  1  0.74302610  0.36946955  0.23782630  1
  O  O352  1  0.74455323  0.38375171  0.74700670  1
  O  O353  1  0.74119714  0.88201334  0.24293960  1
  O  O354  1  0.73403050  0.87391282  0.74274734  1
  O  O355  1  0.26853741  0.12085744  0.24635125  1
  O  O356  1  0.24754626  0.11580240  0.75975509  1
  O  O357  1  0.25630630  0.61966642  0.25584910  1
  O  O358  1  0.26355455  0.62822118  0.75868676  1
  O  O359  1  0.75422470  0.11939112  0.24940010  1
  O  O360  1  0.75815949  0.13425694  0.76137759  1
  O  O361  1  0.75295097  0.62771289  0.26429199  1
  O  O362  1  0.75804285  0.61788085  0.75407376  1
  O  O363  1  0.37838291  0.11443575  0.37420071  1
  O  O364  1  0.35962459  0.11486800  0.87538910  1
  O  O365  1  0.37104467  0.62173028  0.36818141  1
  O  O366  1  0.36817045  0.61940892  0.86949014  1
  O  O367  1  0.87277791  0.11246405  0.36678039  1
  O  O368  1  0.86706359  0.11898709  0.86732771  1
  O  O369  1  0.87097741  0.61512203  0.37347992  1
  O  O370  1  0.87015807  0.62098678  0.86752050  1
  O  O371  1  0.13897258  0.38798813  0.12374233  1
  O  O372  1  0.13687716  0.36900347  0.63093925  1
  O  O373  1  0.12766505  0.88189471  0.13205200  1
  O  O374  1  0.12613813  0.88048420  0.63169662  1
  O  O375  1  0.63519574  0.38172547  0.13069223  1
  O  O376  1  0.62702794  0.37254578  0.64161287  1
  O  O377  1  0.63528188  0.88011205  0.13139147  1
  O  O378  1  0.62833507  0.88334669  0.63105657  1
  O  O379  1  0.12681934  0.25098992  0.26212866  1
  O  O380  1  0.11786443  0.25355948  0.75546993  1
  O  O381  1  0.12162523  0.76262353  0.24509984  1
  O  O382  1  0.12857954  0.75948889  0.74905119  1
  O  O383  1  0.62289225  0.25977121  0.25710845  1
  O  O384  1  0.62446035  0.26189242  0.75589027  1
  O  O385  1  0.63125358  0.75958543  0.26080045  1
  O  O386  1  0.62778723  0.75932705  0.75940908  1
  O  O387  1  0.37660670  0.23701316  0.24915736  1
  O  O388  1  0.37538187  0.24598840  0.74296836  1
  O  O389  1  0.37117795  0.73819474  0.23927403  1
  O  O390  1  0.37697679  0.74476341  0.74362088  1
  O  O391  1  0.87260906  0.23546446  0.25940179  1
  O  O392  1  0.88439019  0.24386657  0.74887328  1
  O  O393  1  0.87597687  0.74906808  0.23691645  1
  O  O394  1  0.86759761  0.74060140  0.73582347  1
  O  O395  1  0.38330765  0.49520403  0.49364706  1
  O  O396  1  0.38254600  0.49409810  0.99177074  1
  O  O397  1  0.38009551  0.99589541  0.49124394  1
  O  O398  1  0.39140814  0.99773147  0.99941478  1
  O  O399  1  0.88509537  0.49450358  0.49370315  1
  O  O400  1  0.88674784  0.49239762  0.99324736  1
  O  O401  1  0.88695032  1.00092120  0.49235382  1
  O  O402  1  0.87422632  1.00493882  0.98342195  1
  O  O403  1  0.12307900  0.00425133  0.01284455  1
  O  O404  1  0.11128099  0.00020418  0.50792576  1
  O  O405  1  0.11306948  0.49437735  0.00546557  1
  O  O406  1  0.11291092  0.50392044  0.49328860  1
  O  O407  1  0.61849491  0.00747812  0.00445975  1
  O  O408  1  0.61636917  0.00059732  0.50539787  1
  O  O409  1  0.61890659  0.50634483  -0.00176787  1
  O  O410  1  0.61280430  0.50011456  0.49596457  1
  O  O411  1  0.36303034  0.38447401  0.11194395  1
  O  O412  1  0.36971646  0.36622281  0.62235376  1
  O  O413  1  0.36603229  0.86630611  0.13348274  1
  O  O414  1  0.36957668  0.87034574  0.61798023  1
  O  O415  1  0.86981812  0.37837900  0.11086015  1
  O  O416  1  0.87174191  0.37204788  0.61165527  1
  O  O417  1  0.86376895  0.87091766  0.12935326  1
  O  O418  1  0.87481320  0.86086419  0.63188797  1
  O  O419  1  0.13069688  0.13886854  0.37034557  1
  O  O420  1  0.13091745  0.12727313  0.88240915  1
  O  O421  1  0.13274734  0.62012158  0.38540660  1
  O  O422  1  0.13640926  0.62270692  0.86831000  1
  O  O423  1  0.62413454  0.13445586  0.37497369  1
  O  O424  1  0.63271867  0.13092951  0.87993849  1
  O  O425  1  0.63298431  0.63159865  0.37727864  1
  O  O426  1  0.63289400  0.63269845  0.87630859  1
