# generated using pymatgen
data_V85Zn86O256
_symmetry_space_group_name_H-M   'P 1'
_cell_length_a   16.97625020
_cell_length_b   16.97499780
_cell_length_c   16.95804602
_cell_angle_alpha   89.99194972
_cell_angle_beta   89.96785720
_cell_angle_gamma   89.96237955
_symmetry_Int_Tables_number   1
_chemical_formula_structural   V85Zn86O256
_chemical_formula_sum   'V85 Zn86 O256'
_cell_volume   4886.82894186
_cell_formula_units_Z   1
loop_
 _symmetry_equiv_pos_site_id
 _symmetry_equiv_pos_as_xyz
  1  'x, y, z'
loop_
 _atom_site_type_symbol
 _atom_site_label
 _atom_site_symmetry_multiplicity
 _atom_site_fract_x
 _atom_site_fract_y
 _atom_site_fract_z
 _atom_site_occupancy
  V  V0  1  0.01062681  0.25463272  0.74890686  1
  V  V1  1  0.37344113  0.49962769  0.37680469  1
  V  V2  1  0.49947043  0.62385339  0.12403967  1
  V  V3  1  0.14736119  0.62263041  0.00104766  1
  V  V4  1  0.37147468  0.74636175  0.11127191  1
  V  V5  1  0.62384331  0.37550559  0.24964286  1
  V  V6  1  0.12981626  0.24440349  0.88822023  1
  V  V7  1  0.74838222  0.62252128  0.87260179  1
  V  V8  1  0.24658492  0.24045012  0.50291976  1
  V  V9  1  0.24700726  0.75302932  0.51372306  1
  V  V10  1  0.12287163  0.24402416  0.37923082  1
  V  V11  1  0.00206092  0.49890801  0.49921804  1
  V  V12  1  0.12591253  0.00038270  0.12216934  1
  V  V13  1  0.37070200  0.87689859  0.50175430  1
  V  V14  1  0.62594833  0.11184698  -0.00618007  1
  V  V15  1  0.12468331  0.49880595  0.63765597  1
  V  V16  1  0.87527010  0.62479256  0.24735811  1
  V  V17  1  0.50840947  0.10843859  0.12726932  1
  V  V18  1  0.74818199  0.25962224  0.50420189  1
  V  V19  1  0.87696146  0.75124073  0.12432695  1
  V  V20  1  0.24494438  0.37495224  0.62999268  1
  V  V21  1  0.87696261  0.75386554  0.62274027  1
  V  V22  1  0.74778948  0.62532123  0.37426985  1
  V  V23  1  0.62475592  0.62315467  0.50750499  1
  V  V24  1  0.48526701  0.49808211  -0.00511835  1
  V  V25  1  0.36464262  0.62190413  0.75859100  1
  V  V26  1  0.12524153  0.62293698  0.49929256  1
  V  V27  1  0.50523575  0.24863775  0.75645321  1
  V  V28  1  0.37435962  0.24917978  0.62961887  1
  V  V29  1  0.74656072  0.49785328  0.73335454  1
  V  V30  1  0.74219025  0.24616105  -0.01601484  1
  V  V31  1  0.50116605  0.75165306  0.25117452  1
  V  V32  1  0.62529135  0.49838636  0.11841400  1
  V  V33  1  0.37418504  0.89365960  -0.00112371  1
  V  V34  1  0.38029610  0.24639559  0.11641886  1
  V  V35  1  0.74912972  0.74928154  -0.00047744  1
  V  V36  1  0.17813962  -0.06013260  0.67556394  1
  V  V37  1  0.87437840  0.88735836  0.49512545  1
  V  V38  1  0.12621349  0.75137750  0.37431538  1
  V  V39  1  0.75575451  0.00702834  0.75141032  1
  V  V40  1  0.49892712  0.88865881  0.88022922  1
  V  V41  1  0.01032414  0.12896710  0.62277242  1
  V  V42  1  0.87294440  0.01200619  0.87554776  1
  V  V43  1  0.74860958  0.49874929  0.24808012  1
  V  V44  1  0.12869280  0.37019891  0.25050004  1
  V  V45  1  0.62762592  0.87644947  0.74977405  1
  V  V46  1  0.74194758  0.00233163  0.24902926  1
  V  V47  1  0.00415128  0.76456471  0.75800647  1
  V  V48  1  0.49899070  0.74693443  0.75118810  1
  V  V49  1  0.87539680  0.37165074  -0.00117589  1
  V  V50  1  0.49806133  0.37467843  0.37571193  1
  V  V51  1  0.49425158  0.24617340  0.24933642  1
  V  V52  1  0.62631969  0.37932651  0.74413693  1
  V  V53  1  0.75365140  0.12018946  0.37914073  1
  V  V54  1  0.62885401  0.00033182  0.62538918  1
  V  V55  1  0.00231710  0.62541774  0.63050634  1
  V  V56  1  0.37793407  0.74978728  0.62675917  1
  V  V57  1  0.74293357  0.87980908  0.12620580  1
  V  V58  1  0.49682824  0.12434645  0.62913299  1
  V  V59  1  0.00139407  0.12305921  0.12096412  1
  V  V60  1  0.62435505  0.24985830  0.37565244  1
  V  V61  1  0.26118009  0.37646725  0.11908087  1
  V  V62  1  0.12954473  0.87374921  0.24658707  1
  V  V63  1  -0.00021530  0.24883251  0.25073292  1
  V  V64  1  0.62471355  0.12596051  0.50243903  1
  V  V65  1  0.00022267  -0.00055487  -0.00843890  1
  V  V66  1  0.87572646  0.49746113  0.37324136  1
  V  V67  1  0.87627564  0.11493023  0.25458169  1
  V  V68  1  0.00013449  0.75146739  0.24919532  1
  V  V69  1  0.62703394  0.75017212  0.87383234  1
  V  V70  1  -0.00224322  0.88636336  0.37294014  1
  V  V71  1  0.50239110  0.49931709  0.50695134  1
  V  V72  1  0.87032764  0.25512603  0.62643917  1
  V  V73  1  0.25493891  0.12457323  0.36189413  1
  V  V74  1  0.86975440  0.24738555  0.12628891  1
  V  V75  1  0.49811998  -0.00126677  0.50133915  1
  V  V76  1  0.75094252  0.75267374  0.49752304  1
  V  V77  1  0.36465349  0.11423299  0.76687394  1
  V  V78  1  0.37388821  0.62764454  0.25004844  1
  V  V79  1  0.87372593  0.87749905  -0.00789697  1
  V  V80  1  0.49419356  0.37129831  0.87983411  1
  V  V81  1  -0.00133727  0.50378018  0.00171057  1
  V  V82  1  0.87164416  0.49684725  0.87172685  1
  V  V83  1  0.01185178  0.00595858  0.50433651  1
  V  V84  1  0.24968653  0.62655745  0.37665622  1
  Zn  Zn85  1  0.13646363  0.75335499  0.88792791  1
  Zn  Zn86  1  0.62479833  0.62227370  -0.00163516  1
  Zn  Zn87  1  0.87381061  0.13079600  0.75118704  1
  Zn  Zn88  1  0.24873766  0.49339668  0.76218212  1
  Zn  Zn89  1  0.50292522  0.61742874  0.63136945  1
  Zn  Zn90  1  0.87382298  0.62640197  0.74865225  1
  Zn  Zn91  1  0.86964476  0.37913341  0.50290151  1
  Zn  Zn92  1  0.12495923  0.49219472  0.12530139  1
  Zn  Zn93  1  0.50104203  0.87591382  0.37467182  1
  Zn  Zn94  1  0.00267438  0.37815554  0.86566084  1
  Zn  Zn95  1  0.37775053  0.00405876  0.36958567  1
  Zn  Zn96  1  0.62085935  0.88018078  0.24972705  1
  Zn  Zn97  1  0.25640051  -0.00033870  0.24460170  1
  Zn  Zn98  1  0.00077565  0.37335863  0.37529928  1
  Zn  Zn99  1  0.37342955  0.37358089  0.50165318  1
  Zn  Zn100  1  0.62230693  0.75280223  0.37516317  1
  Zn  Zn101  1  0.75291042  0.87787671  0.62443875  1
  Zn  Zn102  1  0.74827126  0.37226470  0.12288003  1
  Zn  Zn103  1  0.00706512  0.62433139  0.12424700  1
  Zn  Zn104  1  0.24751344  0.49923208  0.25134533  1
  Zn  Zn105  1  0.24752858  0.87021279  0.11708733  1
  Zn  Zn106  1  0.26203836  0.23879150  -0.01013105  1
  Zn  Zn107  1  0.20284010  0.17594859  0.15632427  1
  Zn  Zn108  1  0.18816954  0.18500134  0.68977063  1
  Zn  Zn109  1  0.18925882  0.68310963  0.18053404  1
  Zn  Zn110  1  0.22051523  0.74758104  0.73588165  1
  Zn  Zn111  1  0.68457408  0.18640366  0.18671757  1
  Zn  Zn112  1  0.68657427  0.18978701  0.68946097  1
  Zn  Zn113  1  0.68638690  0.68728881  0.18531441  1
  Zn  Zn114  1  0.68923132  0.68769823  0.68591014  1
  Zn  Zn115  1  0.31134328  0.30998597  0.31072067  1
  Zn  Zn116  1  0.31235993  0.31283855  0.81423854  1
  Zn  Zn117  1  0.31567315  0.81396597  0.31622201  1
  Zn  Zn118  1  0.28271663  0.87806721  0.83209398  1
  Zn  Zn119  1  0.81119352  0.31065558  0.31325629  1
  Zn  Zn120  1  0.81208565  0.31438114  0.80858029  1
  Zn  Zn121  1  0.81251702  0.81622130  0.31271637  1
  Zn  Zn122  1  0.81699606  0.81619858  0.80835504  1
  Zn  Zn123  1  0.18905396  0.43146859  0.44114835  1
  Zn  Zn124  1  0.18008268  0.42495879  0.93759932  1
  Zn  Zn125  1  0.18852554  0.93803961  0.43993587  1
  Zn  Zn126  1  0.17186845  0.92672815  0.93851188  1
  Zn  Zn127  1  0.68390467  0.44034070  0.43697037  1
  Zn  Zn128  1  0.68386825  0.42982050  0.93087714  1
  Zn  Zn129  1  0.68463600  0.93786064  0.43374002  1
  Zn  Zn130  1  0.69058898  0.93788231  0.93354034  1
  Zn  Zn131  1  0.31598953  0.06466032  0.06752374  1
  Zn  Zn132  1  0.31026902  0.06433711  0.56565510  1
  Zn  Zn133  1  0.31203216  0.55360783  -0.06989686  1
  Zn  Zn134  1  0.31235403  0.56406027  0.56696182  1
  Zn  Zn135  1  0.80802168  0.06448824  0.06295426  1
  Zn  Zn136  1  0.81733280  0.06740547  0.56593372  1
  Zn  Zn137  1  0.81239288  0.56257841  0.06106416  1
  Zn  Zn138  1  0.81618668  0.56697825  0.55921415  1
  Zn  Zn139  1  0.43635575  0.43865050  0.18783383  1
  Zn  Zn140  1  0.43436698  0.43509295  0.69142410  1
  Zn  Zn141  1  0.43343955  0.93472562  0.18829794  1
  Zn  Zn142  1  0.43588272  0.93481911  0.68884639  1
  Zn  Zn143  1  0.93874622  0.43345668  0.18639951  1
  Zn  Zn144  1  0.93381741  0.43521555  0.68503489  1
  Zn  Zn145  1  0.93511348  0.93658756  0.18370104  1
  Zn  Zn146  1  0.99718190  0.97398107  0.72733731  1
  Zn  Zn147  1  0.06776440  0.06314484  0.31068235  1
  Zn  Zn148  1  0.18150887  0.05769765  0.81956760  1
  Zn  Zn149  1  0.06251955  0.56172581  0.30967080  1
  Zn  Zn150  1  0.06379169  0.57108740  0.81898751  1
  Zn  Zn151  1  0.56130304  0.06466817  0.31471597  1
  Zn  Zn152  1  0.56817049  0.06662249  0.81239841  1
  Zn  Zn153  1  0.56168111  0.56443669  0.31505502  1
  Zn  Zn154  1  0.56250405  0.55865154  0.81254635  1
  Zn  Zn155  1  0.43399068  0.18720671  0.44000984  1
  Zn  Zn156  1  0.44692159  0.18258125  0.94039526  1
  Zn  Zn157  1  0.43776826  0.68705511  0.43865643  1
  Zn  Zn158  1  0.44261679  0.68814627  0.93373521  1
  Zn  Zn159  1  0.93516466  0.18745174  0.44044255  1
  Zn  Zn160  1  0.94245383  0.18751367  0.93656692  1
  Zn  Zn161  1  0.93825627  0.68802100  0.43496564  1
  Zn  Zn162  1  0.93409211  0.68528202  0.93648287  1
  Zn  Zn163  1  0.06131708  0.31322355  0.06236996  1
  Zn  Zn164  1  0.06271321  0.31501476  0.56198900  1
  Zn  Zn165  1  0.06584239  0.81641742  0.04551611  1
  Zn  Zn166  1  0.05690419  0.81117810  0.56100943  1
  Zn  Zn167  1  0.56247288  0.31271512  0.06081395  1
  Zn  Zn168  1  0.55992530  0.31331022  0.56517282  1
  Zn  Zn169  1  0.56136858  0.81312860  0.06146821  1
  Zn  Zn170  1  0.56327314  0.81352595  0.56358502  1
  O  O171  1  0.10713697  0.11450033  0.13977874  1
  O  O172  1  0.10931582  0.13620524  0.62104356  1
  O  O173  1  0.12572520  0.61004723  0.11880696  1
  O  O174  1  0.11216684  0.61490736  0.61395126  1
  O  O175  1  0.61497072  0.12987006  0.11672230  1
  O  O176  1  0.61731124  0.12001161  0.62109100  1
  O  O177  1  0.61836453  0.61463440  0.12309878  1
  O  O178  1  0.62335770  0.62831622  0.61170654  1
  O  O179  1  0.37967210  0.38279198  0.37688630  1
  O  O180  1  0.39475093  0.37676720  0.86513558  1
  O  O181  1  0.37933037  0.87600415  0.39131222  1
  O  O182  1  0.39031485  0.87553791  0.88871181  1
  O  O183  1  0.87516449  0.38766397  0.37518491  1
  O  O184  1  0.87652806  0.38121945  0.88154968  1
  O  O185  1  0.88647057  0.87021626  0.38302053  1
  O  O186  1  0.87006857  0.88137365  0.88842660  1
  O  O187  1  0.24544019  0.01780110  0.37681315  1
  O  O188  1  0.24095904  -0.02182959  0.87128911  1
  O  O189  1  0.25803614  0.50551367  0.37750349  1
  O  O190  1  0.24792972  0.48486643  0.87371415  1
  O  O191  1  0.74860864  0.01413407  0.37059664  1
  O  O192  1  0.76076317  -0.00422062  0.86340480  1
  O  O193  1  0.75652685  0.50517413  0.36920387  1
  O  O194  1  0.75680501  0.50490242  0.87084942  1
  O  O195  1  0.24979677  0.47852075  0.13206038  1
  O  O196  1  0.24030176  0.49260947  0.62474117  1
  O  O197  1  0.23903783  0.99235471  0.12674089  1
  O  O198  1  0.23553877  1.00566215  0.62484983  1
  O  O199  1  0.74234877  0.49811975  0.13022584  1
  O  O200  1  0.75738486  0.50423229  0.63456140  1
  O  O201  1  0.75563903  0.99160689  0.13616164  1
  O  O202  1  0.74678095  0.99886590  0.62906015  1
  O  O203  1  0.00590211  0.36561303  0.25259976  1
  O  O204  1  -0.00662415  0.35914903  0.74730014  1
  O  O205  1  0.00629076  0.87183943  0.25556076  1
  O  O206  1  -0.00950189  0.86264869  0.75013866  1
  O  O207  1  0.50630288  0.37052243  0.25706648  1
  O  O208  1  0.50583586  0.37034666  0.75740867  1
  O  O209  1  0.50245401  0.86463139  0.25065087  1
  O  O210  1  0.50380571  0.86768556  0.76051698  1
  O  O211  1  0.51212290  0.13475110  0.23791317  1
  O  O212  1  0.49718481  0.13291737  0.74696577  1
  O  O213  1  0.49312696  0.62926906  0.24507076  1
  O  O214  1  0.49651361  0.63115601  0.75011329  1
  O  O215  1  0.99084730  0.12902243  0.24715565  1
  O  O216  1  0.99380997  0.14114612  0.73197446  1
  O  O217  1  0.99342239  0.63260388  0.24693418  1
  O  O218  1  0.99444801  0.62428669  0.73849108  1
  O  O219  1  0.38101249  0.24870360  0.01206315  1
  O  O220  1  0.36782463  0.25064888  0.51175028  1
  O  O221  1  0.38166746  0.74778915  0.01048798  1
  O  O222  1  0.36874308  0.75518570  0.50668062  1
  O  O223  1  0.86756313  0.25346590  0.00547446  1
  O  O224  1  0.86378605  0.25486827  0.50408577  1
  O  O225  1  0.86981731  0.75771520  0.00584334  1
  O  O226  1  0.86820868  0.75463390  0.50180237  1
  O  O227  1  0.13339101  0.25593764  0.49058386  1
  O  O228  1  0.11564606  0.24308016  0.98965899  1
  O  O229  1  0.13156002  0.74482390  0.49706520  1
  O  O230  1  0.12939280  0.72166592  1.01994191  1
  O  O231  1  0.62923377  0.24480778  0.49778262  1
  O  O232  1  0.64076800  0.25092561  1.00273548  1
  O  O233  1  0.63449046  0.74466061  0.49921695  1
  O  O234  1  0.63173505  0.74686488  0.99228061  1
  O  O235  1  0.49513895  0.25440978  0.13403751  1
  O  O236  1  0.49102452  0.24543103  0.63331955  1
  O  O237  1  0.49395705  0.74384814  0.13025729  1
  O  O238  1  0.49759463  0.74924147  0.63710304  1
  O  O239  1  0.98879042  0.24232682  0.12789074  1
  O  O240  1  0.99342944  0.24787603  0.62701351  1
  O  O241  1  0.98686998  0.75076844  0.12723383  1
  O  O242  1  0.99333451  0.74239877  0.62943718  1
  O  O243  1  0.00689524  0.25004864  0.37204829  1
  O  O244  1  0.00128568  0.24893393  0.85948872  1
  O  O245  1  0.00711775  0.75872144  0.36993173  1
  O  O246  1  -0.00871943  0.74133076  0.85746327  1
  O  O247  1  0.50509212  0.25274386  0.37082135  1
  O  O248  1  0.49962351  0.26180090  0.87072699  1
  O  O249  1  0.50007953  0.74949131  0.36514021  1
  O  O250  1  0.50826213  0.75503343  0.86467983  1
  O  O251  1  0.25201111  0.13765447  0.49365729  1
  O  O252  1  0.24484400  0.14659995  1.05070438  1
  O  O253  1  0.24474145  0.63307084  0.49653788  1
  O  O254  1  0.24563053  0.61492100  1.00296797  1
  O  O255  1  0.74591122  0.13166301  0.49377538  1
  O  O256  1  0.73926513  0.13840212  1.00669601  1
  O  O257  1  0.74432155  0.63223847  0.49454843  1
  O  O258  1  0.74900014  0.63124564  0.99066320  1
  O  O259  1  0.24341227  0.36023064  0.01907420  1
  O  O260  1  0.25382754  0.36378522  0.51090201  1
  O  O261  1  0.27275596  0.87533639  0.00112748  1
  O  O262  1  0.25798798  0.86526064  0.49704090  1
  O  O263  1  0.75826662  0.36344495  -0.00096637  1
  O  O264  1  0.74632136  0.36274041  0.49361039  1
  O  O265  1  0.75558216  0.86990312  0.00758813  1
  O  O266  1  0.75746366  0.86897508  0.49742011  1
  O  O267  1  0.12337253  0.48328824  0.25209162  1
  O  O268  1  0.12541491  0.50892712  0.74003199  1
  O  O269  1  0.12587795  0.98961633  0.24080663  1
  O  O270  1  0.11501750  0.99005864  0.74515199  1
  O  O271  1  0.62697965  0.49580996  0.24083246  1
  O  O272  1  0.63208574  0.49025655  0.74910564  1
  O  O273  1  0.63844239  1.00229525  0.25450594  1
  O  O274  1  0.63565021  0.99683947  0.74538043  1
  O  O275  1  0.36768075  -0.01088571  0.25786933  1
  O  O276  1  0.38132059  0.01688266  0.74705787  1
  O  O277  1  0.37669850  0.50717540  0.26312247  1
  O  O278  1  0.37171788  0.51880619  0.74027594  1
  O  O279  1  0.86734237  0.01136953  0.24858098  1
  O  O280  1  0.87752155  0.00372294  0.76068480  1
  O  O281  1  0.87054794  0.50355356  0.25505402  1
  O  O282  1  0.86595738  0.49889061  0.75688246  1
  O  O283  1  0.12567343  0.36296599  0.36948226  1
  O  O284  1  0.11336439  0.35423585  0.87783941  1
  O  O285  1  0.11781170  0.87010003  0.36768707  1
  O  O286  1  0.09625018  0.84813010  0.93734296  1
  O  O287  1  0.61752595  0.37000545  0.36978248  1
  O  O288  1  0.60897116  0.37928725  0.86061098  1
  O  O289  1  0.62053332  0.87092132  0.36949952  1
  O  O290  1  0.61796001  0.87003589  0.87020845  1
  O  O291  1  0.39962483  0.13399191  0.12552303  1
  O  O292  1  0.37841695  0.13506813  0.63239336  1
  O  O293  1  0.38383552  0.63751897  0.13347370  1
  O  O294  1  0.38140727  0.63718060  0.62721539  1
  O  O295  1  0.88052934  0.13023767  0.13384334  1
  O  O296  1  0.88259643  0.14188697  0.62327078  1
  O  O297  1  0.87270934  0.63441026  0.13141072  1
  O  O298  1  0.88535882  0.63634011  0.62078269  1
  O  O299  1  0.27296236  0.26550159  0.14924062  1
  O  O300  1  0.25443611  0.25339226  0.62048771  1
  O  O301  1  0.26904970  0.75261126  0.13146354  1
  O  O302  1  0.25987558  0.74560721  0.61724373  1
  O  O303  1  0.76166269  0.24994363  0.12368792  1
  O  O304  1  0.75554222  0.24528248  0.61487346  1
  O  O305  1  0.75891856  0.75423452  0.12080732  1
  O  O306  1  0.75780240  0.75032143  0.61272964  1
  O  O307  1  0.24525038  0.24109103  0.38094274  1
  O  O308  1  0.23695911  0.25563946  0.87874026  1
  O  O309  1  0.24448229  0.74502756  0.38510185  1
  O  O310  1  0.24085347  0.77287113  0.84597178  1
  O  O311  1  0.74353733  0.24121468  0.38156602  1
  O  O312  1  0.75313329  0.24897932  0.88600308  1
  O  O313  1  0.75119118  0.74478871  0.38435271  1
  O  O314  1  0.74741791  0.74245265  0.87642261  1
  O  O315  1  -0.00959235  0.11421083  0.01219985  1
  O  O316  1  -0.00624121  0.11819249  0.50956564  1
  O  O317  1  -0.01158994  0.61011444  0.00448138  1
  O  O318  1  0.00253872  0.61568149  0.50466101  1
  O  O319  1  0.51660288  0.12745423  0.01354249  1
  O  O320  1  0.50288371  0.11908093  0.50853322  1
  O  O321  1  0.50366693  0.61176645  0.00274132  1
  O  O322  1  0.50887836  0.61774139  0.50069422  1
  O  O323  1  0.49823148  0.38131898  0.49281430  1
  O  O324  1  0.50485102  0.38470951  0.98910343  1
  O  O325  1  0.49406330  0.88417279  0.50058193  1
  O  O326  1  0.49607068  0.87181007  0.98692028  1
  O  O327  1  0.99796154  0.38937856  0.49672704  1
  O  O328  1  0.98680144  0.38286606  1.00013815  1
  O  O329  1  0.99221484  0.88232020  0.49152330  1
  O  O330  1  0.97592280  0.89169814  1.02450339  1
  O  O331  1  0.49267243  0.49567145  0.38352516  1
  O  O332  1  0.50347173  0.49375695  0.88929865  1
  O  O333  1  0.49841448  1.00393635  0.39040983  1
  O  O334  1  0.50835061  0.98591188  0.87047892  1
  O  O335  1  0.99161238  0.50091830  0.38161455  1
  O  O336  1  0.98632001  0.50016458  0.87911645  1
  O  O337  1  1.00371987  0.99101453  0.37929719  1
  O  O338  1  0.98939075  0.99728639  0.89031567  1
  O  O339  1  0.00174061  0.00828383  0.12260979  1
  O  O340  1  -0.00555895  0.02130683  0.62036426  1
  O  O341  1  -0.00008020  0.49931462  0.11561946  1
  O  O342  1  0.00384381  0.50498871  0.61870702  1
  O  O343  1  0.50512669  0.01053348  0.13313355  1
  O  O344  1  0.50522279  0.00364852  0.61734349  1
  O  O345  1  0.50611669  0.50165457  0.11416476  1
  O  O346  1  0.49167692  0.49814138  0.61012183  1
  O  O347  1  0.24142245  0.37709133  0.24909507  1
  O  O348  1  0.25571115  0.37421566  0.73368264  1
  O  O349  1  0.23576552  0.87053155  0.25228915  1
  O  O350  1  0.24068913  0.87179675  0.72178349  1
  O  O351  1  0.74201292  0.38153736  0.24961115  1
  O  O352  1  0.73492876  0.38242575  0.75548709  1
  O  O353  1  0.74984225  0.88553000  0.24505278  1
  O  O354  1  0.74645883  0.88543099  0.74593546  1
  O  O355  1  0.24642108  0.12584849  0.26017152  1
  O  O356  1  0.25977444  0.12497362  0.75497558  1
  O  O357  1  0.25664026  0.62237601  0.25748062  1
  O  O358  1  0.26559074  0.62987501  0.74415149  1
  O  O359  1  0.75551120  0.12065724  0.25666040  1
  O  O360  1  0.75291010  0.11167903  0.74389772  1
  O  O361  1  0.75474495  0.61911919  0.25466374  1
  O  O362  1  0.75050225  0.61620386  0.75520068  1
  O  O363  1  0.35875773  0.12590188  0.37779209  1
  O  O364  1  0.38039468  0.12632873  0.86500049  1
  O  O365  1  0.36961010  0.61895401  0.37117506  1
  O  O366  1  0.37650475  0.62561417  0.86348451  1
  O  O367  1  0.86506831  0.13299782  0.36556350  1
  O  O368  1  0.87594178  0.11515573  0.87525930  1
  O  O369  1  0.86958014  0.61515068  0.36893003  1
  O  O370  1  0.86186994  0.61634996  0.87241653  1
  O  O371  1  0.13364898  0.36967013  0.13479908  1
  O  O372  1  0.13198602  0.38763041  0.61934602  1
  O  O373  1  0.12481729  0.88002702  0.13157833  1
  O  O374  1  0.11893906  0.88636738  0.61446993  1
  O  O375  1  0.62654955  0.38287734  0.13122349  1
  O  O376  1  0.61594972  0.37346533  0.64404710  1
  O  O377  1  0.63930086  0.86712482  0.12797084  1
  O  O378  1  0.62775318  0.88278655  0.63188286  1
  O  O379  1  0.11770359  0.25838238  0.25740430  1
  O  O380  1  0.11149363  0.25351761  0.74646085  1
  O  O381  1  0.11842645  0.75496734  0.25058398  1
  O  O382  1  0.10392825  0.74720064  0.74773513  1
  O  O383  1  0.61898846  0.25745411  0.25594923  1
  O  O384  1  0.61216963  0.25737973  0.74788464  1
  O  O385  1  0.61110062  0.74585943  0.24963144  1
  O  O386  1  0.62098978  0.75622472  0.75330294  1
  O  O387  1  0.39198299  0.25293166  0.25004540  1
  O  O388  1  0.38405200  0.24111844  0.74642091  1
  O  O389  1  0.38522312  0.74726181  0.24556263  1
  O  O390  1  0.38616454  0.73819571  0.74149649  1
  O  O391  1  0.87895708  0.24332840  0.24308382  1
  O  O392  1  0.87804337  0.24966576  0.74163240  1
  O  O393  1  0.87931720  0.74656059  0.24335032  1
  O  O394  1  0.87933636  0.74766705  0.73752243  1
  O  O395  1  0.38079889  0.50106289  0.49010102  1
  O  O396  1  0.38819353  0.50070783  1.00306471  1
  O  O397  1  0.38106216  0.99304213  0.50310036  1
  O  O398  1  0.38120353  0.99190896  1.00761366  1
  O  O399  1  0.88157816  0.50028694  0.49071283  1
  O  O400  1  0.87490439  0.48957439  0.99280254  1
  O  O401  1  0.88068199  0.98934726  0.50386007  1
  O  O402  1  0.87269198  0.99588028  0.99406256  1
  O  O403  1  0.11235544  -0.00030431  0.01541627  1
  O  O404  1  0.11022718  -0.00037275  0.49572698  1
  O  O405  1  0.11322419  0.50509529  0.00077611  1
  O  O406  1  0.11722558  0.50466218  0.50193736  1
  O  O407  1  0.63736577  0.01304593  0.00147202  1
  O  O408  1  0.61846652  0.00581376  0.50591967  1
  O  O409  1  0.62605882  0.49744403  0.01063683  1
  O  O410  1  0.61515698  0.50974254  0.49549644  1
  O  O411  1  0.36790220  0.36971697  0.12770889  1
  O  O412  1  0.37045994  0.36222701  0.62501980  1
  O  O413  1  0.38306086  0.86285891  0.11000611  1
  O  O414  1  0.38337735  0.86084573  0.61489518  1
  O  O415  1  0.87178240  0.36509301  0.11709970  1
  O  O416  1  0.87524953  0.36188949  0.61950248  1
  O  O417  1  0.86128110  0.86623724  0.12371126  1
  O  O418  1  0.87429014  0.85991284  0.60957288  1
  O  O419  1  0.13446233  0.13766692  0.37096237  1
  O  O420  1  0.12203180  0.14590648  0.86284824  1
  O  O421  1  0.12888945  0.63127936  0.37934215  1
  O  O422  1  0.12157259  0.63087712  0.89655206  1
  O  O423  1  0.63168113  0.13192499  0.38328358  1
  O  O424  1  0.62050624  0.12612562  0.89394140  1
  O  O425  1  0.63296531  0.62753075  0.38449450  1
  O  O426  1  0.63611753  0.62792475  0.87435131  1
