# generated using pymatgen
data_V85Zn86O256
_symmetry_space_group_name_H-M   'P 1'
_cell_length_a   16.97174047
_cell_length_b   16.96236795
_cell_length_c   16.98062449
_cell_angle_alpha   90.03582728
_cell_angle_beta   89.95324925
_cell_angle_gamma   89.97538379
_symmetry_Int_Tables_number   1
_chemical_formula_structural   V85Zn86O256
_chemical_formula_sum   'V85 Zn86 O256'
_cell_volume   4888.39453582
_cell_formula_units_Z   1
loop_
 _symmetry_equiv_pos_site_id
 _symmetry_equiv_pos_as_xyz
  1  'x, y, z'
loop_
 _atom_site_type_symbol
 _atom_site_label
 _atom_site_symmetry_multiplicity
 _atom_site_fract_x
 _atom_site_fract_y
 _atom_site_fract_z
 _atom_site_occupancy
  V  V0  1  0.62396665  0.24767103  0.37663263  1
  V  V1  1  0.37298067  0.00603035  0.38104864  1
  V  V2  1  0.87927970  0.24491468  0.11900747  1
  V  V3  1  0.75873365  0.60588904  0.86495690  1
  V  V4  1  0.37577756  0.51223357  0.87466044  1
  V  V5  1  0.38158242  0.74506342  0.13153869  1
  V  V6  1  0.12683728  0.00209139  0.62427821  1
  V  V7  1  0.36978586  0.37112757  0.51896838  1
  V  V8  1  0.00110842  -0.00234270  0.50482681  1
  V  V9  1  0.14611510  0.76689292  0.35206588  1
  V  V10  1  0.49992682  0.50080543  0.00459722  1
  V  V11  1  0.74550896  -0.00100373  0.75003153  1
  V  V12  1  0.49531241  0.73792349  0.75512857  1
  V  V13  1  0.12074811  0.63054521  0.49848387  1
  V  V14  1  0.12014052  0.12340330  -0.00002404  1
  V  V15  1  0.87172009  0.25267707  0.62608723  1
  V  V16  1  0.75189493  0.12660221  0.88265474  1
  V  V17  1  0.12275436  0.25671218  0.37806246  1
  V  V18  1  0.49983296  -0.00160652  0.51389333  1
  V  V19  1  0.62997910  0.87209178  0.74927423  1
  V  V20  1  0.87400376  0.12449638  0.74960197  1
  V  V21  1  0.25817508  0.50374011  0.74339067  1
  V  V22  1  0.37758066  -0.00166468  0.86898255  1
  V  V23  1  0.62337732  0.49713946  0.62813862  1
  V  V24  1  0.74748007  0.25519957  0.50510221  1
  V  V25  1  0.74977240  0.49688653  0.25095285  1
  V  V26  1  0.24464721  0.12395833  0.38059096  1
  V  V27  1  0.00293535  0.50144476  0.49861308  1
  V  V28  1  0.74857654  0.36737956  0.12076663  1
  V  V29  1  0.37292563  0.74418390  0.63370617  1
  V  V30  1  0.37362690  0.37722846  0.00100521  1
  V  V31  1  0.68372605  -0.05977054  0.58168899  1
  V  V32  1  0.11497260  0.87643347  0.75325616  1
  V  V33  1  0.25187826  0.12564440  0.87097378  1
  V  V34  1  0.62691114  0.62574145  0.50209419  1
  V  V35  1  0.62346604  0.37162926  0.25073634  1
  V  V36  1  0.12854724  0.49940488  0.62311401  1
  V  V37  1  0.24785524  0.24850373  0.51293952  1
  V  V38  1  0.87732200  0.86719497  -0.00121579  1
  V  V39  1  0.49465863  0.49775001  0.49753910  1
  V  V40  1  0.61973708  0.37191047  0.74563427  1
  V  V41  1  0.85649331  0.74427229  0.61802705  1
  V  V42  1  0.62811549  0.62361932  0.00298501  1
  V  V43  1  0.75096481  0.63027005  0.37641816  1
  V  V44  1  -0.00169580  0.86639872  0.38044300  1
  V  V45  1  0.24595513  0.37994436  0.12644772  1
  V  V46  1  0.37895699  0.14083954  0.74751453  1
  V  V47  1  0.00161537  0.12750049  0.62144101  1
  V  V48  1  0.62658746  0.24902255  0.87241044  1
  V  V49  1  0.37579281  0.87063162  0.00446093  1
  V  V50  1  -0.00020025  -0.00018606  -0.00233128  1
  V  V51  1  0.50279421  0.14253496  0.62985623  1
  V  V52  1  0.24989653  0.25304445  -0.00083032  1
  V  V53  1  -0.00664703  0.75112044  0.24300566  1
  V  V54  1  0.62655573  0.12732167  0.00129983  1
  V  V55  1  0.87265822  0.62580935  0.23930516  1
  V  V56  1  0.79706146  0.43264970  0.68178945  1
  V  V57  1  0.25657527  0.50276342  0.25274053  1
  V  V58  1  0.49022392  0.24437495  0.25283086  1
  V  V59  1  -0.00132823  0.26123465  0.25265818  1
  V  V60  1  -0.00543590  0.50037485  -0.00187759  1
  V  V61  1  0.22684696  0.77094473  0.01647265  1
  V  V62  1  0.12443255  0.25313308  0.87200498  1
  V  V63  1  0.49775081  0.87325957  0.37414184  1
  V  V64  1  0.24970794  0.75068262  0.50607063  1
  V  V65  1  0.87855222  -0.00953304  0.87195843  1
  V  V66  1  -0.00658990  0.73141496  0.73660222  1
  V  V67  1  0.63440140  0.74683617  0.87657040  1
  V  V68  1  0.12408207  0.62252727  0.00091796  1
  V  V69  1  0.50350388  0.12157327  0.13027193  1
  V  V70  1  0.87824116  0.12716151  0.24913949  1
  V  V71  1  0.61839165  0.74579603  0.37390888  1
  V  V72  1  0.50247975  0.87366867  0.87537556  1
  V  V73  1  0.87633506  0.37752527  0.49409005  1
  V  V74  1  0.00058607  0.38012061  0.87220611  1
  V  V75  1  0.88299654  0.50054003  0.37254705  1
  V  V76  1  0.11640602  0.74977366  0.86941152  1
  V  V77  1  0.76355006  0.86949749  0.12776738  1
  V  V78  1  0.62530369  0.87287890  0.24817004  1
  V  V79  1  0.49793203  0.36864346  0.87460695  1
  V  V80  1  0.31630210  0.06535910  0.20335051  1
  V  V81  1  0.87688713  0.00112567  0.37580516  1
  V  V82  1  0.87127301  0.37205124  -0.00616054  1
  V  V83  1  0.25974151  0.61772627  0.37747659  1
  V  V84  1  0.48601630  0.37357167  0.37505875  1
  Zn  Zn85  1  0.38454726  0.62600324  0.26000951  1
  Zn  Zn86  1  0.62528831  0.49815271  0.12748330  1
  Zn  Zn87  1  0.25018849  -0.00278493  0.74857882  1
  Zn  Zn88  1  0.13209548  0.37354848  0.74146220  1
  Zn  Zn89  1  0.12200630  0.50533845  0.12884698  1
  Zn  Zn90  1  0.04989709  0.08219278  0.16142463  1
  Zn  Zn91  1  0.37290202  0.24914081  0.12736523  1
  Zn  Zn92  1  0.62885016  -0.00296474  0.12430979  1
  Zn  Zn93  1  0.75110603  0.12784041  0.37512526  1
  Zn  Zn94  1  0.62804411  0.12211848  0.50677015  1
  Zn  Zn95  1  0.49542743  0.62028655  0.63025702  1
  Zn  Zn96  1  0.00043045  0.25263770  0.74710553  1
  Zn  Zn97  1  0.37302710  0.87500302  0.50500875  1
  Zn  Zn98  1  -0.00696696  0.62825819  0.11831744  1
  Zn  Zn99  1  0.50324767  0.00019944  0.00032847  1
  Zn  Zn100  1  0.11882780  0.38611215  0.25769914  1
  Zn  Zn101  1  0.50855338  0.62939242  0.13830494  1
  Zn  Zn102  1  0.24999935  0.87530468  0.62908197  1
  Zn  Zn103  1  0.86222548  0.87194680  0.50714138  1
  Zn  Zn104  1  0.75381204  0.00170035  0.24685121  1
  Zn  Zn105  1  0.75879913  0.74271139  0.00537015  1
  Zn  Zn106  1  0.25228935  0.63225172  0.87583435  1
  Zn  Zn107  1  0.18507265  0.20029721  0.18797190  1
  Zn  Zn108  1  0.18710018  0.18225587  0.69039177  1
  Zn  Zn109  1  0.18615915  0.79804177  0.18404920  1
  Zn  Zn110  1  0.18498648  0.68063886  0.68808042  1
  Zn  Zn111  1  0.69009727  0.18842371  0.18964769  1
  Zn  Zn112  1  0.68597857  0.18720827  0.68869914  1
  Zn  Zn113  1  0.68812092  0.69081975  0.18899589  1
  Zn  Zn114  1  0.68612829  0.68229505  0.69021516  1
  Zn  Zn115  1  0.30693272  0.31213145  0.31400353  1
  Zn  Zn116  1  0.31045508  0.32047167  0.81211876  1
  Zn  Zn117  1  0.31956197  0.81141450  0.31760580  1
  Zn  Zn118  1  0.30459833  0.81265953  0.81592175  1
  Zn  Zn119  1  0.81205002  0.31308315  0.31376944  1
  Zn  Zn120  1  0.81255958  0.30732414  0.81779219  1
  Zn  Zn121  1  0.81286211  0.81162481  0.31513409  1
  Zn  Zn122  1  0.81524952  0.80788972  0.80717713  1
  Zn  Zn123  1  0.19064707  0.43489361  0.44019352  1
  Zn  Zn124  1  0.18780413  0.44117102  0.93387092  1
  Zn  Zn125  1  0.18646175  0.93750254  0.44071162  1
  Zn  Zn126  1  0.18428273  0.93728462  0.93339611  1
  Zn  Zn127  1  0.68769625  0.43669297  0.43743688  1
  Zn  Zn128  1  0.68608907  0.43491423  0.93912912  1
  Zn  Zn129  1  0.68609367  0.94084523  0.41893271  1
  Zn  Zn130  1  0.69178702  0.93790266  0.94039948  1
  Zn  Zn131  1  0.31109647  0.05863053  0.04212945  1
  Zn  Zn132  1  0.31473162  0.06711258  0.56579236  1
  Zn  Zn133  1  0.30776953  0.57141931  0.06361609  1
  Zn  Zn134  1  0.31410302  0.56293064  0.56223135  1
  Zn  Zn135  1  0.81511443  0.05613115  0.06395900  1
  Zn  Zn136  1  0.81747538  0.07048288  0.55742739  1
  Zn  Zn137  1  0.80903970  0.55452904  0.05806789  1
  Zn  Zn138  1  0.81672810  0.57291111  0.55937205  1
  Zn  Zn139  1  0.43487395  0.43842699  0.18795572  1
  Zn  Zn140  1  0.43880493  0.43751388  0.69047917  1
  Zn  Zn141  1  0.44451776  0.93125118  0.18651370  1
  Zn  Zn142  1  0.43701768  0.92988701  0.69049445  1
  Zn  Zn143  1  0.93599518  0.43738644  0.18165132  1
  Zn  Zn144  1  0.96110692  0.44577768  0.68636457  1
  Zn  Zn145  1  0.96337177  0.94720992  0.19718603  1
  Zn  Zn146  1  0.93403640  0.92953263  0.68480446  1
  Zn  Zn147  1  0.06583347  0.06044969  0.32254048  1
  Zn  Zn148  1  0.06033316  0.06400754  0.81097255  1
  Zn  Zn149  1  0.06842802  0.57312726  0.31208874  1
  Zn  Zn150  1  0.06636265  0.56152125  0.81221704  1
  Zn  Zn151  1  0.56169872  0.05977803  0.31566756  1
  Zn  Zn152  1  0.56280180  0.06200849  0.80804099  1
  Zn  Zn153  1  0.56084359  0.55711992  0.31388129  1
  Zn  Zn154  1  0.56886750  0.55805753  0.81689312  1
  Zn  Zn155  1  0.43341962  0.18532512  0.44388525  1
  Zn  Zn156  1  0.43835766  0.18780262  0.93960099  1
  Zn  Zn157  1  0.43864067  0.68893127  0.44472557  1
  Zn  Zn158  1  0.44110925  0.69016632  0.94530287  1
  Zn  Zn159  1  0.94049798  0.18872535  0.43847013  1
  Zn  Zn160  1  0.93863828  0.18903900  0.93454880  1
  Zn  Zn161  1  0.93598079  0.68988092  0.44064325  1
  Zn  Zn162  1  0.93830231  0.68623016  0.92624374  1
  Zn  Zn163  1  0.06147754  0.31282658  0.06227370  1
  Zn  Zn164  1  0.06264363  0.31512825  0.55921246  1
  Zn  Zn165  1  0.05153286  0.81185396  0.05656821  1
  Zn  Zn166  1  0.06207720  0.81419627  0.56420358  1
  Zn  Zn167  1  0.56162103  0.30741344  0.06196877  1
  Zn  Zn168  1  0.56242567  0.31533698  0.56164424  1
  Zn  Zn169  1  0.56528240  0.81097489  0.06236536  1
  Zn  Zn170  1  0.55517277  0.80382454  0.55999212  1
  O  O171  1  0.12997030  0.13751400  0.10598430  1
  O  O172  1  0.11475699  0.11213623  0.63240857  1
  O  O173  1  0.11491475  0.62560120  0.10444962  1
  O  O174  1  0.13192805  0.61261321  0.61009956  1
  O  O175  1  0.62088781  0.12564509  0.11814658  1
  O  O176  1  0.60900641  0.12756896  0.62577395  1
  O  O177  1  0.62707861  0.62213654  0.11744095  1
  O  O178  1  0.62138433  0.61630569  0.61769993  1
  O  O179  1  0.38448808  0.37042867  0.38019017  1
  O  O180  1  0.38328956  0.38427596  0.88156004  1
  O  O181  1  0.38198041  0.88601777  0.37792581  1
  O  O182  1  0.38548797  0.87903290  0.87805896  1
  O  O183  1  0.87041355  0.38923760  0.38191453  1
  O  O184  1  0.88354824  0.36624259  0.88622052  1
  O  O185  1  0.88061337  0.88150081  0.38238943  1
  O  O186  1  0.86591269  0.88394726  0.88027541  1
  O  O187  1  0.25652009  0.00990689  0.38388877  1
  O  O188  1  0.26036460  0.00794697  0.87426759  1
  O  O189  1  0.24509839  0.51179102  0.37246463  1
  O  O190  1  0.26127281  0.50568623  0.87012071  1
  O  O191  1  0.76567948  0.00508265  0.37108143  1
  O  O192  1  0.75702551  0.00648635  0.86733330  1
  O  O193  1  0.75590544  0.50812934  0.36913543  1
  O  O194  1  0.74770549  0.50641454  0.87688248  1
  O  O195  1  0.24662020  0.49733373  0.13222156  1
  O  O196  1  0.24819930  0.50294084  0.63626684  1
  O  O197  1  0.26225429  1.01258178  0.13936726  1
  O  O198  1  0.24007108  1.00083750  0.62490670  1
  O  O199  1  0.74961233  0.48474301  0.13222457  1
  O  O200  1  0.74428519  0.49801233  0.62080066  1
  O  O201  1  0.74756232  0.98746046  0.12838899  1
  O  O202  1  0.74947995  1.00714652  0.63204288  1
  O  O203  1  -0.00113887  0.36645044  0.24828320  1
  O  O204  1  0.00814964  0.37242930  0.75759684  1
  O  O205  1  -0.01284129  0.85609952  0.26358962  1
  O  O206  1  0.01188020  0.86789778  0.74560012  1
  O  O207  1  0.50339046  0.36835532  0.25748199  1
  O  O208  1  0.51052533  0.37906242  0.76088806  1
  O  O209  1  0.50928545  0.87944889  0.26523089  1
  O  O210  1  0.51098971  0.86776218  0.76074385  1
  O  O211  1  0.50613971  0.13097187  0.24129075  1
  O  O212  1  0.49479637  0.12303008  0.73787259  1
  O  O213  1  0.49607312  0.61820132  0.25033506  1
  O  O214  1  0.50706396  0.63537527  0.75403789  1
  O  O215  1  0.98850731  0.14171750  0.24796902  1
  O  O216  1  0.99188987  0.12754837  0.73934112  1
  O  O217  1  0.98853764  0.63266015  0.24876696  1
  O  O218  1  1.00196449  0.63295029  0.74760296  1
  O  O219  1  0.36759990  0.25703329  0.00188884  1
  O  O220  1  0.36285710  0.26138613  0.49840075  1
  O  O221  1  0.36872319  0.75741194  0.00562851  1
  O  O222  1  0.36733779  0.75249489  0.51143732  1
  O  O223  1  0.88136184  0.25700024  0.00890727  1
  O  O224  1  0.87025781  0.26014013  0.50422106  1
  O  O225  1  0.87786810  0.76306108  -0.00838850  1
  O  O226  1  0.87072030  0.75192888  0.51070310  1
  O  O227  1  0.13890959  0.25635007  0.49386203  1
  O  O228  1  0.12817511  0.24585678  0.98832894  1
  O  O229  1  0.13361679  0.74521319  0.49766780  1
  O  O230  1  0.11560963  0.73927889  0.98478160  1
  O  O231  1  0.63250181  0.25229365  0.49445813  1
  O  O232  1  0.62115765  0.23648913  0.98911080  1
  O  O233  1  0.61935367  0.73760157  0.48873399  1
  O  O234  1  0.62806565  0.74058626  0.99234645  1
  O  O235  1  0.49509389  0.23978528  0.13356530  1
  O  O236  1  0.49889835  0.24075789  0.62268433  1
  O  O237  1  0.48657544  0.74687359  0.11577797  1
  O  O238  1  0.49188783  0.74590275  0.63756519  1
  O  O239  1  0.98944520  0.25479330  0.13358575  1
  O  O240  1  0.99436862  0.24362528  0.62360002  1
  O  O241  1  0.99544818  0.75036348  0.13928513  1
  O  O242  1  1.00371433  0.74646723  0.63571456  1
  O  O243  1  0.01104731  0.24641231  0.36899288  1
  O  O244  1  0.00821095  0.25997210  0.87206867  1
  O  O245  1  0.00588980  0.75485900  0.36987945  1
  O  O246  1  0.00911866  0.74620945  0.85716816  1
  O  O247  1  0.50318198  0.25238840  0.37143062  1
  O  O248  1  0.50621906  0.26245617  0.88066070  1
  O  O249  1  0.50567195  0.75990208  0.38078366  1
  O  O250  1  0.50997702  0.75484253  0.87223212  1
  O  O251  1  0.25644092  0.13984498  0.49365642  1
  O  O252  1  0.24340440  0.13273329  0.98953956  1
  O  O253  1  0.24238953  0.62737312  0.49375229  1
  O  O254  1  0.23747480  0.63853575  0.99879279  1
  O  O255  1  0.74841938  0.13931514  0.49582570  1
  O  O256  1  0.74414339  0.11834338  0.98908721  1
  O  O257  1  0.73457651  0.61532170  0.49004952  1
  O  O258  1  0.74121022  0.62321908  0.99383697  1
  O  O259  1  0.25376187  0.37363368  0.00541528  1
  O  O260  1  0.26299190  0.36588694  0.49949156  1
  O  O261  1  0.26627291  0.87110338  -0.01447506  1
  O  O262  1  0.25027441  0.86313598  0.50436406  1
  O  O263  1  0.75955794  0.37694403  0.00718158  1
  O  O264  1  0.76083139  0.36610460  0.49642991  1
  O  O265  1  0.75926434  0.87264808  0.00813832  1
  O  O266  1  0.74130771  0.89088272  0.50992690  1
  O  O267  1  0.13660596  0.50345456  0.24894573  1
  O  O268  1  0.13339337  0.50039164  0.73887933  1
  O  O269  1  0.06697489  0.99643575  0.23249769  1
  O  O270  1  0.12389911  0.99336482  0.74452461  1
  O  O271  1  0.63209597  0.48849289  0.24971629  1
  O  O272  1  0.62064346  0.49168437  0.73620880  1
  O  O273  1  0.63068551  0.98575536  0.25568541  1
  O  O274  1  0.63726339  0.99111744  0.75319535  1
  O  O275  1  0.37386151  -0.00180150  0.25741654  1
  O  O276  1  0.37605651  0.00080906  0.76079758  1
  O  O277  1  0.36093744  0.50028468  0.24940920  1
  O  O278  1  0.36709403  0.49839287  0.75806395  1
  O  O279  1  0.88045751  0.01046030  0.25858934  1
  O  O280  1  0.86456420  0.00044443  0.75385447  1
  O  O281  1  0.87167126  0.50519743  0.25659535  1
  O  O282  1  0.86172684  0.48545288  0.73376489  1
  O  O283  1  0.13105821  0.36185689  0.37402136  1
  O  O284  1  0.11802645  0.36738700  0.87541285  1
  O  O285  1  0.10844471  0.86707789  0.38743617  1
  O  O286  1  0.12436341  0.86463360  0.86571936  1
  O  O287  1  0.61549099  0.36271483  0.37297407  1
  O  O288  1  0.61923887  0.36766188  0.87014595  1
  O  O289  1  0.61809942  0.86496805  0.37017197  1
  O  O290  1  0.62165243  0.86734205  0.87129015  1
  O  O291  1  0.37715520  0.11930467  0.13299571  1
  O  O292  1  0.38985384  0.12061657  0.63605569  1
  O  O293  1  0.38061741  0.63675576  0.12578307  1
  O  O294  1  0.37813823  0.63811648  0.62218879  1
  O  O295  1  0.86756234  0.13670215  0.13155683  1
  O  O296  1  0.88174985  0.13174099  0.63145683  1
  O  O297  1  0.87074690  0.61908537  0.13633240  1
  O  O298  1  0.87608883  0.64282955  0.62258008  1
  O  O299  1  0.25375076  0.26077854  0.11863024  1
  O  O300  1  0.24335744  0.24468954  0.61168768  1
  O  O301  1  0.26936988  0.74696196  0.11555450  1
  O  O302  1  0.25427194  0.74742238  0.62043872  1
  O  O303  1  0.75969997  0.26115988  0.13022187  1
  O  O304  1  0.75652703  0.24617376  0.61617117  1
  O  O305  1  0.74808634  0.76344274  0.12262262  1
  O  O306  1  0.75673800  0.74711220  0.62924146  1
  O  O307  1  0.24341424  0.24198726  0.38109413  1
  O  O308  1  0.24319393  0.24798053  0.87984081  1
  O  O309  1  0.25389756  0.73861163  0.39202277  1
  O  O310  1  0.23437070  0.75072675  0.88609639  1
  O  O311  1  0.74002851  0.25094050  0.38213845  1
  O  O312  1  0.74019571  0.23838006  0.87420064  1
  O  O313  1  0.74223689  0.73590456  0.37281298  1
  O  O314  1  0.74005326  0.74710620  0.87603800  1
  O  O315  1  0.01098653  0.11922146  -0.01030845  1
  O  O316  1  -0.00630039  0.11700303  0.51438711  1
  O  O317  1  -0.00032411  0.61535172  -0.00440926  1
  O  O318  1  0.01488591  0.61987953  0.48915066  1
  O  O319  1  0.50622156  0.12461464  0.01221536  1
  O  O320  1  0.50099584  0.11820769  0.51385963  1
  O  O321  1  0.51269565  0.61635482  0.00127015  1
  O  O322  1  0.50942054  0.61302909  0.49998937  1
  O  O323  1  0.48760644  0.37625662  0.49543903  1
  O  O324  1  0.49560775  0.38083089  0.99534921  1
  O  O325  1  0.49927525  0.88181801  0.49112545  1
  O  O326  1  0.49683649  0.87455168  0.98812301  1
  O  O327  1  0.98462138  0.38403506  0.50314617  1
  O  O328  1  0.99410197  0.38057368  0.99281624  1
  O  O329  1  0.99428083  0.88136226  0.49625569  1
  O  O330  1  0.98928757  0.88534332  0.99760285  1
  O  O331  1  0.50817073  0.48576738  0.39038626  1
  O  O332  1  0.49639516  0.49154943  0.88544681  1
  O  O333  1  0.49307188  0.99627484  0.38739601  1
  O  O334  1  0.49615473  0.99063161  0.87390303  1
  O  O335  1  0.99233324  0.50743070  0.38215239  1
  O  O336  1  1.00366037  0.48691316  0.87886568  1
  O  O337  1  0.99142775  0.99275060  0.38718395  1
  O  O338  1  0.98493385  1.00636708  0.87851699  1
  O  O339  1  -0.01893883  0.01000756  0.09958955  1
  O  O340  1  0.00192548  0.00571134  0.62116849  1
  O  O341  1  0.00237003  0.50228487  0.11380941  1
  O  O342  1  0.00981674  0.50672327  0.60683246  1
  O  O343  1  0.50588796  0.00869178  0.12459001  1
  O  O344  1  0.49662635  -0.00312776  0.61554454  1
  O  O345  1  0.50129094  0.49789172  0.11292635  1
  O  O346  1  0.50611707  0.49983360  0.61621661  1
  O  O347  1  0.24744211  0.38284972  0.24293659  1
  O  O348  1  0.24624919  0.39602604  0.75723595  1
  O  O349  1  0.21343246  0.83229745  0.28634247  1
  O  O350  1  0.23500453  0.87694287  0.74810830  1
  O  O351  1  0.74367808  0.37685022  0.24409906  1
  O  O352  1  0.74234315  0.37436134  0.74883353  1
  O  O353  1  0.74596791  0.87521937  0.24455444  1
  O  O354  1  0.73777364  0.88015249  0.75293992  1
  O  O355  1  0.25229866  0.12810717  0.25615325  1
  O  O356  1  0.26137516  0.12059367  0.75472627  1
  O  O357  1  0.26083411  0.62058331  0.26986550  1
  O  O358  1  0.24687567  0.60934947  0.75718989  1
  O  O359  1  0.76358449  0.12602130  0.25422655  1
  O  O360  1  0.75259912  0.11681088  0.75915882  1
  O  O361  1  0.75510536  0.61888270  0.25641458  1
  O  O362  1  0.74075072  0.62054162  0.76667487  1
  O  O363  1  0.36733574  0.11379270  0.37732065  1
  O  O364  1  0.37525507  0.11667323  0.86927198  1
  O  O365  1  0.36311185  0.62599068  0.38449511  1
  O  O366  1  0.37828505  0.61487960  0.88214528  1
  O  O367  1  0.87788323  0.11846976  0.36851382  1
  O  O368  1  0.86683241  0.12025267  0.86902645  1
  O  O369  1  0.86679642  0.61689582  0.37090130  1
  O  O370  1  0.85678844  0.62500463  0.87739956  1
  O  O371  1  0.13719303  0.37712598  0.12502893  1
  O  O372  1  0.12044149  0.39217176  0.62194724  1
  O  O373  1  0.15870451  0.83677606  0.08307222  1
  O  O374  1  0.12469378  0.88821661  0.63108056  1
  O  O375  1  0.63221986  0.37050599  0.12959604  1
  O  O376  1  0.62228611  0.38028458  0.63494619  1
  O  O377  1  0.62860987  0.87479200  0.13469435  1
  O  O378  1  0.62070718  0.87087440  0.63272984  1
  O  O379  1  0.11518205  0.25554081  0.25871780  1
  O  O380  1  0.12639270  0.25165505  0.76081145  1
  O  O381  1  0.10411318  0.73887585  0.25337018  1
  O  O382  1  0.11750941  0.75318852  0.75170301  1
  O  O383  1  0.61489539  0.25254503  0.25821309  1
  O  O384  1  0.62757167  0.25738405  0.76265979  1
  O  O385  1  0.62795131  0.75954305  0.26350509  1
  O  O386  1  0.61849759  0.75506102  0.75811612  1
  O  O387  1  0.38719283  0.25341775  0.25051926  1
  O  O388  1  0.37235878  0.23975058  0.75905031  1
  O  O389  1  0.37465914  0.75307939  0.23458538  1
  O  O390  1  0.38385872  0.75474824  0.74863370  1
  O  O391  1  0.88047447  0.24707408  0.24576964  1
  O  O392  1  0.87537302  0.24459648  0.74255070  1
  O  O393  1  0.88308142  0.73718905  0.25948034  1
  O  O394  1  0.88776371  0.75123313  0.73951600  1
  O  O395  1  0.38182194  0.48477255  0.50572390  1
  O  O396  1  0.38079087  0.49810946  0.99484857  1
  O  O397  1  0.38229463  0.99763174  0.49611663  1
  O  O398  1  0.38216506  0.99099716  0.98616405  1
  O  O399  1  0.88180614  0.49798360  0.49309826  1
  O  O400  1  0.88619549  0.48752263  1.00289897  1
  O  O401  1  0.88369845  0.99859797  0.49464745  1
  O  O402  1  0.87711106  0.99288950  0.98684098  1
  O  O403  1  0.11439319  0.00960973  -0.00886593  1
  O  O404  1  0.11008235  -0.00292875  0.50877567  1
  O  O405  1  0.11383760  0.50604306  -0.00282985  1
  O  O406  1  0.12016102  0.50562264  0.49983902  1
  O  O407  1  0.62314771  0.01336845  -0.00133071  1
  O  O408  1  0.62238587  -0.00250799  0.50711392  1
  O  O409  1  0.61682790  0.50502159  0.00291043  1
  O  O410  1  0.61810108  0.49974740  0.51057615  1
  O  O411  1  0.36305695  0.37583440  0.11850542  1
  O  O412  1  0.37830551  0.37097424  0.61697503  1
  O  O413  1  0.38363076  0.86771129  0.11198612  1
  O  O414  1  0.37155786  0.86094350  0.62604246  1
  O  O415  1  0.86831114  0.36599341  0.11542923  1
  O  O416  1  0.86700980  0.37683456  0.62153967  1
  O  O417  1  0.86905777  0.88174526  0.11481038  1
  O  O418  1  0.87716622  0.85529471  0.62256622  1
  O  O419  1  0.13738063  0.13269110  0.37310297  1
  O  O420  1  0.13033098  0.13352567  0.87854640  1
  O  O421  1  0.14053816  0.64133832  0.37863675  1
  O  O422  1  0.12544028  0.63145932  0.88181752  1
  O  O423  1  0.62371384  0.13667042  0.38060102  1
  O  O424  1  0.62929377  0.13075679  0.87873172  1
  O  O425  1  0.62980440  0.62933995  0.38017820  1
  O  O426  1  0.63194452  0.62954578  0.88443461  1
