# generated using pymatgen
data_V85Zn86O256
_symmetry_space_group_name_H-M   'P 1'
_cell_length_a   16.94143435
_cell_length_b   16.94801655
_cell_length_c   16.94188807
_cell_angle_alpha   89.97942332
_cell_angle_beta   89.98955255
_cell_angle_gamma   90.07102455
_symmetry_Int_Tables_number   1
_chemical_formula_structural   V85Zn86O256
_chemical_formula_sum   'V85 Zn86 O256'
_cell_volume   4864.41361935
_cell_formula_units_Z   1
loop_
 _symmetry_equiv_pos_site_id
 _symmetry_equiv_pos_as_xyz
  1  'x, y, z'
loop_
 _atom_site_type_symbol
 _atom_site_label
 _atom_site_symmetry_multiplicity
 _atom_site_fract_x
 _atom_site_fract_y
 _atom_site_fract_z
 _atom_site_occupancy
  V  V0  1  0.88325699  0.50462523  0.38580082  1
  V  V1  1  0.62896624  0.50506118  0.12508072  1
  V  V2  1  0.24637593  0.12540206  0.87405770  1
  V  V3  1  0.76021866  0.75536449  0.01104979  1
  V  V4  1  0.37437371  0.25000075  0.61039098  1
  V  V5  1  0.62592349  0.50346744  0.62201243  1
  V  V6  1  0.87724999  0.50219900  0.87809529  1
  V  V7  1  0.87744364  0.75008889  0.62737381  1
  V  V8  1  0.49905402  -0.00541620  0.50219305  1
  V  V9  1  0.12821132  0.24963125  0.37960501  1
  V  V10  1  0.25062241  0.87262707  0.60981206  1
  V  V11  1  0.76377638  0.37518541  0.62075257  1
  V  V12  1  0.24224749  0.62141360  0.87447582  1
  V  V13  1  0.00022437  0.74398375  0.23938554  1
  V  V14  1  0.50263751  0.24626703  0.74740271  1
  V  V15  1  0.48940791  0.25315470  0.24402889  1
  V  V16  1  0.76378334  0.25276971  0.50050459  1
  V  V17  1  -0.00027838  0.50454914  0.00580377  1
  V  V18  1  0.37191515  0.12368303  0.74631088  1
  V  V19  1  0.74024375  0.23736834  -0.00012095  1
  V  V20  1  0.49623787  0.49643402  0.50460764  1
  V  V21  1  0.71281380  0.55926060  0.30849369  1
  V  V22  1  0.12202199  -0.00475521  0.62761302  1
  V  V23  1  0.62724621  0.25180236  0.37668819  1
  V  V24  1  -0.00343775  0.37662467  0.38844871  1
  V  V25  1  0.49916975  0.75142590  0.24584050  1
  V  V26  1  0.49500973  0.74849204  0.74851541  1
  V  V27  1  0.62721182  0.37417151  0.75205204  1
  V  V28  1  0.49968686  0.49968127  0.00078303  1
  V  V29  1  0.50078931  0.37385614  0.87376714  1
  V  V30  1  0.49256847  0.87167788  0.88139514  1
  V  V31  1  0.62591679  0.75529565  0.87915702  1
  V  V32  1  0.25261491  0.12618534  0.37449320  1
  V  V33  1  0.87183064  0.87186929  0.49899379  1
  V  V34  1  0.12782827  0.12429093  0.50080546  1
  V  V35  1  0.88357285  0.61880647  0.23897296  1
  V  V36  1  0.25324838  0.63122598  0.38141544  1
  V  V37  1  0.00222700  0.62265006  0.61809789  1
  V  V38  1  0.86997895  -0.00606451  0.36713252  1
  V  V39  1  0.00458846  0.76313281  0.75201674  1
  V  V40  1  0.25746483  0.75000585  -0.00131348  1
  V  V41  1  0.37367888  0.49646577  0.87497241  1
  V  V42  1  0.12227316  0.49633071  0.61719281  1
  V  V43  1  0.12378165  0.37541136  0.24832574  1
  V  V44  1  0.87181752  0.11966691  0.24700954  1
  V  V45  1  0.67753094  0.04677118  0.67562047  1
  V  V46  1  0.24702891  -0.00995869  0.74987573  1
  V  V47  1  0.12833787  0.75120373  0.38535436  1
  V  V48  1  0.25488676  0.24717077  0.00400088  1
  V  V49  1  -0.01137508  0.13161987  0.62631479  1
  V  V50  1  0.50131376  0.62662104  0.61916889  1
  V  V51  1  0.11894489  -0.00300553  0.11915793  1
  V  V52  1  0.74275300  0.73597775  0.49449779  1
  V  V53  1  0.63001318  0.37665921  0.25467382  1
  V  V54  1  0.37193567  0.62336996  0.74704067  1
  V  V55  1  0.75258822  0.12353264  0.37035113  1
  V  V56  1  0.12371916  0.76804156  0.87231383  1
  V  V57  1  0.25369068  0.36889802  0.61046675  1
  V  V58  1  0.12396630  0.50868694  0.12737587  1
  V  V59  1  0.36930874  -0.00396202  0.88627110  1
  V  V60  1  0.63126445  0.88211808  0.24726836  1
  V  V61  1  0.62586004  0.11609813  0.49087169  1
  V  V62  1  0.74659995  0.87093085  0.62772381  1
  V  V63  1  0.75050563  0.50297566  0.75145599  1
  V  V64  1  0.88054419  0.62975529  0.75082388  1
  V  V65  1  0.12339653  0.36446760  0.74878746  1
  V  V66  1  0.87681926  0.25090271  0.12361018  1
  V  V67  1  0.25659871  0.37213215  0.12649658  1
  V  V68  1  -0.00035523  0.25031943  0.24951234  1
  V  V69  1  0.52029815  0.00339350  0.00148769  1
  V  V70  1  0.75657498  0.89058689  0.12653336  1
  V  V71  1  0.49443347  0.37292419  0.38415551  1
  V  V72  1  0.37186610  0.49833198  0.37739206  1
  V  V73  1  0.24818607  0.49374557  0.74771286  1
  V  V74  1  0.25773120  0.87779947  0.11453501  1
  V  V75  1  0.75206852  0.38069244  0.12526030  1
  V  V76  1  0.36815096  0.75188621  0.61029914  1
  V  V77  1  0.50107141  0.87300209  0.37712462  1
  V  V78  1  0.37800411  -0.00478888  0.37518798  1
  V  V79  1  0.61783898  0.87238291  0.74079655  1
  V  V80  1  0.88263893  -0.00463751  0.88273380  1
  V  V81  1  0.75143883  0.63413576  0.87394217  1
  V  V82  1  -0.00122783  0.87121671  0.37334838  1
  V  V83  1  0.12994222  0.87416211  0.25060296  1
  V  V84  1  0.11701947  0.12388193  -0.00045110  1
  Zn  Zn85  1  -0.03196449  0.25425682  0.74776226  1
  Zn  Zn86  1  0.49967145  0.11857271  0.62203271  1
  Zn  Zn87  1  0.62460599  0.62884461  0.00020879  1
  Zn  Zn88  1  0.12222530  0.62567453  0.00266556  1
  Zn  Zn89  1  0.11380511  0.24811891  0.87390625  1
  Zn  Zn90  1  0.86359362  0.11636537  0.76380697  1
  Zn  Zn91  1  0.87672227  0.37434698  0.00115594  1
  Zn  Zn92  1  0.62363849  0.23234457  0.88111054  1
  Zn  Zn93  1  0.25346633  -0.00082657  0.24858799  1
  Zn  Zn94  1  0.37760449  0.36856646  0.00454253  1
  Zn  Zn95  1  -0.00136452  -0.00166931  0.50035129  1
  Zn  Zn96  1  0.12662850  0.62508318  0.50084261  1
  Zn  Zn97  1  0.25090091  0.50246868  0.25061873  1
  Zn  Zn98  1  0.49469336  0.62598775  0.12283533  1
  Zn  Zn99  1  0.37895589  0.75149051  0.11947804  1
  Zn  Zn100  1  0.62782103  0.73671025  0.37392443  1
  Zn  Zn101  1  0.50071963  0.12821053  0.11267819  1
  Zn  Zn102  1  0.37249030  0.62715422  0.24585379  1
  Zn  Zn103  1  -0.00050991  0.12106318  0.12241625  1
  Zn  Zn104  1  0.37197291  0.12687876  0.24137739  1
  Zn  Zn105  1  0.89521242  0.87448535  0.00449902  1
  Zn  Zn106  1  0.00033456  0.37332218  0.87533634  1
  Zn  Zn107  1  0.18841332  0.18672528  0.18785440  1
  Zn  Zn108  1  0.18932112  0.18571357  0.68220263  1
  Zn  Zn109  1  0.19250205  0.69003981  0.19361781  1
  Zn  Zn110  1  0.18626418  0.68857885  0.68808931  1
  Zn  Zn111  1  0.68541198  0.18886165  0.18083269  1
  Zn  Zn112  1  0.73081379  0.21850571  0.71384036  1
  Zn  Zn113  1  0.68185957  0.69336622  0.18629373  1
  Zn  Zn114  1  0.68719642  0.68911030  0.68689561  1
  Zn  Zn115  1  0.30929864  0.31602226  0.31980986  1
  Zn  Zn116  1  0.31212205  0.30924722  0.80934237  1
  Zn  Zn117  1  0.31442128  0.81358685  0.31341542  1
  Zn  Zn118  1  0.31015897  0.81139280  0.80827185  1
  Zn  Zn119  1  0.81440825  0.31616888  0.31283045  1
  Zn  Zn120  1  0.81259766  0.31518043  0.82124559  1
  Zn  Zn121  1  0.81222462  0.80248530  0.30761403  1
  Zn  Zn122  1  0.77953500  0.86813247  0.84440939  1
  Zn  Zn123  1  0.18627041  0.43746986  0.43704687  1
  Zn  Zn124  1  0.18458300  0.43375117  0.93964356  1
  Zn  Zn125  1  0.18734608  0.94158198  0.43674982  1
  Zn  Zn126  1  0.05659214  0.94017184  0.94105334  1
  Zn  Zn127  1  0.68554129  0.43680308  0.44518196  1
  Zn  Zn128  1  0.68961324  0.43708088  0.93951782  1
  Zn  Zn129  1  0.68670108  0.93220114  0.43280814  1
  Zn  Zn130  1  0.70117137  1.05617770  0.92264731  1
  Zn  Zn131  1  0.31398387  0.06559326  0.06602760  1
  Zn  Zn132  1  0.31213095  0.06008163  0.55876529  1
  Zn  Zn133  1  0.31206065  0.56140109  0.06315778  1
  Zn  Zn134  1  0.31144140  0.56040411  0.56069827  1
  Zn  Zn135  1  0.82165551  0.06007331  0.05780270  1
  Zn  Zn136  1  0.81475242  0.06090592  0.55113135  1
  Zn  Zn137  1  0.81053469  0.56743251  0.06013845  1
  Zn  Zn138  1  0.81658429  0.56032018  0.56433652  1
  Zn  Zn139  1  0.43863086  0.43745360  0.19093032  1
  Zn  Zn140  1  0.43517013  0.43288787  0.68676332  1
  Zn  Zn141  1  0.43985248  0.94028457  0.18686575  1
  Zn  Zn142  1  0.43152192  0.93556864  0.68578408  1
  Zn  Zn143  1  0.93825271  0.44127969  0.19229264  1
  Zn  Zn144  1  0.94102114  0.44152368  0.69032386  1
  Zn  Zn145  1  0.93920183  0.93264070  0.18567699  1
  Zn  Zn146  1  0.93433938  0.94336085  0.69308148  1
  Zn  Zn147  1  0.05907844  0.05949168  0.31022892  1
  Zn  Zn148  1  0.06019252  0.06673679  0.80581011  1
  Zn  Zn149  1  0.06333998  0.56253419  0.31595502  1
  Zn  Zn150  1  0.06165221  0.55907486  0.80647133  1
  Zn  Zn151  1  0.58331662  0.08265173  0.27110996  1
  Zn  Zn152  1  0.55268943  0.06131088  0.81691990  1
  Zn  Zn153  1  0.54694740  0.56253363  0.31131853  1
  Zn  Zn154  1  0.56278258  0.56494360  0.81140806  1
  Zn  Zn155  1  0.44172345  0.18151987  0.43082049  1
  Zn  Zn156  1  0.43671999  0.18355814  0.93540700  1
  Zn  Zn157  1  0.44069193  0.68635310  0.43551923  1
  Zn  Zn158  1  0.43494110  0.68206646  0.93578705  1
  Zn  Zn159  1  0.94237666  0.18424043  0.43544875  1
  Zn  Zn160  1  0.93215104  0.18447433  0.93246625  1
  Zn  Zn161  1  0.93637258  0.68655079  0.43362018  1
  Zn  Zn162  1  0.94238772  0.69085997  0.93920095  1
  Zn  Zn163  1  0.06474679  0.31556449  0.05934682  1
  Zn  Zn164  1  0.06248975  0.30858394  0.56405003  1
  Zn  Zn165  1  0.07481213  0.80268679  0.06612621  1
  Zn  Zn166  1  0.06088050  0.81501800  0.56464845  1
  Zn  Zn167  1  0.56457329  0.31726916  0.06592189  1
  Zn  Zn168  1  0.57042794  0.30859617  0.56516155  1
  Zn  Zn169  1  0.56754423  0.81896744  0.06406006  1
  Zn  Zn170  1  0.56182514  0.80722533  0.55777471  1
  O  O171  1  0.12675038  0.11516353  0.11804384  1
  O  O172  1  0.11903125  0.11829647  0.61648210  1
  O  O173  1  0.13426145  0.61160175  0.12742384  1
  O  O174  1  0.12030254  0.61594746  0.62469322  1
  O  O175  1  0.60332967  0.11851661  0.16242018  1
  O  O176  1  0.62505576  0.11225151  0.61542719  1
  O  O177  1  0.62250690  0.61373713  0.12419522  1
  O  O178  1  0.61382990  0.61560957  0.63395111  1
  O  O179  1  0.38495906  0.38248852  0.37806670  1
  O  O180  1  0.38306903  0.37955767  0.87330534  1
  O  O181  1  0.38972531  0.88071809  0.37035328  1
  O  O182  1  0.38200950  0.88312889  0.86478492  1
  O  O183  1  0.88654171  0.38912043  0.36494450  1
  O  O184  1  0.87285084  0.39196469  0.87887596  1
  O  O185  1  0.87536558  0.87667036  0.37849149  1
  O  O186  1  0.88529904  0.88497394  0.88251757  1
  O  O187  1  0.25832194  0.00639111  0.37255615  1
  O  O188  1  0.25586517  0.01229871  0.86350648  1
  O  O189  1  0.25827088  0.50405940  0.37514147  1
  O  O190  1  0.25338333  0.50353831  0.87013149  1
  O  O191  1  0.76371836  0.00317163  0.37923380  1
  O  O192  1  0.76973753  -0.02044345  0.88062153  1
  O  O193  1  0.76003742  0.49329651  0.37457231  1
  O  O194  1  0.75591584  0.50984499  0.87172340  1
  O  O195  1  0.24173221  0.49041973  0.12718113  1
  O  O196  1  0.24528141  0.49101303  0.62962266  1
  O  O197  1  0.24190933  0.98932000  0.12581743  1
  O  O198  1  0.24447910  0.99421901  0.62953422  1
  O  O199  1  0.74181496  0.49312733  0.11994830  1
  O  O200  1  0.74193114  0.49747158  0.62982965  1
  O  O201  1  0.75313377  0.98878627  0.12222741  1
  O  O202  1  0.74218140  0.99108058  0.61571289  1
  O  O203  1  0.01132756  0.37024466  0.25561029  1
  O  O204  1  0.00761686  0.36881880  0.74855929  1
  O  O205  1  0.00729467  0.86450313  0.25459243  1
  O  O206  1  0.00180005  0.86143191  0.73874787  1
  O  O207  1  0.50893001  0.37109993  0.26055901  1
  O  O208  1  0.50752153  0.36630871  0.75226956  1
  O  O209  1  0.51219633  0.87092829  0.25313703  1
  O  O210  1  0.50150557  0.86862096  0.75324765  1
  O  O211  1  0.48943691  0.15063856  0.27116312  1
  O  O212  1  0.49118619  0.12967407  0.74415956  1
  O  O213  1  0.49521486  0.63610341  0.24517437  1
  O  O214  1  0.49257069  0.62773230  0.74002152  1
  O  O215  1  0.98923865  0.13255409  0.24937986  1
  O  O216  1  0.99470044  0.13104583  0.73444168  1
  O  O217  1  0.99180408  0.62837986  0.25333795  1
  O  O218  1  0.99712723  0.63110843  0.74043022  1
  O  O219  1  0.36067335  0.24974569  -0.00689193  1
  O  O220  1  0.38636633  0.24264051  0.51210457  1
  O  O221  1  0.36166498  0.74793665  -0.00471590  1
  O  O222  1  0.37740959  0.74452180  0.51157678  1
  O  O223  1  0.86491271  0.25077424  0.01188575  1
  O  O224  1  0.86273592  0.24346277  0.49292177  1
  O  O225  1  0.86298790  0.75221233  -0.00479903  1
  O  O226  1  0.86801655  0.75767518  0.50448004  1
  O  O227  1  0.12040847  0.24122264  0.48712649  1
  O  O228  1  0.13651463  0.24389633  0.99625583  1
  O  O229  1  0.12240488  0.75162164  0.48830782  1
  O  O230  1  0.13751974  0.74339975  0.98590996  1
  O  O231  1  0.62933902  0.23585225  0.49346553  1
  O  O232  1  0.63575622  0.25124619  1.00451713  1
  O  O233  1  0.63808559  0.74471972  0.49769966  1
  O  O234  1  0.63210573  0.75072016  0.99235286  1
  O  O235  1  0.50136874  0.25687129  0.14137372  1
  O  O236  1  0.49729221  0.24754860  0.63576413  1
  O  O237  1  0.49993621  0.75131104  0.12997958  1
  O  O238  1  0.49251567  0.74174068  0.62741589  1
  O  O239  1  0.99175962  0.25204445  0.12986530  1
  O  O240  1  0.99869661  0.23584725  0.62609432  1
  O  O241  1  1.01188120  0.74259869  0.14063770  1
  O  O242  1  0.99809636  0.74338005  0.63196782  1
  O  O243  1  0.00561728  0.25629197  0.36801307  1
  O  O244  1  -0.00516626  0.25432325  0.86609571  1
  O  O245  1  0.00921274  0.75409705  0.36911299  1
  O  O246  1  0.01692399  0.74500843  0.86812652  1
  O  O247  1  0.50689988  0.26157746  0.37406197  1
  O  O248  1  0.50313904  0.25355128  0.86410188  1
  O  O249  1  0.50504301  0.75483291  0.36893223  1
  O  O250  1  0.50227497  0.75412033  0.87068499  1
  O  O251  1  0.23614122  0.11903506  0.48993637  1
  O  O252  1  0.24249778  0.12914020  0.99250629  1
  O  O253  1  0.24723185  0.62069675  0.48708290  1
  O  O254  1  0.24775990  0.63012945  0.99004089  1
  O  O255  1  0.74378712  0.13002396  0.49124544  1
  O  O256  1  0.74614888  0.13405915  1.00750476  1
  O  O257  1  0.75462739  0.63831280  0.50707802  1
  O  O258  1  0.74738391  0.63814024  0.99168795  1
  O  O259  1  0.25069115  0.36600059  0.00881114  1
  O  O260  1  0.24786429  0.37516756  0.51112657  1
  O  O261  1  0.24655031  0.86658580  0.01426278  1
  O  O262  1  0.25003894  0.88003436  0.51038747  1
  O  O263  1  0.75033017  0.36934338  0.01465002  1
  O  O264  1  0.74677357  0.36599631  0.50896924  1
  O  O265  1  0.75050682  0.86229968  0.01775693  1
  O  O266  1  0.75273309  0.86637493  0.50991037  1
  O  O267  1  0.12545470  0.49140241  0.24549363  1
  O  O268  1  0.12973056  0.48758450  0.73931131  1
  O  O269  1  0.12678361  0.98668078  0.24687161  1
  O  O270  1  0.13564942  1.00936779  0.73804014  1
  O  O271  1  0.63405318  0.49932754  0.24922184  1
  O  O272  1  0.62968774  0.49580125  0.74250495  1
  O  O273  1  0.63085032  0.97971883  0.26291043  1
  O  O274  1  0.61455346  0.99153344  0.73856064  1
  O  O275  1  0.37697941  0.00216320  0.26246737  1
  O  O276  1  0.36826320  0.01014889  0.75247970  1
  O  O277  1  0.37683093  0.50087137  0.26588530  1
  O  O278  1  0.36868598  0.50290091  0.75437252  1
  O  O279  1  0.87928212  0.00740482  0.25520793  1
  O  O280  1  0.87607863  0.00182562  0.76704845  1
  O  O281  1  0.87539133  0.51216231  0.25930109  1
  O  O282  1  0.87031270  0.50924611  0.75836309  1
  O  O283  1  0.12036658  0.36810821  0.36895695  1
  O  O284  1  0.12415612  0.37214422  0.86301635  1
  O  O285  1  0.12210423  0.87031899  0.36896428  1
  O  O286  1  0.12950077  0.86539373  0.87577497  1
  O  O287  1  0.61838861  0.37518067  0.36997061  1
  O  O288  1  0.62001767  0.37930463  0.86291781  1
  O  O289  1  0.61901155  0.86656399  0.36505966  1
  O  O290  1  0.61274750  0.86356646  0.85759281  1
  O  O291  1  0.38677459  0.11992295  0.12969796  1
  O  O292  1  0.37406477  0.13029303  0.63103377  1
  O  O293  1  0.37553824  0.63069542  0.12680431  1
  O  O294  1  0.37949115  0.62878618  0.62920340  1
  O  O295  1  0.87828620  0.13206045  0.13104478  1
  O  O296  1  0.88847731  0.11551345  0.61959269  1
  O  O297  1  0.87694793  0.61621102  0.13996927  1
  O  O298  1  0.88365663  0.62851122  0.63094063  1
  O  O299  1  0.24471418  0.25854659  0.11655031  1
  O  O300  1  0.26158547  0.25634675  0.62601422  1
  O  O301  1  0.24930861  0.75893066  0.11644084  1
  O  O302  1  0.25555800  0.75959517  0.62945206  1
  O  O303  1  0.75491375  0.25700921  0.11777554  1
  O  O304  1  0.74362033  0.26451277  0.61196805  1
  O  O305  1  0.74943974  0.74622274  0.11199508  1
  O  O306  1  0.75649070  0.75513003  0.61765387  1
  O  O307  1  0.23997103  0.24081419  0.37278670  1
  O  O308  1  0.24924961  0.23625403  0.87735977  1
  O  O309  1  0.24214546  0.74352972  0.37139493  1
  O  O310  1  0.24150061  0.74330898  0.87654910  1
  O  O311  1  0.74523480  0.24796830  0.38048877  1
  O  O312  1  0.74468021  0.25854392  0.89800557  1
  O  O313  1  0.74947385  0.75043930  0.39073898  1
  O  O314  1  0.74042538  0.75864108  0.88480976  1
  O  O315  1  0.01433593  0.13632429  0.00297812  1
  O  O316  1  0.00920843  0.12237776  0.50791765  1
  O  O317  1  0.00391154  0.61092506  -0.00412329  1
  O  O318  1  0.00193940  0.63256776  0.51438931  1
  O  O319  1  0.50127028  0.10888587  -0.00575617  1
  O  O320  1  0.51055660  0.11573161  0.49900965  1
  O  O321  1  0.50307618  0.61162218  -0.00171777  1
  O  O322  1  0.49900912  0.61640393  0.51255168  1
  O  O323  1  0.50870885  0.38233241  0.49428097  1
  O  O324  1  0.49956625  0.38336789  0.99476034  1
  O  O325  1  0.50868109  0.88013242  0.48816317  1
  O  O326  1  0.50591448  0.88008834  0.98489923  1
  O  O327  1  1.00338955  0.36953846  0.48747333  1
  O  O328  1  0.99754798  0.38741269  0.99669493  1
  O  O329  1  0.98795987  0.87283751  0.49310150  1
  O  O330  1  1.00787935  0.86812548  1.00965685  1
  O  O331  1  0.49425642  0.49299855  0.38567048  1
  O  O332  1  0.49638362  0.49512940  0.88066130  1
  O  O333  1  0.49391099  0.99012590  0.38348130  1
  O  O334  1  0.48918475  0.98997263  0.88262378  1
  O  O335  1  0.99179107  0.49292868  0.37634890  1
  O  O336  1  0.99103530  0.49917412  0.87911881  1
  O  O337  1  0.98821395  0.99048459  0.37550188  1
  O  O338  1  0.99450951  1.00368615  0.87169799  1
  O  O339  1  0.01519980  0.00138884  0.13305820  1
  O  O340  1  0.00776706  0.00784587  0.62425115  1
  O  O341  1  0.01095438  0.49379255  0.11848960  1
  O  O342  1  0.01029269  0.50952550  0.63004395  1
  O  O343  1  0.49990744  -0.01082679  0.10149926  1
  O  O344  1  0.49111366  -0.00316874  0.60730616  1
  O  O345  1  0.50799503  0.49825608  0.11759671  1
  O  O346  1  0.50332856  0.50401026  0.62129167  1
  O  O347  1  0.23863319  0.37522361  0.24585236  1
  O  O348  1  0.24343039  0.37852840  0.74280018  1
  O  O349  1  0.24291371  0.87429945  0.24167435  1
  O  O350  1  0.25264818  0.88788216  0.74197234  1
  O  O351  1  0.73849073  0.36925394  0.23999480  1
  O  O352  1  0.74339370  0.38309756  0.74571542  1
  O  O353  1  0.74204221  0.86432805  0.23869875  1
  O  O354  1  0.73616914  0.87122327  0.73536262  1
  O  O355  1  0.25048020  0.12174430  0.26083557  1
  O  O356  1  0.25613434  0.12043210  0.75428876  1
  O  O357  1  0.25332805  0.62193255  0.26440563  1
  O  O358  1  0.25298383  0.61492445  0.75428832  1
  O  O359  1  0.76511865  0.13360476  0.25481937  1
  O  O360  1  0.73910226  0.10487888  0.73083097  1
  O  O361  1  0.76138978  0.62952940  0.24817428  1
  O  O362  1  0.75813902  0.62337170  0.75479302  1
  O  O363  1  0.36391555  0.11927567  0.37346405  1
  O  O364  1  0.36874276  0.11674627  0.86521138  1
  O  O365  1  0.37000671  0.61720597  0.37495859  1
  O  O366  1  0.36302591  0.61753112  0.86749813  1
  O  O367  1  0.87292378  0.11473317  0.36786397  1
  O  O368  1  0.86702213  0.10781097  0.88173458  1
  O  O369  1  0.87757363  0.61054677  0.36863216  1
  O  O370  1  0.87111544  0.61984248  0.87103598  1
  O  O371  1  0.13269016  0.38085509  0.13339649  1
  O  O372  1  0.13130049  0.37777006  0.62898226  1
  O  O373  1  0.13659127  0.87910858  0.13327034  1
  O  O374  1  0.13122134  0.88807731  0.62003705  1
  O  O375  1  0.62947271  0.38740036  0.13587336  1
  O  O376  1  0.62965970  0.38407342  0.63647952  1
  O  O377  1  0.63826511  0.87229918  0.13885581  1
  O  O378  1  0.62876914  0.86632367  0.63269557  1
  O  O379  1  0.12010354  0.25517654  0.25895810  1
  O  O380  1  0.12927748  0.25994382  0.74799211  1
  O  O381  1  0.12126388  0.75884094  0.25908870  1
  O  O382  1  0.12119768  0.74733739  0.76465972  1
  O  O383  1  0.61700359  0.26263936  0.25852177  1
  O  O384  1  0.62383699  0.25952838  0.75196100  1
  O  O385  1  0.61501876  0.75630721  0.25367591  1
  O  O386  1  0.61519435  0.75504867  0.75326524  1
  O  O387  1  0.38757756  0.26070596  0.25494074  1
  O  O388  1  0.38395760  0.23879973  0.74532726  1
  O  O389  1  0.38967470  0.75290930  0.24917145  1
  O  O390  1  0.37883015  0.74103593  0.74321111  1
  O  O391  1  0.87871519  0.24561123  0.23985856  1
  O  O392  1  0.84802440  0.23336071  0.75202888  1
  O  O393  1  0.88729229  0.73222263  0.25747962  1
  O  O394  1  0.88686034  0.74246246  0.74237228  1
  O  O395  1  0.38791759  0.50158708  0.49320911  1
  O  O396  1  0.38298286  0.49562014  0.99309369  1
  O  O397  1  0.38369396  1.00574235  0.48543772  1
  O  O398  1  0.37061729  0.99952527  0.98662207  1
  O  O399  1  0.87349367  0.50194839  0.48503285  1
  O  O400  1  0.88065243  0.50119430  0.99432325  1
  O  O401  1  0.87657724  0.98471737  0.49116086  1
  O  O402  1  0.88582384  0.99543501  0.99287210  1
  O  O403  1  0.12582317  0.01026804  0.00828066  1
  O  O404  1  0.11994085  0.00739844  0.50616176  1
  O  O405  1  0.11890520  0.50048153  0.00995709  1
  O  O406  1  0.12649247  0.50028136  0.51335972  1
  O  O407  1  0.61775438  -0.00137398  -0.00721740  1
  O  O408  1  0.61851913  0.00922152  0.48916983  1
  O  O409  1  0.61850524  0.50124590  0.00814034  1
  O  O410  1  0.61539271  0.49869699  0.51481229  1
  O  O411  1  0.36053439  0.38121911  0.12641504  1
  O  O412  1  0.36609083  0.36264194  0.62896006  1
  O  O413  1  0.36029880  0.87404431  0.12970935  1
  O  O414  1  0.36405668  0.86315423  0.62741962  1
  O  O415  1  0.86701854  0.36945013  0.12826765  1
  O  O416  1  0.86258405  0.38448904  0.62944168  1
  O  O417  1  0.86111149  0.87432460  0.12656710  1
  O  O418  1  0.86641150  0.87193065  0.61802138  1
  O  O419  1  0.12808944  0.12973407  0.37973911  1
  O  O420  1  0.13154153  0.12627366  0.88072879  1
  O  O421  1  0.13194110  0.63368290  0.37783578  1
  O  O422  1  0.13697612  0.62072952  0.87239792  1
  O  O423  1  0.63386111  0.12972049  0.37412636  1
  O  O424  1  0.63066390  0.12102423  0.86618331  1
  O  O425  1  0.63920572  0.61391892  0.36140018  1
  O  O426  1  0.63114510  0.64047564  0.87157635  1
