# generated using pymatgen
data_V85Zn86O256
_symmetry_space_group_name_H-M   'P 1'
_cell_length_a   16.90647149
_cell_length_b   16.90914028
_cell_length_c   16.90844884
_cell_angle_alpha   90.03614359
_cell_angle_beta   89.97428782
_cell_angle_gamma   90.04179444
_symmetry_Int_Tables_number   1
_chemical_formula_structural   V85Zn86O256
_chemical_formula_sum   'V85 Zn86 O256'
_cell_volume   4833.68144814
_cell_formula_units_Z   1
loop_
 _symmetry_equiv_pos_site_id
 _symmetry_equiv_pos_as_xyz
  1  'x, y, z'
loop_
 _atom_site_type_symbol
 _atom_site_label
 _atom_site_symmetry_multiplicity
 _atom_site_fract_x
 _atom_site_fract_y
 _atom_site_fract_z
 _atom_site_occupancy
  V  V0  1  0.49918469  0.75344359  0.75462201  1
  V  V1  1  -0.00365951  0.48642196  -0.00505233  1
  V  V2  1  0.25346877  0.12141921  0.37889406  1
  V  V3  1  0.13355967  0.75046570  0.87517235  1
  V  V4  1  0.87116652  0.74855023  0.12322690  1
  V  V5  1  0.12035195  0.24323102  0.87331014  1
  V  V6  1  0.75514476  0.63261739  0.88428447  1
  V  V7  1  0.74718798  0.75153873  0.49574440  1
  V  V8  1  0.87320934  0.74089423  0.62844782  1
  V  V9  1  0.12634899  0.49813861  0.12108645  1
  V  V10  1  0.63003198  0.24525703  0.87486465  1
  V  V11  1  0.12962657  0.62328997  -0.00570773  1
  V  V12  1  0.35981911  0.11959536  0.75212460  1
  V  V13  1  0.00805528  0.87323374  0.37160931  1
  V  V14  1  0.25326328  0.23793607  -0.00929396  1
  V  V15  1  0.61879901  0.62652999  0.49441594  1
  V  V16  1  0.62810158  0.12282401  0.50577718  1
  V  V17  1  0.50065697  0.11563656  0.12144735  1
  V  V18  1  0.37096984  0.50513728  0.87479940  1
  V  V19  1  0.12418356  0.00164802  0.62737421  1
  V  V20  1  0.88343817  0.24832153  0.11631129  1
  V  V21  1  0.38050544  0.50140161  0.38403799  1
  V  V22  1  0.12707079  0.37243295  0.24722153  1
  V  V23  1  0.86951779  0.87039746  0.00082295  1
  V  V24  1  0.37433364  0.88126868  0.48888183  1
  V  V25  1  0.75411695  0.12944749  0.37729305  1
  V  V26  1  0.38041023  0.62395659  0.24337871  1
  V  V27  1  0.24701979  0.74939186  0.50057218  1
  V  V28  1  0.49842763  0.62383059  0.62363166  1
  V  V29  1  0.37496958  0.88539360  0.00795228  1
  V  V30  1  0.62687041  0.37336899  0.24502262  1
  V  V31  1  0.63060726  0.25071365  0.38039600  1
  V  V32  1  0.36875426  0.63024818  0.75429803  1
  V  V33  1  0.24286438  0.37446525  0.61909852  1
  V  V34  1  -0.00329831  0.87460936  0.87741918  1
  V  V35  1  0.25058056  0.87973147  0.62720254  1
  V  V36  1  0.87659585  0.48777411  0.87361158  1
  V  V37  1  0.11811597  0.37850945  0.75486444  1
  V  V38  1  0.12713717  0.12951933  0.50385432  1
  V  V39  1  0.24606643  0.50183814  0.74716400  1
  V  V40  1  0.25298490  0.49721168  0.24778432  1
  V  V41  1  0.74540037  0.87864302  0.62603315  1
  V  V42  1  0.74964371  0.62922010  0.37219728  1
  V  V43  1  0.75423965  0.49953921  0.24757606  1
  V  V44  1  0.13148392  0.25034297  0.37984147  1
  V  V45  1  0.51538677  0.74886875  0.25310209  1
  V  V46  1  0.12271482  0.88247369  0.75159968  1
  V  V47  1  0.75067749  0.25283581  -0.00016131  1
  V  V48  1  0.00131659  0.37505520  0.37273444  1
  V  V49  1  -0.00019540  0.62464397  0.12298910  1
  V  V50  1  0.25254177  0.75186242  0.00650154  1
  V  V51  1  -0.00415105  0.74351430  0.75175825  1
  V  V52  1  0.50126634  -0.00080572  0.50479938  1
  V  V53  1  0.75342787  0.51226849  0.74788006  1
  V  V54  1  0.62441135  0.37685373  0.74745865  1
  V  V55  1  0.50003695  0.88462426  0.88660543  1
  V  V56  1  0.11687420  -0.00593747  0.13392021  1
  V  V57  1  0.37623744  0.75317208  0.12962503  1
  V  V58  1  0.50163105  0.37871459  0.38195956  1
  V  V59  1  0.61937706  0.50149190  0.61924407  1
  V  V60  1  0.37174723  0.25015872  0.61777470  1
  V  V61  1  0.87596624  -0.00232683  0.37614731  1
  V  V62  1  0.50059270  0.24724979  0.25123590  1
  V  V63  1  0.49961158  0.37626577  0.87419114  1
  V  V64  1  0.87265078  0.37208865  0.49619545  1
  V  V65  1  0.37414853  0.37358137  -0.00107705  1
  V  V66  1  -0.00309036  0.00913881  0.00469844  1
  V  V67  1  0.24873921  -0.01186374  0.24860802  1
  V  V68  1  0.74056470  0.00421303  0.74876704  1
  V  V69  1  0.00323062  0.23863559  0.24620168  1
  V  V70  1  0.50170307  0.50820435  0.00687727  1
  V  V71  1  0.74198282  0.87225240  0.12738954  1
  V  V72  1  0.87187695  0.12628911  0.75346852  1
  V  V73  1  0.51675963  0.87676018  0.37163405  1
  V  V74  1  0.87321069  0.24881781  0.62183523  1
  V  V75  1  0.37567471  0.75219249  0.62514725  1
  V  V76  1  0.62551930  0.11735336  -0.00178942  1
  V  V77  1  0.49797903  0.24619880  0.74834208  1
  V  V78  1  0.37382012  0.24744753  0.12458947  1
  V  V79  1  0.37433286  0.11900836  0.25555765  1
  V  V80  1  0.00602455  0.50159208  0.50521454  1
  V  V81  1  0.24856266  0.62411310  0.37356234  1
  V  V82  1  0.86683356  0.00514573  0.87689474  1
  V  V83  1  0.74146897  -0.00419360  0.25134118  1
  V  V84  1  0.74939624  0.37477071  0.61870373  1
  Zn  Zn85  1  0.87845932  0.62561967  0.25026333  1
  Zn  Zn86  1  0.12738714  0.12125439  0.00156230  1
  Zn  Zn87  1  0.87705818  0.12270673  0.24500860  1
  Zn  Zn88  1  -0.00054671  -0.00078940  0.50205467  1
  Zn  Zn89  1  0.62430293  0.50462717  0.12561723  1
  Zn  Zn90  1  0.62678009  0.63600750  0.00800981  1
  Zn  Zn91  1  0.12660205  0.62221425  0.50606291  1
  Zn  Zn92  1  -0.00126251  0.12623566  0.62645826  1
  Zn  Zn93  1  0.62800090  0.75172784  0.87899837  1
  Zn  Zn94  1  0.75757285  0.37651882  0.11870256  1
  Zn  Zn95  1  0.37491917  0.37548667  0.50155781  1
  Zn  Zn96  1  0.00387512  0.62066271  0.63117532  1
  Zn  Zn97  1  0.87686222  0.87381853  0.50168877  1
  Zn  Zn98  1  0.24991206  0.37043294  0.12199800  1
  Zn  Zn99  1  0.62134201  -0.00499383  0.12592273  1
  Zn  Zn100  1  -0.00645207  0.25713288  0.75498957  1
  Zn  Zn101  1  0.36197552  0.01305957  0.88303523  1
  Zn  Zn102  1  0.00705828  0.75706764  0.24357822  1
  Zn  Zn103  1  0.87724901  0.50096206  0.37351610  1
  Zn  Zn104  1  0.12839512  0.75404798  0.36727746  1
  Zn  Zn105  1  0.50174263  0.11930323  0.62663841  1
  Zn  Zn106  1  0.61926852  0.88078133  0.74790496  1
  Zn  Zn107  1  0.18727123  0.18008061  0.18385548  1
  Zn  Zn108  1  0.18716612  0.19260318  0.68839853  1
  Zn  Zn109  1  0.18721733  0.68949247  0.18739640  1
  Zn  Zn110  1  0.18369638  0.68825135  0.68648489  1
  Zn  Zn111  1  0.69130185  0.18605060  0.18646555  1
  Zn  Zn112  1  0.69092059  0.18917567  0.68710723  1
  Zn  Zn113  1  0.68820562  0.68322744  0.18095195  1
  Zn  Zn114  1  0.68424762  0.69081715  0.68756730  1
  Zn  Zn115  1  0.31343382  0.31020993  0.31381221  1
  Zn  Zn116  1  0.30913768  0.31207100  0.80987163  1
  Zn  Zn117  1  0.31637668  0.80949447  0.31440236  1
  Zn  Zn118  1  0.29310972  0.85681660  0.83271535  1
  Zn  Zn119  1  0.81533591  0.31029624  0.30707979  1
  Zn  Zn120  1  0.80629040  0.31406610  0.80794670  1
  Zn  Zn121  1  0.81746183  0.81177158  0.30929104  1
  Zn  Zn122  1  0.81207201  0.81542972  0.80969420  1
  Zn  Zn123  1  0.18873219  0.43787133  0.43662783  1
  Zn  Zn124  1  0.18939743  0.43258361  0.93366347  1
  Zn  Zn125  1  0.18751171  0.94253564  0.43965441  1
  Zn  Zn126  1  0.18742142  0.93907359  0.94600035  1
  Zn  Zn127  1  0.68781431  0.44179671  0.43508260  1
  Zn  Zn128  1  0.68792068  0.43807011  0.93470093  1
  Zn  Zn129  1  0.68970914  0.94053615  0.44074482  1
  Zn  Zn130  1  0.68761463  0.93411793  0.93824201  1
  Zn  Zn131  1  0.30684222  0.06159209  0.07204352  1
  Zn  Zn132  1  0.31222163  0.06243059  0.56478332  1
  Zn  Zn133  1  0.31244415  0.56559543  0.06180698  1
  Zn  Zn134  1  0.31059221  0.56234404  0.56527620  1
  Zn  Zn135  1  0.80813065  0.06647315  0.06337053  1
  Zn  Zn136  1  0.81070074  0.06248683  0.56182682  1
  Zn  Zn137  1  0.81429627  0.55784438  0.06018938  1
  Zn  Zn138  1  0.81410258  0.56212251  0.55829740  1
  Zn  Zn139  1  0.43741175  0.43387600  0.18946350  1
  Zn  Zn140  1  0.43538224  0.43762866  0.68677329  1
  Zn  Zn141  1  0.43653908  0.93532958  0.19406824  1
  Zn  Zn142  1  0.43751766  0.93850655  0.68684923  1
  Zn  Zn143  1  0.93889609  0.43283763  0.18406988  1
  Zn  Zn144  1  0.93419386  0.43935134  0.68791792  1
  Zn  Zn145  1  0.93333899  0.93808504  0.19002027  1
  Zn  Zn146  1  0.93378229  0.93485755  0.68750342  1
  Zn  Zn147  1  0.06563438  0.05939612  0.31593491  1
  Zn  Zn148  1  0.05624653  0.06495598  0.81459369  1
  Zn  Zn149  1  0.06450705  0.56253519  0.31173989  1
  Zn  Zn150  1  0.06207325  0.56266016  0.81460841  1
  Zn  Zn151  1  0.56207180  0.06031712  0.31798061  1
  Zn  Zn152  1  0.55644816  0.06303262  0.81587351  1
  Zn  Zn153  1  0.56596766  0.56291038  0.30984097  1
  Zn  Zn154  1  0.56338645  0.56588984  0.81402739  1
  Zn  Zn155  1  0.44026517  0.18680753  0.43790806  1
  Zn  Zn156  1  0.44144772  0.18542677  0.93513881  1
  Zn  Zn157  1  0.43676945  0.69198691  0.43362322  1
  Zn  Zn158  1  0.43659121  0.69231211  0.93607399  1
  Zn  Zn159  1  0.94160797  0.18781630  0.43775908  1
  Zn  Zn160  1  0.93719100  0.18919453  0.93510898  1
  Zn  Zn161  1  0.93408656  0.68915711  0.43712782  1
  Zn  Zn162  1  0.93609758  0.68261763  0.93671646  1
  Zn  Zn163  1  0.06523955  0.30839845  0.06018402  1
  Zn  Zn164  1  0.06033763  0.31417955  0.56489761  1
  Zn  Zn165  1  0.06109139  0.81613859  0.06303628  1
  Zn  Zn166  1  0.06020732  0.81165566  0.56017809  1
  Zn  Zn167  1  0.56027897  0.30977130  0.06154140  1
  Zn  Zn168  1  0.56131958  0.30954206  0.56128147  1
  Zn  Zn169  1  0.56079194  0.80618883  0.06399132  1
  Zn  Zn170  1  0.56459540  0.81219787  0.56177835  1
  O  O171  1  0.13063106  0.10438057  0.11919896  1
  O  O172  1  0.12500290  0.12033261  0.62162366  1
  O  O173  1  0.12037776  0.61843808  0.11275564  1
  O  O174  1  0.11723948  0.63112682  0.61896294  1
  O  O175  1  0.61675855  0.12511070  0.11864126  1
  O  O176  1  0.62465362  0.13580849  0.60926107  1
  O  O177  1  0.62360435  0.61765345  0.12043976  1
  O  O178  1  0.61882040  0.61915757  0.61830934  1
  O  O179  1  0.38273326  0.38214693  0.37597156  1
  O  O180  1  0.38021232  0.38118180  0.87844627  1
  O  O181  1  0.38211018  0.87284165  0.38697653  1
  O  O182  1  0.39005617  0.86523220  0.89279935  1
  O  O183  1  0.88157129  0.37294235  0.38101807  1
  O  O184  1  0.86914368  0.38809108  0.87083512  1
  O  O185  1  0.88224539  0.88298500  0.37814956  1
  O  O186  1  0.87717359  0.88117586  0.88279197  1
  O  O187  1  0.24197979  0.01310502  0.36430186  1
  O  O188  1  0.26112378  -0.03595352  0.86697473  1
  O  O189  1  0.25916097  0.50467216  0.36909364  1
  O  O190  1  0.26391409  0.49525232  0.86562197  1
  O  O191  1  0.75699994  0.00496029  0.36969880  1
  O  O192  1  0.76083949  -0.00567557  0.86720040  1
  O  O193  1  0.75329376  0.50719284  0.36538134  1
  O  O194  1  0.75793425  0.50493804  0.86754717  1
  O  O195  1  0.24499431  0.49754253  0.12919145  1
  O  O196  1  0.25613870  0.49111607  0.63866735  1
  O  O197  1  0.24137836  0.99764671  0.14221885  1
  O  O198  1  0.23660542  0.99189794  0.62259911  1
  O  O199  1  0.74933289  0.49402262  0.13190367  1
  O  O200  1  0.74487197  0.49697381  0.63029852  1
  O  O201  1  0.75049256  0.99233521  0.13478044  1
  O  O202  1  0.75610558  0.99120626  0.63522956  1
  O  O203  1  0.00904485  0.36639332  0.25414071  1
  O  O204  1  0.01385315  0.37840310  0.74450636  1
  O  O205  1  -0.00475710  0.87681753  0.26694259  1
  O  O206  1  0.00543148  0.86746480  0.75643078  1
  O  O207  1  0.50728231  0.36834796  0.25887661  1
  O  O208  1  0.50395358  0.36552177  0.75290345  1
  O  O209  1  0.49950228  0.86748375  0.26420303  1
  O  O210  1  0.49763637  0.86965764  0.75937724  1
  O  O211  1  0.49242231  0.12756311  0.24925767  1
  O  O212  1  0.49896911  0.13678799  0.74611528  1
  O  O213  1  0.49346637  0.63977532  0.26162643  1
  O  O214  1  0.49060442  0.63166023  0.74624689  1
  O  O215  1  1.00222968  0.13587979  0.25515380  1
  O  O216  1  0.98506890  0.12816921  0.74713866  1
  O  O217  1  1.00008543  0.61796555  0.23235801  1
  O  O218  1  1.00319045  0.63935558  0.75210628  1
  O  O219  1  0.37093460  0.25371159  0.00137061  1
  O  O220  1  0.37981745  0.25083905  0.51364456  1
  O  O221  1  0.37103681  0.75261031  0.01112503  1
  O  O222  1  0.36555479  0.75758356  0.50424665  1
  O  O223  1  0.86821071  0.24671861  0.00738605  1
  O  O224  1  0.88035648  0.26304418  0.50556629  1
  O  O225  1  0.88078777  0.76010174  0.00689373  1
  O  O226  1  0.86307858  0.75040707  0.50836024  1
  O  O227  1  0.12114096  0.24447094  0.49126849  1
  O  O228  1  0.13380188  0.24659479  0.98974461  1
  O  O229  1  0.13864649  0.75223448  0.49401637  1
  O  O230  1  0.13176062  0.74536791  0.99661747  1
  O  O231  1  0.62127514  0.24421562  0.48631172  1
  O  O232  1  0.62820217  0.24348230  0.99243711  1
  O  O233  1  0.63845799  0.74059845  0.50526595  1
  O  O234  1  0.62049999  0.74816485  0.99227083  1
  O  O235  1  0.49383693  0.24033221  0.13245513  1
  O  O236  1  0.49221327  0.25007832  0.63317161  1
  O  O237  1  0.49092838  0.75631882  0.14458011  1
  O  O238  1  0.49430765  0.74635210  0.63127132  1
  O  O239  1  0.99297152  0.24938655  0.12914543  1
  O  O240  1  0.98519986  0.25160377  0.62946031  1
  O  O241  1  0.99301905  0.74118158  0.12119051  1
  O  O242  1  0.99044906  0.75316055  0.63368769  1
  O  O243  1  0.01133635  0.25500588  0.36671943  1
  O  O244  1  0.01443323  0.25165408  0.87535321  1
  O  O245  1  0.00020979  0.76302377  0.37644305  1
  O  O246  1  0.00591633  0.75526581  0.87124261  1
  O  O247  1  0.50773519  0.25628335  0.36880748  1
  O  O248  1  0.50849481  0.25686446  0.86731291  1
  O  O249  1  0.49707043  0.76307532  0.36464063  1
  O  O250  1  0.50044036  0.76013611  0.86756000  1
  O  O251  1  0.23938900  0.12065262  0.49283492  1
  O  O252  1  0.25359834  0.13394044  0.99859505  1
  O  O253  1  0.25194181  0.63258624  0.49294036  1
  O  O254  1  0.24277879  0.63714283  1.00140679  1
  O  O255  1  0.74306183  0.12038895  0.48659360  1
  O  O256  1  0.73795604  0.13927762  1.00382403  1
  O  O257  1  0.74301707  0.63070435  0.49270127  1
  O  O258  1  0.74933871  0.62030789  0.98691365  1
  O  O259  1  0.26048269  0.36565468  -0.00023806  1
  O  O260  1  0.25219495  0.38219909  0.51453565  1
  O  O261  1  0.25955792  0.86002040  0.00405615  1
  O  O262  1  0.25615763  0.87158114  0.50570248  1
  O  O263  1  0.73969499  0.35943847  0.00096742  1
  O  O264  1  0.75670667  0.38200921  0.50957920  1
  O  O265  1  0.76237298  0.88096875  0.00914781  1
  O  O266  1  0.75118232  0.86790447  0.50651067  1
  O  O267  1  0.13204840  0.49286161  0.24325411  1
  O  O268  1  0.13601111  0.49411611  0.76032144  1
  O  O269  1  0.13336685  1.00081882  0.24313082  1
  O  O270  1  0.11792738  0.98894943  0.74725453  1
  O  O271  1  0.63508188  0.49044087  0.24977964  1
  O  O272  1  0.63042020  0.49652192  0.73907455  1
  O  O273  1  0.63742779  1.00339202  0.25034743  1
  O  O274  1  0.63674012  1.00487479  0.75498350  1
  O  O275  1  0.36333214  0.01022008  0.24768819  1
  O  O276  1  0.37802632  0.01819171  0.74501157  1
  O  O277  1  0.37316861  0.50619892  0.25616559  1
  O  O278  1  0.36998205  0.50831828  0.75663118  1
  O  O279  1  0.86709513  0.00424066  0.26104474  1
  O  O280  1  0.86810988  0.00637824  0.75772620  1
  O  O281  1  0.86559138  0.49873114  0.24947355  1
  O  O282  1  0.86640540  0.49896109  0.75965666  1
  O  O283  1  0.12389460  0.36676634  0.36914298  1
  O  O284  1  0.12969347  0.36284165  0.86454914  1
  O  O285  1  0.11152164  0.87802997  0.37961356  1
  O  O286  1  0.11636482  0.86911882  0.86977672  1
  O  O287  1  0.62105073  0.36991068  0.36792680  1
  O  O288  1  0.61880418  0.36987978  0.86607183  1
  O  O289  1  0.61513722  0.87316970  0.38028091  1
  O  O290  1  0.61110209  0.87697665  0.87277678  1
  O  O291  1  0.38166784  0.12874205  0.13333239  1
  O  O292  1  0.37593766  0.13345851  0.63381116  1
  O  O293  1  0.37673938  0.62849637  0.13829325  1
  O  O294  1  0.38065804  0.63064787  0.63067938  1
  O  O295  1  0.87019326  0.14150463  0.12808600  1
  O  O296  1  0.87422837  0.13407037  0.62852882  1
  O  O297  1  0.88233842  0.63145721  0.12139476  1
  O  O298  1  0.87868086  0.63662357  0.62144343  1
  O  O299  1  0.25779479  0.24778431  0.11582195  1
  O  O300  1  0.25913771  0.26243994  0.63093565  1
  O  O301  1  0.26547689  0.74392723  0.12095314  1
  O  O302  1  0.25528873  0.75697204  0.61666747  1
  O  O303  1  0.75898278  0.25338311  0.11765514  1
  O  O304  1  0.76080375  0.26220771  0.62738153  1
  O  O305  1  0.76290027  0.75703453  0.13111588  1
  O  O306  1  0.75609548  0.75415864  0.62101561  1
  O  O307  1  0.23881366  0.23992016  0.37052027  1
  O  O308  1  0.23927535  0.25278905  0.88088076  1
  O  O309  1  0.25223935  0.74078841  0.38213184  1
  O  O310  1  0.23749789  0.75860967  0.88141876  1
  O  O311  1  0.74308334  0.24220107  0.36938292  1
  O  O312  1  0.73662362  0.25316762  0.87839535  1
  O  O313  1  0.75541147  0.74281838  0.38264650  1
  O  O314  1  0.75115069  0.73555759  0.86687660  1
  O  O315  1  -0.00070855  0.11185336  -0.00345315  1
  O  O316  1  0.01334160  0.12325251  0.50328277  1
  O  O317  1  0.00786610  0.61711846  0.00747123  1
  O  O318  1  -0.00155082  0.60916588  0.49411419  1
  O  O319  1  0.50841550  0.12985523  0.01137680  1
  O  O320  1  0.50766346  0.11555077  0.49918713  1
  O  O321  1  0.49599951  0.60945688  -0.00623036  1
  O  O322  1  0.51197792  0.63404463  0.50175006  1
  O  O323  1  0.49975257  0.37318327  0.48593240  1
  O  O324  1  0.49156575  0.37987349  0.99334319  1
  O  O325  1  0.49562275  0.87797821  0.49214164  1
  O  O326  1  0.49374574  0.87628079  0.99353449  1
  O  O327  1  0.99412371  0.38312760  0.49433570  1
  O  O328  1  1.00797287  0.38771121  0.99977746  1
  O  O329  1  0.99621588  0.87821276  0.48932922  1
  O  O330  1  0.98851123  0.88511620  0.99631108  1
  O  O331  1  0.49269309  0.49123567  0.36709415  1
  O  O332  1  0.49002459  0.49479397  0.87931513  1
  O  O333  1  0.50190692  0.98488831  0.38352177  1
  O  O334  1  0.48811884  0.98676732  0.87218437  1
  O  O335  1  0.99899021  0.49141861  0.38059214  1
  O  O336  1  0.98437878  0.50542712  0.87910661  1
  O  O337  1  0.99353168  0.99214941  0.37644865  1
  O  O338  1  0.98836315  0.99395662  0.88229299  1
  O  O339  1  0.00665904  -0.00202449  0.12147987  1
  O  O340  1  0.01080386  0.00006785  0.62544966  1
  O  O341  1  0.00511008  0.50390976  0.11488414  1
  O  O342  1  -0.00693578  0.50068672  0.60913619  1
  O  O343  1  0.50204720  0.01157111  0.13460140  1
  O  O344  1  0.50172512  -0.00128382  0.61108841  1
  O  O345  1  0.49719368  0.49336380  0.10942876  1
  O  O346  1  0.50898382  0.50734351  0.62931718  1
  O  O347  1  0.24517053  0.37911545  0.24797518  1
  O  O348  1  0.24278774  0.38377921  0.74263904  1
  O  O349  1  0.25555015  0.89010883  0.26148791  1
  O  O350  1  0.23760345  0.86514395  0.73268655  1
  O  O351  1  0.74233525  0.38098200  0.24945312  1
  O  O352  1  0.74269727  0.38521974  0.73687098  1
  O  O353  1  0.75695142  0.88367139  0.24087697  1
  O  O354  1  0.74600654  0.88493314  0.74420839  1
  O  O355  1  0.25724128  0.11865705  0.25814616  1
  O  O356  1  0.26117489  0.12747625  0.74905378  1
  O  O357  1  0.25956712  0.61821948  0.25687575  1
  O  O358  1  0.26115137  0.61980266  0.74481711  1
  O  O359  1  0.75123179  0.11787841  0.26184964  1
  O  O360  1  0.76099119  0.11807872  0.74435148  1
  O  O361  1  0.75207394  0.61716575  0.25621295  1
  O  O362  1  0.74519447  0.61491750  0.75421414  1
  O  O363  1  0.36579453  0.13096575  0.36847688  1
  O  O364  1  0.37937418  0.12657374  0.85865985  1
  O  O365  1  0.36804146  0.61902930  0.36822706  1
  O  O366  1  0.37792856  0.61808354  0.86579142  1
  O  O367  1  0.86924191  0.12027670  0.37458463  1
  O  O368  1  0.87532303  0.11717841  0.86732870  1
  O  O369  1  0.86374243  0.62237067  0.37237147  1
  O  O370  1  0.86093134  0.61533822  0.87626626  1
  O  O371  1  0.12788984  0.37966087  0.12957552  1
  O  O372  1  0.13505153  0.36810367  0.63569372  1
  O  O373  1  0.12434894  0.89319129  0.11991647  1
  O  O374  1  0.12889753  0.88134753  0.63033944  1
  O  O375  1  0.62214918  0.37418813  0.13814525  1
  O  O376  1  0.62988840  0.38178221  0.62453410  1
  O  O377  1  0.63831779  0.87568835  0.12077210  1
  O  O378  1  0.63920900  0.86981171  0.62848461  1
  O  O379  1  0.12148432  0.25282893  0.25318082  1
  O  O380  1  0.12164909  0.25598591  0.76020886  1
  O  O381  1  0.11958159  0.74423140  0.25434431  1
  O  O382  1  0.11913640  0.76018507  0.75874663  1
  O  O383  1  0.62231503  0.25509930  0.25876854  1
  O  O384  1  0.61942082  0.25434708  0.75495609  1
  O  O385  1  0.61358019  0.74651244  0.24969177  1
  O  O386  1  0.61002347  0.75101310  0.75355754  1
  O  O387  1  0.37893290  0.23942923  0.24555083  1
  O  O388  1  0.38142696  0.24387804  0.74291805  1
  O  O389  1  0.37935799  0.74198046  0.24630064  1
  O  O390  1  0.38381855  0.74359851  0.74468224  1
  O  O391  1  0.88710405  0.24640521  0.24117099  1
  O  O392  1  0.87282793  0.24409743  0.74416880  1
  O  O393  1  0.88498715  0.74603773  0.23815002  1
  O  O394  1  0.88425869  0.75544000  0.74240835  1
  O  O395  1  0.37429906  0.50124805  0.48727389  1
  O  O396  1  0.38069196  0.49524957  0.99351065  1
  O  O397  1  0.38308740  0.99188722  0.50405887  1
  O  O398  1  0.36762918  0.98909998  1.00448939  1
  O  O399  1  0.88259981  0.48782764  0.49648360  1
  O  O400  1  0.88254016  0.49831496  0.98662206  1
  O  O401  1  0.87622466  1.00027755  0.48798368  1
  O  O402  1  0.87720126  0.99693217  0.99511535  1
  O  O403  1  0.11409117  0.00029951  0.00733835  1
  O  O404  1  0.12300235  0.00929699  0.51052951  1
  O  O405  1  0.12272889  0.50660231  -0.00110423  1
  O  O406  1  0.10955487  0.49699732  0.49697598  1
  O  O407  1  0.63118171  0.01343046  0.00224161  1
  O  O408  1  0.61747819  0.01150934  0.49491663  1
  O  O409  1  0.60783498  0.49615689  -0.00216936  1
  O  O410  1  0.63003895  0.50979867  0.51117109  1
  O  O411  1  0.37552394  0.36487493  0.11773922  1
  O  O412  1  0.36777667  0.36807815  0.62413003  1
  O  O413  1  0.38003171  0.86644880  0.11998816  1
  O  O414  1  0.36673881  0.87175413  0.61852870  1
  O  O415  1  0.87471586  0.35535221  0.12802557  1
  O  O416  1  0.86701832  0.37085056  0.61829928  1
  O  O417  1  0.86985695  0.86793629  0.11866878  1
  O  O418  1  0.86342515  0.86568556  0.62350458  1
  O  O419  1  0.13098409  0.13147544  0.38337282  1
  O  O420  1  0.12393082  0.13772062  0.87582963  1
  O  O421  1  0.14009092  0.62143402  0.37970031  1
  O  O422  1  0.12086565  0.63472256  0.88674201  1
  O  O423  1  0.63160878  0.13324436  0.38138286  1
  O  O424  1  0.61569976  0.13454068  0.88435864  1
  O  O425  1  0.63703204  0.61923275  0.38343869  1
  O  O426  1  0.64157938  0.62157026  0.87693136  1
