# generated using pymatgen
data_V85Zn86O256
_symmetry_space_group_name_H-M   'P 1'
_cell_length_a   16.91591010
_cell_length_b   16.91298232
_cell_length_c   16.91052213
_cell_angle_alpha   89.99932213
_cell_angle_beta   90.00077298
_cell_angle_gamma   90.05504603
_symmetry_Int_Tables_number   1
_chemical_formula_structural   V85Zn86O256
_chemical_formula_sum   'V85 Zn86 O256'
_cell_volume   4838.07258633
_cell_formula_units_Z   1
loop_
 _symmetry_equiv_pos_site_id
 _symmetry_equiv_pos_as_xyz
  1  'x, y, z'
loop_
 _atom_site_type_symbol
 _atom_site_label
 _atom_site_symmetry_multiplicity
 _atom_site_fract_x
 _atom_site_fract_y
 _atom_site_fract_z
 _atom_site_occupancy
  V  V0  1  0.62459064  0.75313799  0.35969817  1
  V  V1  1  0.11962492  0.24552086  0.87640939  1
  V  V2  1  0.12149607  0.37452744  0.74310514  1
  V  V3  1  0.24197544  0.37842729  0.12781739  1
  V  V4  1  -0.00022098  0.13429067  0.62599259  1
  V  V5  1  0.87935349  0.75626075  0.62081891  1
  V  V6  1  0.87414122  0.50114458  0.87484854  1
  V  V7  1  0.38918365  0.74222405  0.13212555  1
  V  V8  1  0.49634906  0.25659994  0.25345219  1
  V  V9  1  0.01011222  0.74899953  0.74510443  1
  V  V10  1  0.12899057  0.88121471  0.25252331  1
  V  V11  1  0.62409367  0.12599617  0.49786088  1
  V  V12  1  0.01142031  0.87594414  0.86842702  1
  V  V13  1  0.00949708  0.00413188  -0.00068828  1
  V  V14  1  0.00426254  0.50268531  0.51391499  1
  V  V15  1  0.62546224  0.62449678  0.49739193  1
  V  V16  1  0.36887975  0.12078438  0.24935426  1
  V  V17  1  0.00205711  0.25722619  0.25259171  1
  V  V18  1  -0.00250767  0.86934519  0.37593697  1
  V  V19  1  0.37227780  0.37171195  0.48902089  1
  V  V20  1  0.74716163  0.25503988  0.50751072  1
  V  V21  1  0.74429586  0.13646267  0.88055952  1
  V  V22  1  0.87720910  0.87528076  -0.00264581  1
  V  V23  1  0.11587314  0.62376114  0.00419488  1
  V  V24  1  0.88346560  0.74590177  0.12280100  1
  V  V25  1  0.75027854  0.87506437  0.12512713  1
  V  V26  1  0.62334609  0.49237592  0.62266586  1
  V  V27  1  0.50085646  0.62736174  0.62808076  1
  V  V28  1  0.37548627  0.87226087  0.49935931  1
  V  V29  1  0.24719618  0.87370352  0.63374530  1
  V  V30  1  0.75142666  0.62242414  0.36776492  1
  V  V31  1  0.87445754  0.49801650  0.37204938  1
  V  V32  1  0.49808220  0.12592642  0.12522864  1
  V  V33  1  0.37257493  0.26146492  0.12104110  1
  V  V34  1  0.25219383  0.88213338  0.12982743  1
  V  V35  1  0.49060570  0.12682008  0.63057172  1
  V  V36  1  0.24943270  0.74740338  0.00453318  1
  V  V37  1  0.62094623  0.62492826  0.00334076  1
  V  V38  1  0.00743823  0.12572961  0.12203130  1
  V  V39  1  0.75035387  0.75035761  -0.00328584  1
  V  V40  1  0.75353179  0.75640769  0.49751949  1
  V  V41  1  0.62517838  -0.00131332  0.62288316  1
  V  V42  1  0.74739693  -0.00416663  0.25074805  1
  V  V43  1  0.50318536  0.36880601  0.87902090  1
  V  V44  1  0.38457356  0.61995029  0.25766710  1
  V  V45  1  0.49876034  -0.00086826  0.49428972  1
  V  V46  1  0.87290047  0.12396160  0.25107783  1
  V  V47  1  0.74912331  0.62439730  0.87146875  1
  V  V48  1  0.86885611  0.37329393  -0.00073438  1
  V  V49  1  0.87450677  -0.00492162  0.38072041  1
  V  V50  1  0.24357481  0.24814324  0.00102042  1
  V  V51  1  0.50446185  -0.00000687  -0.00175463  1
  V  V52  1  0.88358861  0.62159487  0.24615643  1
  V  V53  1  0.61640692  0.74709191  0.86883530  1
  V  V54  1  0.62513438  0.38174009  0.25562066  1
  V  V55  1  0.62057258  0.86766075  0.74556423  1
  V  V56  1  0.24988844  0.74738926  0.49882286  1
  V  V57  1  0.12425620  0.62163116  0.51066250  1
  V  V58  1  0.62438916  -0.00439203  0.12919776  1
  V  V59  1  0.12246078  -0.00325736  0.63465574  1
  V  V60  1  0.62296125  0.25126799  0.37186474  1
  V  V61  1  0.75128932  0.38005724  0.13203183  1
  V  V62  1  0.37984272  0.62855268  0.75319784  1
  V  V63  1  0.87144574  0.37725818  0.50654752  1
  V  V64  1  0.24593740  0.11603782  0.37411959  1
  V  V65  1  0.62413184  0.36644230  0.75230482  1
  V  V66  1  0.62686273  0.50566516  0.13044525  1
  V  V67  1  0.49573709  0.49891613  0.00566819  1
  V  V68  1  0.37303817  0.49148938  0.87963355  1
  V  V69  1  0.11616768  0.50437162  0.13743737  1
  V  V70  1  0.87274788  0.24947737  0.12256799  1
  V  V71  1  0.74974489  -0.00150573  0.75073602  1
  V  V72  1  0.24977484  0.62155429  0.87847793  1
  V  V73  1  0.74950836  0.49480250  0.74212128  1
  V  V74  1  0.87611449  0.13345593  0.74922709  1
  V  V75  1  0.49333074  0.49549393  0.48686639  1
  V  V76  1  0.88085858  0.62481968  0.74089331  1
  V  V77  1  0.24561546  0.49952360  0.74198559  1
  V  V78  1  -0.00019833  0.37279987  0.87315060  1
  V  V79  1  0.12650514  0.25604723  0.37561395  1
  V  V80  1  0.37726632  0.87357326  -0.00139197  1
  V  V81  1  -0.00080891  -0.00521632  0.50250604  1
  V  V82  1  0.87572403  -0.00022941  0.87436125  1
  V  V83  1  0.50313844  0.87105258  0.36166284  1
  V  V84  1  0.37582760  0.00865240  0.86792809  1
  Zn  Zn85  1  0.49734468  0.87066732  0.86798643  1
  Zn  Zn86  1  0.00694745  0.74808736  0.24262254  1
  Zn  Zn87  1  0.38196222  0.75238112  0.63108781  1
  Zn  Zn88  1  0.13446665  0.00655863  0.12634287  1
  Zn  Zn89  1  0.75047073  0.12605354  0.37437167  1
  Zn  Zn90  1  -0.00339241  0.50370252  0.00429762  1
  Zn  Zn91  1  0.24991822  0.00298018  0.74992465  1
  Zn  Zn92  1  0.24810149  0.12849646  0.87469972  1
  Zn  Zn93  1  0.12570413  0.12449923  0.50190283  1
  Zn  Zn94  1  0.00242957  0.37818611  0.37532358  1
  Zn  Zn95  1  0.25442220  0.49618117  0.25552652  1
  Zn  Zn96  1  0.75294203  0.87669920  0.61973696  1
  Zn  Zn97  1  0.87150140  0.25498766  0.62782082  1
  Zn  Zn98  1  0.36878702  0.25396993  0.63592391  1
  Zn  Zn99  1  0.49627475  0.24162579  0.76202838  1
  Zn  Zn100  1  0.25069642  0.37348218  0.62409903  1
  Zn  Zn101  1  0.25156480  0.61526059  0.37509368  1
  Zn  Zn102  1  0.36783281  -0.00568068  0.36752746  1
  Zn  Zn103  1  0.12881834  0.75067433  0.87241862  1
  Zn  Zn104  1  0.62096074  0.14366407  -0.00993801  1
  Zn  Zn105  1  0.24919752  0.24685349  0.50414524  1
  Zn  Zn106  1  0.12701074  0.74673561  0.37304346  1
  Zn  Zn107  1  0.18713852  0.19055281  0.19138146  1
  Zn  Zn108  1  0.19037069  0.18739642  0.69294274  1
  Zn  Zn109  1  0.19280253  0.68811491  0.19066397  1
  Zn  Zn110  1  0.19243432  0.68522956  0.68557316  1
  Zn  Zn111  1  0.67020125  0.20465111  0.15432372  1
  Zn  Zn112  1  0.68352510  0.18428086  0.68764148  1
  Zn  Zn113  1  0.69472283  0.68600593  0.18568391  1
  Zn  Zn114  1  0.69021131  0.68381044  0.68319112  1
  Zn  Zn115  1  0.30764476  0.31163713  0.31310100  1
  Zn  Zn116  1  0.31127841  0.31037537  0.81113017  1
  Zn  Zn117  1  0.31335356  0.80947637  0.31178918  1
  Zn  Zn118  1  0.31291206  0.81146471  0.81542281  1
  Zn  Zn119  1  0.81041351  0.31317055  0.31447947  1
  Zn  Zn120  1  0.80913796  0.31360431  0.81256320  1
  Zn  Zn121  1  0.81461445  0.81104054  0.30958147  1
  Zn  Zn122  1  0.81352908  0.81205008  0.80905452  1
  Zn  Zn123  1  0.18881206  0.43889521  0.43502958  1
  Zn  Zn124  1  0.18612368  0.43446226  0.94344476  1
  Zn  Zn125  1  0.18439826  0.93670557  0.44271329  1
  Zn  Zn126  1  0.19072257  0.93768539  0.93982568  1
  Zn  Zn127  1  0.68852457  0.43821103  0.43691938  1
  Zn  Zn128  1  0.68772984  0.43615955  0.93885782  1
  Zn  Zn129  1  0.68604734  0.93539024  0.43388930  1
  Zn  Zn130  1  0.68597972  0.93706708  0.93469983  1
  Zn  Zn131  1  0.31415555  0.06747015  0.05697413  1
  Zn  Zn132  1  0.31000153  0.05922262  0.55934763  1
  Zn  Zn133  1  0.31012540  0.56168823  0.06823353  1
  Zn  Zn134  1  0.31599115  0.56125851  0.56133420  1
  Zn  Zn135  1  0.81562687  0.06283769  0.06083418  1
  Zn  Zn136  1  0.81166765  0.06562540  0.56135706  1
  Zn  Zn137  1  0.80965811  0.56250662  0.06257600  1
  Zn  Zn138  1  0.81176563  0.56486024  0.55984255  1
  Zn  Zn139  1  0.44036639  0.43899828  0.18839069  1
  Zn  Zn140  1  0.43557496  0.43525580  0.68730678  1
  Zn  Zn141  1  0.43507048  0.93663241  0.18479608  1
  Zn  Zn142  1  0.43948664  0.93731793  0.68437316  1
  Zn  Zn143  1  0.93850831  0.43990831  0.18876939  1
  Zn  Zn144  1  0.93799538  0.43466243  0.68816507  1
  Zn  Zn145  1  0.93982007  0.93650297  0.18863434  1
  Zn  Zn146  1  0.93706007  0.93659308  0.68866543  1
  Zn  Zn147  1  0.06172767  0.06291196  0.31129832  1
  Zn  Zn148  1  0.06303273  0.06594791  0.80874371  1
  Zn  Zn149  1  0.06287053  0.56565674  0.32262719  1
  Zn  Zn150  1  0.06304451  0.56122807  0.81458435  1
  Zn  Zn151  1  0.56204943  0.06447736  0.30961928  1
  Zn  Zn152  1  0.56470713  0.05893248  0.81215672  1
  Zn  Zn153  1  0.55950419  0.56936288  0.30853670  1
  Zn  Zn154  1  0.56126460  0.55646050  0.81315998  1
  Zn  Zn155  1  0.43460747  0.18879025  0.43627364  1
  Zn  Zn156  1  0.43390195  0.19014478  0.94327122  1
  Zn  Zn157  1  0.44089818  0.68865847  0.43727244  1
  Zn  Zn158  1  0.43727672  0.68377066  0.94049198  1
  Zn  Zn159  1  0.93674667  0.18621064  0.43922692  1
  Zn  Zn160  1  0.93529844  0.18873067  0.93779239  1
  Zn  Zn161  1  0.93884890  0.68355355  0.43932982  1
  Zn  Zn162  1  0.93824677  0.68941813  0.93059419  1
  Zn  Zn163  1  0.06006905  0.31822670  0.06164329  1
  Zn  Zn164  1  0.06279609  0.31410665  0.55872751  1
  Zn  Zn165  1  0.06618919  0.81733361  0.06078785  1
  Zn  Zn166  1  0.06404560  0.81165665  0.56198624  1
  Zn  Zn167  1  0.56100723  0.31763748  0.06325979  1
  Zn  Zn168  1  0.55694277  0.31367434  0.56120348  1
  Zn  Zn169  1  0.56474805  0.81424718  0.06099394  1
  Zn  Zn170  1  0.56535819  0.81011834  0.55634682  1
  O  O171  1  0.11145985  0.12466356  0.13022374  1
  O  O172  1  0.11394679  0.11635063  0.62572563  1
  O  O173  1  0.13096327  0.61417760  0.11851744  1
  O  O174  1  0.12974009  0.62501440  0.61141023  1
  O  O175  1  0.61468060  0.10583176  0.13040381  1
  O  O176  1  0.61688451  0.11671003  0.61683633  1
  O  O177  1  0.63243111  0.61889731  0.11589184  1
  O  O178  1  0.62026168  0.61458152  0.61846197  1
  O  O179  1  0.37511295  0.36880345  0.38865980  1
  O  O180  1  0.38283357  0.38746747  0.87460819  1
  O  O181  1  0.38278930  0.87506203  0.38126613  1
  O  O182  1  0.37795934  0.87927080  0.88560021  1
  O  O183  1  0.87452606  0.38279192  0.38473764  1
  O  O184  1  0.87694030  0.37898806  0.88149228  1
  O  O185  1  0.88401614  0.88345091  0.36907323  1
  O  O186  1  0.88234767  0.88038226  0.87848984  1
  O  O187  1  0.24859112  0.01075751  0.37852981  1
  O  O188  1  0.26634395  -0.00174538  0.87914550  1
  O  O189  1  0.24995361  0.50075164  0.36836391  1
  O  O190  1  0.25778719  0.50238190  0.87490856  1
  O  O191  1  0.75671914  -0.00019064  0.36768958  1
  O  O192  1  0.75387154  0.00269067  0.86337749  1
  O  O193  1  0.76281004  0.50981403  0.38232994  1
  O  O194  1  0.75469123  0.50536556  0.86661457  1
  O  O195  1  0.23921975  0.49348053  0.12904141  1
  O  O196  1  0.25386525  0.49951002  0.63925312  1
  O  O197  1  0.25313432  0.98705415  0.11473461  1
  O  O198  1  0.24085878  0.99227499  0.62526516  1
  O  O199  1  0.73779598  0.49374134  0.12368634  1
  O  O200  1  0.73993322  0.50505983  0.63178849  1
  O  O201  1  0.74438784  0.99659219  0.12984580  1
  O  O202  1  0.74578630  1.00001972  0.63435521  1
  O  O203  1  -0.00765873  0.36075426  0.25354931  1
  O  O204  1  0.00698282  0.38015953  0.76065733  1
  O  O205  1  0.00708193  0.87147356  0.25832816  1
  O  O206  1  -0.00542748  0.86449229  0.75886833  1
  O  O207  1  0.50812076  0.36426317  0.24684958  1
  O  O208  1  0.50916758  0.38046472  0.76196934  1
  O  O209  1  0.49622635  0.87985219  0.26238768  1
  O  O210  1  0.51539247  0.87667464  0.74819562  1
  O  O211  1  0.49392640  0.13678724  0.24485121  1
  O  O212  1  0.50718422  0.12221355  0.73433146  1
  O  O213  1  0.48532713  0.63015306  0.24809115  1
  O  O214  1  0.49192814  0.61621920  0.74227632  1
  O  O215  1  0.98866480  0.12853088  0.24192285  1
  O  O216  1  0.98696595  0.11916095  0.73946824  1
  O  O217  1  0.98781687  0.63057787  0.25687953  1
  O  O218  1  0.99031760  0.63325844  0.75760726  1
  O  O219  1  0.36396361  0.24966488  0.01199938  1
  O  O220  1  0.37761634  0.26292578  0.50392301  1
  O  O221  1  0.37068643  0.75486843  0.00678837  1
  O  O222  1  0.37168213  0.75941368  0.50322347  1
  O  O223  1  0.87697268  0.25919215  0.01073767  1
  O  O224  1  0.86474119  0.25841768  0.49820295  1
  O  O225  1  0.86992182  0.75320078  0.00271336  1
  O  O226  1  0.86764570  0.74158500  0.50954826  1
  O  O227  1  0.12343774  0.24409303  0.49028420  1
  O  O228  1  0.13049326  0.25818068  0.99193528  1
  O  O229  1  0.13355852  0.74230222  0.50009149  1
  O  O230  1  0.13401916  0.74315459  1.00168086  1
  O  O231  1  0.62795844  0.24939143  0.49109124  1
  O  O232  1  0.63627802  0.23923037  1.04619149  1
  O  O233  1  0.63502424  0.74103431  0.49230310  1
  O  O234  1  0.63022364  0.74335756  0.99264898  1
  O  O235  1  0.48839445  0.24823748  0.13301278  1
  O  O236  1  0.50135352  0.23183205  0.62188725  1
  O  O237  1  0.48713326  0.75388248  0.11990084  1
  O  O238  1  0.50268877  0.73266902  0.61747782  1
  O  O239  1  0.99243733  0.24554871  0.13198939  1
  O  O240  1  0.99530939  0.23688431  0.61741177  1
  O  O241  1  0.98694136  0.75621136  0.12081303  1
  O  O242  1  0.99264571  0.75360530  0.63237217  1
  O  O243  1  0.00556850  0.24799146  0.36816059  1
  O  O244  1  0.00282597  0.26400380  0.88120572  1
  O  O245  1  -0.00096411  0.76227448  0.37810729  1
  O  O246  1  0.00284606  0.75962949  0.86526887  1
  O  O247  1  0.51297664  0.24555341  0.36758025  1
  O  O248  1  0.49944968  0.26375294  0.88270122  1
  O  O249  1  0.51274860  0.75903973  0.38003808  1
  O  O250  1  0.51283708  0.74854480  0.87810012  1
  O  O251  1  0.24856074  0.12643079  0.48966519  1
  O  O252  1  0.24948389  0.14030953  0.99549734  1
  O  O253  1  0.24703679  0.63140936  0.50033274  1
  O  O254  1  0.24377567  0.63171898  0.99842586  1
  O  O255  1  0.74123349  0.13239276  0.49637102  1
  O  O256  1  0.74958773  0.11552423  0.98253745  1
  O  O257  1  0.74575597  0.63243633  0.48825593  1
  O  O258  1  0.74022807  0.62890111  0.99151385  1
  O  O259  1  0.24745609  0.36518679  0.01581014  1
  O  O260  1  0.26229906  0.37497230  0.50224636  1
  O  O261  1  0.25870965  0.86663738  0.00502563  1
  O  O262  1  0.25853885  0.86960229  0.50743036  1
  O  O263  1  0.76076938  0.38064990  0.01177787  1
  O  O264  1  0.75700713  0.36722936  0.49666455  1
  O  O265  1  0.75667260  0.87125796  0.00276807  1
  O  O266  1  0.74793327  0.86090089  0.49844366  1
  O  O267  1  0.12192332  0.50772542  0.23955847  1
  O  O268  1  0.13525232  0.49111217  0.75878512  1
  O  O269  1  0.11901018  0.98655736  0.24522452  1
  O  O270  1  0.12007766  0.99442875  0.73817895  1
  O  O271  1  0.61902152  0.49453178  0.24364403  1
  O  O272  1  0.63220336  0.49409654  0.74169552  1
  O  O273  1  0.63581926  1.00026095  0.24410665  1
  O  O274  1  0.63247854  0.99163767  0.74384764  1
  O  O275  1  0.38160907  0.01592201  0.24941647  1
  O  O276  1  0.37816433  -0.00687023  0.76592296  1
  O  O277  1  0.37650742  0.51618274  0.24148553  1
  O  O278  1  0.36738576  0.50735446  0.76043012  1
  O  O279  1  0.87238646  0.00539414  0.25884975  1
  O  O280  1  0.86665338  0.00715315  0.75426266  1
  O  O281  1  0.87728213  0.50759627  0.25854393  1
  O  O282  1  0.86813767  0.50546182  0.75202212  1
  O  O283  1  0.12174790  0.36034347  0.37872530  1
  O  O284  1  0.11417116  0.37164783  0.87266753  1
  O  O285  1  0.11777011  0.87404530  0.36943350  1
  O  O286  1  0.11536240  0.87309781  0.87876928  1
  O  O287  1  0.63063149  0.36989825  0.36233869  1
  O  O288  1  0.61657189  0.38170381  0.86622556  1
  O  O289  1  0.61614304  0.86515595  0.37704943  1
  O  O290  1  0.62409936  0.86448229  0.86557870  1
  O  O291  1  0.37862540  0.13416709  0.13128612  1
  O  O292  1  0.38881574  0.12136908  0.61951926  1
  O  O293  1  0.37371777  0.63877328  0.12864023  1
  O  O294  1  0.38368336  0.62453011  0.63459055  1
  O  O295  1  0.88059701  0.13266205  0.13047505  1
  O  O296  1  0.88034284  0.12560935  0.63295032  1
  O  O297  1  0.86836311  0.63309815  0.13280966  1
  O  O298  1  0.86948179  0.63312530  0.63623791  1
  O  O299  1  0.25254267  0.25487041  0.12045192  1
  O  O300  1  0.25032081  0.25288129  0.62161556  1
  O  O301  1  0.25870291  0.75942290  0.11581019  1
  O  O302  1  0.25493918  0.75691664  0.61617196  1
  O  O303  1  0.76860793  0.26127110  0.13684929  1
  O  O304  1  0.74779491  0.24484647  0.61145066  1
  O  O305  1  0.75894582  0.75642528  0.11633212  1
  O  O306  1  0.75763290  0.74929576  0.61435825  1
  O  O307  1  0.24036218  0.23996842  0.37672801  1
  O  O308  1  0.23893540  0.25508556  0.88543260  1
  O  O309  1  0.25068661  0.75221584  0.39062713  1
  O  O310  1  0.25024788  0.74437610  0.88809303  1
  O  O311  1  0.73800035  0.24792304  0.38063228  1
  O  O312  1  0.75128078  0.23554764  0.87556272  1
  O  O313  1  0.74713197  0.74457035  0.37946770  1
  O  O314  1  0.74314061  0.74405066  0.87840411  1
  O  O315  1  -0.00859020  0.11632836  0.00950529  1
  O  O316  1  -0.00325476  0.11183889  0.50841043  1
  O  O317  1  0.01232823  0.62701653  -0.00561553  1
  O  O318  1  0.00700264  0.61152494  0.49816714  1
  O  O319  1  0.50218214  0.11736188  0.00648205  1
  O  O320  1  0.50380520  0.11611584  0.50340152  1
  O  O321  1  0.51393117  0.61658956  -0.00415795  1
  O  O322  1  0.50369958  0.61345819  0.50504128  1
  O  O323  1  0.49188261  0.38774180  0.50068110  1
  O  O324  1  0.50592023  0.38767950  0.99327730  1
  O  O325  1  0.49371164  0.88163002  0.49536813  1
  O  O326  1  0.49320240  0.88160528  0.99653350  1
  O  O327  1  0.99239768  0.38639143  0.49819369  1
  O  O328  1  0.98492117  0.38005685  0.99518969  1
  O  O329  1  1.00242434  0.88633628  0.49279405  1
  O  O330  1  0.99531286  0.88220832  0.99116831  1
  O  O331  1  0.50589584  0.50368470  0.38899381  1
  O  O332  1  0.49338787  0.49358221  0.88513809  1
  O  O333  1  0.50113729  0.99400617  0.38411736  1
  O  O334  1  0.49275477  0.99685631  0.88115162  1
  O  O335  1  0.98752665  0.49844575  0.38320706  1
  O  O336  1  0.99090563  0.49083758  0.87804470  1
  O  O337  1  0.99356762  0.99278050  0.38188694  1
  O  O338  1  0.99693084  0.99498269  0.87945915  1
  O  O339  1  -0.00211474  0.00883483  0.11624342  1
  O  O340  1  0.00290326  0.00186885  0.61856030  1
  O  O341  1  0.01148983  0.50063502  0.12359084  1
  O  O342  1  -0.00582622  0.50180416  0.61257090  1
  O  O343  1  0.50553869  0.00099135  0.11749876  1
  O  O344  1  0.50370258  0.00690200  0.61336562  1
  O  O345  1  0.51361569  0.49485754  0.11579430  1
  O  O346  1  0.50712296  0.50861856  0.61794501  1
  O  O347  1  0.25233869  0.37307957  0.23396565  1
  O  O348  1  0.24011512  0.38471713  0.75195007  1
  O  O349  1  0.24524087  0.87311680  0.24144616  1
  O  O350  1  0.25614509  0.87633880  0.73757636  1
  O  O351  1  0.74360387  0.37556892  0.24056405  1
  O  O352  1  0.74206716  0.38659139  0.75374922  1
  O  O353  1  0.75853435  0.88798253  0.24140530  1
  O  O354  1  0.74124334  0.88252801  0.74766491  1
  O  O355  1  0.25849715  0.12873565  0.25771082  1
  O  O356  1  0.23917441  0.11513090  0.76245152  1
  O  O357  1  0.26525614  0.62608348  0.25203669  1
  O  O358  1  0.25524366  0.61736600  0.75856043  1
  O  O359  1  0.76367243  0.11293037  0.24771380  1
  O  O360  1  0.75303212  0.11771053  0.75784409  1
  O  O361  1  0.76196157  0.62863208  0.26206374  1
  O  O362  1  0.75606223  0.61450280  0.75343817  1
  O  O363  1  0.36605427  0.12380245  0.36674210  1
  O  O364  1  0.37747819  0.11068936  0.88006441  1
  O  O365  1  0.37527657  0.63301982  0.36131452  1
  O  O366  1  0.37094491  0.61596843  0.87143073  1
  O  O367  1  0.87358629  0.11659347  0.36704066  1
  O  O368  1  0.86675075  0.11971862  0.86773672  1
  O  O369  1  0.86972346  0.61913116  0.36850073  1
  O  O370  1  0.86811683  0.62140837  0.86463644  1
  O  O371  1  0.12770916  0.39198292  0.12317967  1
  O  O372  1  0.12232926  0.37220959  0.63945128  1
  O  O373  1  0.13577686  0.87741930  0.13170563  1
  O  O374  1  0.13603219  0.88248462  0.61870884  1
  O  O375  1  0.63373361  0.38396368  0.13657352  1
  O  O376  1  0.61667655  0.38610072  0.63229715  1
  O  O377  1  0.63341164  0.88578944  0.11974435  1
  O  O378  1  0.62840393  0.87934322  0.62834105  1
  O  O379  1  0.11194337  0.24389756  0.25966164  1
  O  O380  1  0.12733927  0.26400870  0.76409716  1
  O  O381  1  0.12428212  0.76159657  0.25128128  1
  O  O382  1  0.11400298  0.74275508  0.75003528  1
  O  O383  1  0.61803100  0.25699828  0.25268708  1
  O  O384  1  0.61973255  0.26287408  0.74498993  1
  O  O385  1  0.63330665  0.74796480  0.26016764  1
  O  O386  1  0.63371845  0.75525833  0.75638298  1
  O  O387  1  0.38115346  0.24362021  0.24594314  1
  O  O388  1  0.38471903  0.25536949  0.74926514  1
  O  O389  1  0.37442572  0.74582215  0.23627598  1
  O  O390  1  0.37159648  0.73378078  0.75203840  1
  O  O391  1  0.88113497  0.24114135  0.24845011  1
  O  O392  1  0.86742836  0.23821816  0.74714686  1
  O  O393  1  0.87725785  0.74280921  0.23842918  1
  O  O394  1  0.88154520  0.74177636  0.74282611  1
  O  O395  1  0.38670561  0.49148238  0.50008633  1
  O  O396  1  0.38611730  0.50866519  0.99571636  1
  O  O397  1  0.38209420  0.98811248  0.49599315  1
  O  O398  1  0.38603887  0.99310154  0.99469089  1
  O  O399  1  0.88179154  0.49607535  0.49577932  1
  O  O400  1  0.87457601  0.49576671  0.99288686  1
  O  O401  1  0.87824159  1.00259435  0.48768859  1
  O  O402  1  0.88403164  0.99432192  0.99300279  1
  O  O403  1  0.11318374  -0.00281200  0.00341369  1
  O  O404  1  0.11432955  0.00280916  0.51036683  1
  O  O405  1  0.12241317  0.50928108  0.00926811  1
  O  O406  1  0.11080156  0.50268158  0.49852286  1
  O  O407  1  0.61401794  -0.00094254  0.00421853  1
  O  O408  1  0.61857196  0.00335652  0.50296213  1
  O  O409  1  0.62037424  0.50765386  0.00689221  1
  O  O410  1  0.61709300  0.50234728  0.50552086  1
  O  O411  1  0.36922389  0.36550204  0.12914421  1
  O  O412  1  0.37438366  0.37505454  0.61300873  1
  O  O413  1  0.37103436  0.86736709  0.11635753  1
  O  O414  1  0.37039952  0.87315217  0.61711812  1
  O  O415  1  0.86980951  0.37249683  0.12045630  1
  O  O416  1  0.87601277  0.37308317  0.61255957  1
  O  O417  1  0.87013960  0.86934206  0.11740874  1
  O  O418  1  0.87075155  0.86108228  0.62960372  1
  O  O419  1  0.13080023  0.13021334  0.37479684  1
  O  O420  1  0.11473353  0.14230572  0.87624164  1
  O  O421  1  0.12929786  0.62988226  0.38889312  1
  O  O422  1  0.13348761  0.62595231  0.88525454  1
  O  O423  1  0.62684226  0.13283344  0.37939868  1
  O  O424  1  0.63784054  0.12273898  0.87499992  1
  O  O425  1  0.63349126  0.63048931  0.37703600  1
  O  O426  1  0.63003544  0.62902599  0.87841819  1
