# generated using pymatgen
data_V85Zn86O256
_symmetry_space_group_name_H-M   'P 1'
_cell_length_a   16.91847211
_cell_length_b   16.91981789
_cell_length_c   16.91057736
_cell_angle_alpha   90.02430656
_cell_angle_beta   90.06423031
_cell_angle_gamma   90.02402881
_symmetry_Int_Tables_number   1
_chemical_formula_structural   V85Zn86O256
_chemical_formula_sum   'V85 Zn86 O256'
_cell_volume   4840.77513904
_cell_formula_units_Z   1
loop_
 _symmetry_equiv_pos_site_id
 _symmetry_equiv_pos_as_xyz
  1  'x, y, z'
loop_
 _atom_site_type_symbol
 _atom_site_label
 _atom_site_symmetry_multiplicity
 _atom_site_fract_x
 _atom_site_fract_y
 _atom_site_fract_z
 _atom_site_occupancy
  V  V0  1  0.37332712  0.62926292  0.24827583  1
  V  V1  1  0.74452003  0.49596306  0.75216906  1
  V  V2  1  0.12455928  0.87147006  0.24865480  1
  V  V3  1  0.62156414  0.13005035  -0.00237811  1
  V  V4  1  0.49972792  0.62907842  0.62888635  1
  V  V5  1  -0.00879376  0.37826365  0.36908393  1
  V  V6  1  0.62144763  0.62196541  0.49766814  1
  V  V7  1  0.50585410  0.00178196  0.50666240  1
  V  V8  1  0.62738404  0.25650972  0.86313218  1
  V  V9  1  0.38444524  0.25591338  0.62609174  1
  V  V10  1  0.49816416  0.11672508  0.11932981  1
  V  V11  1  0.37528396  0.37982770  0.00087748  1
  V  V12  1  0.37227365  0.25385909  0.12488079  1
  V  V13  1  0.61433813  0.86852333  0.74846243  1
  V  V14  1  0.12899952  0.49398427  0.11876418  1
  V  V15  1  0.11570610  0.62092614  -0.00065355  1
  V  V16  1  0.00505981  -0.00017335  0.49310637  1
  V  V17  1  0.37384345  0.75360722  0.63369057  1
  V  V18  1  0.87439463  0.62441527  0.74864107  1
  V  V19  1  0.63158908  0.87963167  0.24939340  1
  V  V20  1  0.73863953  0.37203361  0.62972494  1
  V  V21  1  0.49786885  0.37162411  0.86543838  1
  V  V22  1  0.75594671  0.86215082  0.12270563  1
  V  V23  1  0.37495608  0.00028152  0.37557356  1
  V  V24  1  0.74970110  0.37023982  0.11729977  1
  V  V25  1  0.12747952  0.12861256  0.50087275  1
  V  V26  1  0.13400265  -0.00660610  0.62797622  1
  V  V27  1  0.87037077  0.25287426  0.62114562  1
  V  V28  1  0.49634093  0.87346825  0.89795716  1
  V  V29  1  0.12388060  0.62572635  0.49848737  1
  V  V30  1  0.49300051  0.49536845  0.50082554  1
  V  V31  1  0.87293203  0.12417178  0.74847007  1
  V  V32  1  0.24928626  0.62107864  0.37032087  1
  V  V33  1  0.25089596  0.12405869  0.87016323  1
  V  V34  1  0.24829833  0.75380373  0.50450450  1
  V  V35  1  -0.00121347  0.25299577  0.74921032  1
  V  V36  1  0.12467260  0.12769570  -0.00016411  1
  V  V37  1  0.49626968  0.36725517  0.37868311  1
  V  V38  1  -0.00073363  0.37917323  0.88237539  1
  V  V39  1  0.62609505  0.49820364  0.12788454  1
  V  V40  1  0.87600599  0.75358383  0.61893799  1
  V  V41  1  0.37170227  0.49503654  0.37127009  1
  V  V42  1  0.74716902  0.87966594  0.62716048  1
  V  V43  1  0.37195065  0.87635153  0.50752017  1
  V  V44  1  0.25022234  0.12541545  0.37397694  1
  V  V45  1  0.87242720  0.61203628  0.24838802  1
  V  V46  1  0.49845541  0.49875791  -0.00267392  1
  V  V47  1  0.62238999  0.13029905  0.48575294  1
  V  V48  1  0.25516644  0.49912362  0.75227511  1
  V  V49  1  0.86575442  0.11592679  0.26694124  1
  V  V50  1  -0.01048908  0.74996268  0.23892242  1
  V  V51  1  0.00250210  0.87555297  0.87001224  1
  V  V52  1  0.87292620  0.86210450  0.00073656  1
  V  V53  1  0.87027646  0.23954920  0.11745753  1
  V  V54  1  0.25457060  0.37636231  0.61519388  1
  V  V55  1  0.12822720  0.75520954  0.87661405  1
  V  V56  1  0.63565451  0.00211584  0.12018564  1
  V  V57  1  0.12432499  0.37691475  0.74854083  1
  V  V58  1  0.63033154  0.63185331  0.00330973  1
  V  V59  1  -0.00897661  0.49998297  0.49460353  1
  V  V60  1  0.50315243  0.24583823  0.25044253  1
  V  V61  1  0.62380831  0.37017228  0.25427274  1
  V  V62  1  0.26415699  0.86862084  0.12572445  1
  V  V63  1  0.75140154  0.63336994  0.87939437  1
  V  V64  1  0.00088917  -0.00159530  -0.00180337  1
  V  V65  1  0.75076321  0.12787873  0.88186553  1
  V  V66  1  0.74918295  0.74509289  0.49869604  1
  V  V67  1  0.12453764  0.25302066  0.37278523  1
  V  V68  1  0.74226897  0.25141358  0.48360576  1
  V  V69  1  0.85011253  0.91251426  0.47989742  1
  V  V70  1  0.49538869  0.62963512  0.12521808  1
  V  V71  1  0.13852787  0.38177549  0.24738501  1
  V  V72  1  0.74409623  0.00069084  0.74808890  1
  V  V73  1  0.38016040  0.62505311  0.75663867  1
  V  V74  1  0.24856020  0.25599748  0.00094268  1
  V  V75  1  0.87663288  0.50107723  0.88602141  1
  V  V76  1  0.12432685  0.50105387  0.62414211  1
  V  V77  1  0.50138016  0.87220721  0.37573648  1
  V  V78  1  0.00043503  0.12582030  0.62414154  1
  V  V79  1  0.25316910  0.62042689  0.87739913  1
  V  V80  1  0.26225668  0.74635551  0.00774562  1
  V  V81  1  0.50716664  0.12495945  0.63531685  1
  V  V82  1  0.12791404  -0.00097416  0.12536482  1
  V  V83  1  0.12276667  0.74989710  0.37269657  1
  V  V84  1  -0.00090134  0.62506247  0.62363700  1
  Zn  Zn85  1  -0.00641061  0.61879357  0.11867072  1
  Zn  Zn86  1  -0.00148249  0.24903684  0.24555835  1
  Zn  Zn87  1  0.13512859  0.87022476  0.74546658  1
  Zn  Zn88  1  0.62590678  0.75048022  0.87456273  1
  Zn  Zn89  1  0.87418242  0.37288753  0.00165868  1
  Zn  Zn90  1  -0.00176606  0.12321444  0.12868318  1
  Zn  Zn91  1  0.38862585  0.00295003  0.88287696  1
  Zn  Zn92  1  0.62557078  0.74667824  0.37173939  1
  Zn  Zn93  1  0.37737634  0.12885301  0.75286908  1
  Zn  Zn94  1  0.49832034  0.75305462  0.24498876  1
  Zn  Zn95  1  0.75602333  0.48939921  0.25953613  1
  Zn  Zn96  1  0.75818928  0.61365136  0.37901676  1
  Zn  Zn97  1  0.87475622  -0.00148542  0.87347149  1
  Zn  Zn98  1  0.25964400  -0.00893687  0.74780531  1
  Zn  Zn99  1  0.00240319  0.75125316  0.74694506  1
  Zn  Zn100  1  0.12440434  0.25411690  0.87463982  1
  Zn  Zn101  1  0.25024800  -0.00248041  0.25047642  1
  Zn  Zn102  1  -0.00820784  0.87660968  0.37177369  1
  Zn  Zn103  1  0.61918771  0.49582985  0.63112377  1
  Zn  Zn104  1  0.25626734  0.25652357  0.49756478  1
  Zn  Zn105  1  0.37432171  0.12324458  0.24825680  1
  Zn  Zn106  1  0.86685450  0.37945745  0.49191138  1
  Zn  Zn107  1  0.18832827  0.18891500  0.18800907  1
  Zn  Zn108  1  0.18928182  0.19138183  0.68600305  1
  Zn  Zn109  1  0.18454315  0.68248800  0.18526587  1
  Zn  Zn110  1  0.18931633  0.68893699  0.68926211  1
  Zn  Zn111  1  0.69079684  0.18468425  0.19070258  1
  Zn  Zn112  1  0.68451309  0.18577322  0.68579096  1
  Zn  Zn113  1  0.68756533  0.68844363  0.19058032  1
  Zn  Zn114  1  0.68783453  0.68708581  0.68743951  1
  Zn  Zn115  1  0.31521464  0.31056612  0.31138823  1
  Zn  Zn116  1  0.31540226  0.31009862  0.81103323  1
  Zn  Zn117  1  0.31238392  0.81015963  0.31471146  1
  Zn  Zn118  1  0.31422940  0.81568937  0.81636030  1
  Zn  Zn119  1  0.81391832  0.30602710  0.30210770  1
  Zn  Zn120  1  0.81186456  0.31222997  0.81365481  1
  Zn  Zn121  1  0.80838347  0.80913856  0.31113330  1
  Zn  Zn122  1  0.81568985  0.81310580  0.81023468  1
  Zn  Zn123  1  0.18267365  0.44101089  0.43492405  1
  Zn  Zn124  1  0.18822796  0.43722923  0.93716963  1
  Zn  Zn125  1  0.18710425  0.93706600  0.43720684  1
  Zn  Zn126  1  0.22074243  0.94908028  0.95175327  1
  Zn  Zn127  1  0.68223598  0.43712618  0.43741594  1
  Zn  Zn128  1  0.68569324  0.44032475  0.93761972  1
  Zn  Zn129  1  0.68122180  0.94002149  0.43936133  1
  Zn  Zn130  1  0.68531730  0.93962101  0.93678931  1
  Zn  Zn131  1  0.31507077  0.06286820  0.05801312  1
  Zn  Zn132  1  0.31706266  0.06954154  0.56290762  1
  Zn  Zn133  1  0.30899368  0.55857632  0.06653689  1
  Zn  Zn134  1  0.31370347  0.56456806  0.56127424  1
  Zn  Zn135  1  0.81243357  0.05611962  0.06015837  1
  Zn  Zn136  1  0.80390193  0.06429535  0.55079191  1
  Zn  Zn137  1  0.81101373  0.56324450  0.06913729  1
  Zn  Zn138  1  0.81025391  0.56030505  0.56480193  1
  Zn  Zn139  1  0.43543339  0.43939165  0.18828560  1
  Zn  Zn140  1  0.43524596  0.43994526  0.68780529  1
  Zn  Zn141  1  0.44220013  0.93990231  0.18899955  1
  Zn  Zn142  1  0.43322791  0.94375291  0.69290294  1
  Zn  Zn143  1  0.94344426  0.43450621  0.18172010  1
  Zn  Zn144  1  0.93183527  0.43789569  0.68815449  1
  Zn  Zn145  1  0.93500548  0.94022899  0.18745657  1
  Zn  Zn146  1  0.93791829  0.94006366  0.68176795  1
  Zn  Zn147  1  0.05852922  0.06487554  0.30841345  1
  Zn  Zn148  1  0.06797060  0.06450194  0.81228160  1
  Zn  Zn149  1  0.05937391  0.56121236  0.30723511  1
  Zn  Zn150  1  0.06258463  0.56357115  0.81237992  1
  Zn  Zn151  1  0.56201710  0.05829088  0.30827896  1
  Zn  Zn152  1  0.56566833  0.05507915  0.81569271  1
  Zn  Zn153  1  0.56048037  0.55904825  0.31330311  1
  Zn  Zn154  1  0.56326884  0.56092243  0.81638020  1
  Zn  Zn155  1  0.43533631  0.18912844  0.44259018  1
  Zn  Zn156  1  0.43864014  0.19142109  0.93713484  1
  Zn  Zn157  1  0.43540832  0.68776999  0.43893369  1
  Zn  Zn158  1  0.44352755  0.69162022  0.93514849  1
  Zn  Zn159  1  0.93789857  0.19094218  0.43791843  1
  Zn  Zn160  1  0.93787055  0.18849210  0.93801067  1
  Zn  Zn161  1  0.93702965  0.68914745  0.43115473  1
  Zn  Zn162  1  0.93870365  0.68913640  0.93442096  1
  Zn  Zn163  1  0.05930234  0.31334968  0.06607178  1
  Zn  Zn164  1  0.06216456  0.31508610  0.55923203  1
  Zn  Zn165  1  0.06719702  0.81238832  0.05981377  1
  Zn  Zn166  1  0.05708484  0.81755828  0.55734699  1
  Zn  Zn167  1  0.56254635  0.30782957  0.06086924  1
  Zn  Zn168  1  0.56226581  0.31093014  0.56150479  1
  Zn  Zn169  1  0.56659086  0.81058927  0.06574745  1
  Zn  Zn170  1  0.56273002  0.81102633  0.56590883  1
  O  O171  1  0.12540239  0.11623970  0.11939599  1
  O  O172  1  0.12121370  0.12222450  0.61755275  1
  O  O173  1  0.12137447  0.61541169  0.11518086  1
  O  O174  1  0.11974072  0.62145594  0.61900061  1
  O  O175  1  0.62086689  0.12040210  0.11842533  1
  O  O176  1  0.61048363  0.13267317  0.61427740  1
  O  O177  1  0.62043322  0.61593321  0.12255721  1
  O  O178  1  0.61563218  0.62385121  0.61771515  1
  O  O179  1  0.38222393  0.38311675  0.37083642  1
  O  O180  1  0.38987456  0.36832544  0.88341845  1
  O  O181  1  0.38105145  0.88012784  0.38528693  1
  O  O182  1  0.39495995  0.86991415  0.87630248  1
  O  O183  1  0.88762971  0.36730789  0.37189681  1
  O  O184  1  0.88050637  0.38318476  0.87666104  1
  O  O185  1  0.87226421  0.87081058  0.38626689  1
  O  O186  1  0.88436740  0.87620342  0.88076857  1
  O  O187  1  0.25717062  0.00672786  0.37485548  1
  O  O188  1  0.22646249  0.02167225  0.86274614  1
  O  O189  1  0.25822885  0.50944364  0.38178647  1
  O  O190  1  0.24695500  0.51203791  0.86842842  1
  O  O191  1  0.78076399  -0.00940705  0.44810528  1
  O  O192  1  0.75238641  0.00833540  0.86591469  1
  O  O193  1  0.74418590  0.50094927  0.37138121  1
  O  O194  1  0.75696722  0.50578768  0.86939009  1
  O  O195  1  0.23032114  0.50506454  0.12947701  1
  O  O196  1  0.24678884  0.49607342  0.63094006  1
  O  O197  1  0.23994899  0.99100880  0.12827235  1
  O  O198  1  0.23744670  1.00939910  0.62362729  1
  O  O199  1  0.74081225  0.49089666  0.13322127  1
  O  O200  1  0.74852330  0.48984366  0.63276878  1
  O  O201  1  0.73937048  0.99291706  0.12383454  1
  O  O202  1  0.75341773  0.98780058  0.63015599  1
  O  O203  1  0.00955633  0.37122388  0.25683365  1
  O  O204  1  0.00288653  0.37101329  0.75444549  1
  O  O205  1  0.00433213  0.86537094  0.24906017  1
  O  O206  1  0.00341677  0.87630607  0.76017674  1
  O  O207  1  0.50371892  0.36623295  0.25466623  1
  O  O208  1  0.49819000  0.38514375  0.76694357  1
  O  O209  1  0.50674329  0.87316106  0.25945078  1
  O  O210  1  0.51446025  0.87618770  0.74249753  1
  O  O211  1  0.49774699  0.13102058  0.24263566  1
  O  O212  1  0.50634821  0.12101104  0.73795219  1
  O  O213  1  0.49338728  0.62538817  0.24267393  1
  O  O214  1  0.49142359  0.61765562  0.74402244  1
  O  O215  1  0.99055072  0.13016669  0.24676693  1
  O  O216  1  0.99488243  0.13211062  0.74407714  1
  O  O217  1  0.99125950  0.63503594  0.24793773  1
  O  O218  1  0.99333785  0.62632129  0.74144226  1
  O  O219  1  0.37005123  0.25934147  0.00631571  1
  O  O220  1  0.37174557  0.24862032  0.51782276  1
  O  O221  1  0.36059339  0.73962614  0.00102862  1
  O  O222  1  0.36783862  0.75696349  0.50812365  1
  O  O223  1  0.87486808  0.25194752  0.01210326  1
  O  O224  1  0.86138933  0.25245972  0.50523722  1
  O  O225  1  0.88034476  0.76252403  -0.00098171  1
  O  O226  1  0.86651215  0.74263796  0.50919864  1
  O  O227  1  0.12984061  0.24785396  0.49040940  1
  O  O228  1  0.13323847  0.24835044  1.00301543  1
  O  O229  1  0.13022721  0.74776597  0.49513752  1
  O  O230  1  0.13094198  0.73872681  0.99275364  1
  O  O231  1  0.63348612  0.24681543  0.49596477  1
  O  O232  1  0.62389695  0.23695573  0.99162854  1
  O  O233  1  0.63172564  0.74053849  0.50103201  1
  O  O234  1  0.62636986  0.73467374  1.00125466  1
  O  O235  1  0.49123187  0.23976877  0.12996813  1
  O  O236  1  0.49281671  0.24232423  0.62307372  1
  O  O237  1  0.50287731  0.73378744  0.12425098  1
  O  O238  1  0.48890422  0.73706891  0.61952396  1
  O  O239  1  0.98540530  0.24777338  0.12428133  1
  O  O240  1  0.99144894  0.24710329  0.62688829  1
  O  O241  1  1.00773990  0.74680265  0.13694190  1
  O  O242  1  0.99228838  0.74606835  0.62294106  1
  O  O243  1  0.01283706  0.25909731  0.37641695  1
  O  O244  1  -0.00176324  0.26028960  0.86610121  1
  O  O245  1  0.00779975  0.75375861  0.36366894  1
  O  O246  1  0.00899218  0.75792783  0.87170236  1
  O  O247  1  0.49075153  0.25856825  0.36662835  1
  O  O248  1  0.51074629  0.26313868  0.87731867  1
  O  O249  1  0.50152294  0.76398869  0.38032837  1
  O  O250  1  0.50946028  0.76488055  0.87968238  1
  O  O251  1  0.24561936  0.12722947  0.48817236  1
  O  O252  1  0.24270447  0.13902762  0.99356899  1
  O  O253  1  0.24445898  0.63166088  0.49140208  1
  O  O254  1  0.24324273  0.62962928  0.99508271  1
  O  O255  1  0.73664850  0.14447811  0.50592781  1
  O  O256  1  0.74560964  0.12025725  0.98599628  1
  O  O257  1  0.73956675  0.62796274  0.50234073  1
  O  O258  1  0.74164426  0.61534052  0.99237354  1
  O  O259  1  0.25891425  0.36456214  -0.00725294  1
  O  O260  1  0.24570883  0.38025542  0.51236045  1
  O  O261  1  0.24024721  0.85279075  0.01208877  1
  O  O262  1  0.25971142  0.86674264  0.49587187  1
  O  O263  1  0.74862364  0.37941946  0.01369920  1
  O  O264  1  0.74684628  0.36498030  0.50749679  1
  O  O265  1  0.75910031  0.88105931  0.01053637  1
  O  O266  1  0.74800892  0.86111258  0.51007176  1
  O  O267  1  0.12527390  0.48733333  0.24478293  1
  O  O268  1  0.13565984  0.49866495  0.74353092  1
  O  O269  1  0.12464791  0.99086185  0.24264889  1
  O  O270  1  0.12497514  1.00073107  0.73370165  1
  O  O271  1  0.61863067  0.48980975  0.23884969  1
  O  O272  1  0.63952592  0.50550715  0.74961384  1
  O  O273  1  0.62223914  0.98708689  0.24110235  1
  O  O274  1  0.63794526  0.98765446  0.75090800  1
  O  O275  1  0.37453948  0.00024346  0.26488653  1
  O  O276  1  0.37365157  0.00954266  0.76146440  1
  O  O277  1  0.37972012  0.51007209  0.26371929  1
  O  O278  1  0.36246493  0.50961501  0.74675744  1
  O  O279  1  0.87982081  0.01620404  0.24898268  1
  O  O280  1  0.86562510  0.00610065  0.74855214  1
  O  O281  1  0.87769383  0.50882432  0.24739771  1
  O  O282  1  0.86434839  0.50690224  0.75626036  1
  O  O283  1  0.12097541  0.37074157  0.36486210  1
  O  O284  1  0.11676022  0.37683511  0.86661138  1
  O  O285  1  0.12593864  0.87037149  0.36157851  1
  O  O286  1  0.12026241  0.86339505  0.87867499  1
  O  O287  1  0.61227520  0.37721852  0.36103126  1
  O  O288  1  0.61757746  0.36314860  0.88130562  1
  O  O289  1  0.61956012  0.87665670  0.36841399  1
  O  O290  1  0.61955850  0.87339530  0.86508720  1
  O  O291  1  0.38197805  0.12870867  0.12435389  1
  O  O292  1  0.38813542  0.13558431  0.62684059  1
  O  O293  1  0.38268845  0.61519744  0.13586789  1
  O  O294  1  0.38002524  0.63173471  0.63375004  1
  O  O295  1  0.87418358  0.13256274  0.12124550  1
  O  O296  1  0.87634600  0.13719679  0.62774593  1
  O  O297  1  0.87780949  0.62492796  0.13896704  1
  O  O298  1  0.87922546  0.63184058  0.62867764  1
  O  O299  1  0.26389082  0.24458164  0.11773408  1
  O  O300  1  0.25819770  0.26163229  0.62209317  1
  O  O301  1  0.24799276  0.75136540  0.11595038  1
  O  O302  1  0.25786954  0.74301255  0.61222916  1
  O  O303  1  0.76105230  0.25463873  0.12621266  1
  O  O304  1  0.75436281  0.25658701  0.62339304  1
  O  O305  1  0.74574840  0.76359856  0.12196592  1
  O  O306  1  0.75657417  0.75526126  0.61819633  1
  O  O307  1  0.24285954  0.24457785  0.37605612  1
  O  O308  1  0.24762032  0.24472058  0.88233790  1
  O  O309  1  0.24472510  0.74288904  0.38602035  1
  O  O310  1  0.24570707  0.74036889  0.88590188  1
  O  O311  1  0.74976150  0.25767053  0.38564931  1
  O  O312  1  0.73788506  0.24409270  0.87226598  1
  O  O313  1  0.74705150  0.74442491  0.38854923  1
  O  O314  1  0.75212433  0.73649219  0.87226536  1
  O  O315  1  0.00739163  0.11589022  0.00085221  1
  O  O316  1  0.00813530  0.12169592  0.50479156  1
  O  O317  1  0.01184409  0.62549616  -0.00347007  1
  O  O318  1  0.00434041  0.61956210  0.50196567  1
  O  O319  1  0.50635044  0.12802159  0.00778653  1
  O  O320  1  0.50443296  0.12006280  0.50690720  1
  O  O321  1  0.50525157  0.61601810  0.00457263  1
  O  O322  1  0.50338027  0.61887532  0.50711539  1
  O  O323  1  0.50380783  0.38175896  0.49023650  1
  O  O324  1  0.49416849  0.38043181  0.99561592  1
  O  O325  1  0.49559918  0.88288719  0.49752887  1
  O  O326  1  0.50323648  0.87615376  0.99758847  1
  O  O327  1  0.99804379  0.38382957  0.49029882  1
  O  O328  1  0.99935335  0.37305039  0.98574676  1
  O  O329  1  0.98969517  0.88664837  0.49440361  1
  O  O330  1  0.99738605  0.87988873  0.99104200  1
  O  O331  1  0.49222973  0.49044161  0.38172392  1
  O  O332  1  0.50893457  0.48707326  0.88958907  1
  O  O333  1  0.49298389  0.99043146  0.38248583  1
  O  O334  1  0.50440576  0.98107411  0.87585840  1
  O  O335  1  1.00634121  0.49096627  0.38289671  1
  O  O336  1  0.98867946  0.49191958  0.86579321  1
  O  O337  1  1.00876925  0.99838988  0.38853837  1
  O  O338  1  1.00303954  0.99263577  0.88086098  1
  O  O339  1  0.01216489  -0.00302659  0.11585704  1
  O  O340  1  0.01512583  0.00842924  0.62054461  1
  O  O341  1  0.01883303  0.50279436  0.12927283  1
  O  O342  1  0.00392031  0.50450949  0.61851489  1
  O  O343  1  0.51021224  0.01164854  0.12933501  1
  O  O344  1  0.49290154  0.01516311  0.61829840  1
  O  O345  1  0.50570247  0.50580370  0.11636469  1
  O  O346  1  0.49719231  0.50910213  0.61821284  1
  O  O347  1  0.23711054  0.37266982  0.25324518  1
  O  O348  1  0.24666619  0.38367843  0.74474561  1
  O  O349  1  0.24233965  0.87171982  0.24398936  1
  O  O350  1  0.24818077  0.87680493  0.75203565  1
  O  O351  1  0.73902672  0.37056894  0.24015154  1
  O  O352  1  0.75553250  0.38346690  0.74200894  1
  O  O353  1  0.74511695  0.87193856  0.23733022  1
  O  O354  1  0.74676755  0.88130395  0.74437056  1
  O  O355  1  0.25185058  0.12273768  0.26203201  1
  O  O356  1  0.25206955  0.13059520  0.75877275  1
  O  O357  1  0.25517776  0.63046376  0.26279905  1
  O  O358  1  0.25657714  0.61952431  0.75817559  1
  O  O359  1  0.76470800  0.12581384  0.25180196  1
  O  O360  1  0.75125322  0.11762971  0.75516541  1
  O  O361  1  0.76310371  0.62404322  0.24977490  1
  O  O362  1  0.75584556  0.61930273  0.75701545  1
  O  O363  1  0.36822359  0.11727733  0.37658933  1
  O  O364  1  0.36550311  0.12750455  0.87567695  1
  O  O365  1  0.36795106  0.61834129  0.37155698  1
  O  O366  1  0.37006737  0.63017143  0.86482542  1
  O  O367  1  0.87643614  0.12846890  0.36677849  1
  O  O368  1  0.86687116  0.12572325  0.86760913  1
  O  O369  1  0.87502483  0.63053769  0.35509428  1
  O  O370  1  0.87040057  0.61920162  0.87054802  1
  O  O371  1  0.12378047  0.38184003  0.13539149  1
  O  O372  1  0.13250200  0.38129439  0.62962478  1
  O  O373  1  0.13150679  0.87882872  0.13434117  1
  O  O374  1  0.12184932  0.88992421  0.62272522  1
  O  O375  1  0.62763869  0.37795684  0.13155379  1
  O  O376  1  0.63408169  0.37530408  0.62567615  1
  O  O377  1  0.63491761  0.88151518  0.12859895  1
  O  O378  1  0.63430833  0.86987830  0.63607453  1
  O  O379  1  0.12381392  0.26003611  0.25539108  1
  O  O380  1  0.11502736  0.25920872  0.74768755  1
  O  O381  1  0.11718062  0.75436993  0.25273997  1
  O  O382  1  0.12340049  0.74936651  0.76073672  1
  O  O383  1  0.61133666  0.25499748  0.24275962  1
  O  O384  1  0.62529094  0.24862266  0.76436642  1
  O  O385  1  0.62107827  0.76207926  0.25247720  1
  O  O386  1  0.63190591  0.76438369  0.75269495  1
  O  O387  1  0.38405483  0.24764052  0.24152797  1
  O  O388  1  0.37356821  0.24831553  0.73273629  1
  O  O389  1  0.37969563  0.73470137  0.25878653  1
  O  O390  1  0.36940376  0.74143384  0.73919934  1
  O  O391  1  0.87726317  0.23774835  0.23599931  1
  O  O392  1  0.87988266  0.24570252  0.74172360  1
  O  O393  1  0.88751835  0.74914205  0.24923985  1
  O  O394  1  0.87668840  0.74553409  0.73564575  1
  O  O395  1  0.38590073  0.50627754  0.49037373  1
  O  O396  1  0.38088225  0.48850608  1.00472619  1
  O  O397  1  0.38134312  0.99452014  0.49416776  1
  O  O398  1  0.32944030  0.98796328  0.97910606  1
  O  O399  1  0.88667665  0.49860062  0.50377133  1
  O  O400  1  0.87187385  0.49883814  0.98919500  1
  O  O401  1  0.89942931  1.00284572  0.52500442  1
  O  O402  1  0.89025955  0.99322722  0.99756009  1
  O  O403  1  0.12119120  0.00390751  0.00691671  1
  O  O404  1  0.12210855  0.00546190  0.50858758  1
  O  O405  1  0.12863300  0.50443439  0.00896702  1
  O  O406  1  0.11473820  0.50638383  0.50578208  1
  O  O407  1  0.62881329  0.01466049  0.00692958  1
  O  O408  1  0.61072593  0.00833307  0.50163986  1
  O  O409  1  0.61785099  0.50459656  0.01175571  1
  O  O410  1  0.61071550  0.50588958  0.50485760  1
  O  O411  1  0.38112928  0.36569188  0.11618599  1
  O  O412  1  0.36963559  0.36695520  0.62756127  1
  O  O413  1  0.36328801  0.87845096  0.13344519  1
  O  O414  1  0.38231405  0.86816456  0.61597913  1
  O  O415  1  0.86696018  0.36547936  0.12535205  1
  O  O416  1  0.86666088  0.36413099  0.62141424  1
  O  O417  1  0.86309140  0.87895643  0.11818375  1
  O  O418  1  0.86595932  0.86914506  0.61512346  1
  O  O419  1  0.13088600  0.13378823  0.37758129  1
  O  O420  1  0.12657016  0.13506302  0.88426193  1
  O  O421  1  0.13107056  0.62837056  0.37772689  1
  O  O422  1  0.13291076  0.63070374  0.88038721  1
  O  O423  1  0.61861603  0.11959608  0.38594494  1
  O  O424  1  0.62905685  0.13361241  0.87865508  1
  O  O425  1  0.61988166  0.62585037  0.38815256  1
  O  O426  1  0.63366635  0.62468661  0.88459005  1
