# generated using pymatgen
data_V85Zn86O256
_symmetry_space_group_name_H-M   'P 1'
_cell_length_a   16.93367311
_cell_length_b   16.92407078
_cell_length_c   16.91819384
_cell_angle_alpha   90.01274535
_cell_angle_beta   89.97477581
_cell_angle_gamma   89.97133850
_symmetry_Int_Tables_number   1
_chemical_formula_structural   V85Zn86O256
_chemical_formula_sum   'V85 Zn86 O256'
_cell_volume   4848.52784468
_cell_formula_units_Z   1
loop_
 _symmetry_equiv_pos_site_id
 _symmetry_equiv_pos_as_xyz
  1  'x, y, z'
loop_
 _atom_site_type_symbol
 _atom_site_label
 _atom_site_symmetry_multiplicity
 _atom_site_fract_x
 _atom_site_fract_y
 _atom_site_fract_z
 _atom_site_occupancy
  V  V0  1  0.37898357  -0.00384448  0.36633757  1
  V  V1  1  0.35728183  0.25407005  0.11421080  1
  V  V2  1  0.87602669  0.12347287  0.24994179  1
  V  V3  1  0.75077497  0.12516032  0.87332148  1
  V  V4  1  0.00419334  0.24741305  0.25069920  1
  V  V5  1  0.49971403  0.13654054  0.12527074  1
  V  V6  1  0.37459947  0.12903791  0.24640031  1
  V  V7  1  0.87894395  0.87349647  -0.00074836  1
  V  V8  1  0.62401767  0.12426052  -0.00030760  1
  V  V9  1  0.13502542  0.87806045  0.24950396  1
  V  V10  1  0.74573664  0.50336593  0.25523140  1
  V  V11  1  0.25788917  -0.00859725  0.75126872  1
  V  V12  1  0.87259875  0.62089572  0.75800202  1
  V  V13  1  0.13606433  0.00074905  0.12375700  1
  V  V14  1  0.62560339  0.50526328  0.62030851  1
  V  V15  1  0.88103891  0.25183431  0.62375043  1
  V  V16  1  0.37544916  0.62114810  0.24939930  1
  V  V17  1  0.51507533  0.61957389  0.12254497  1
  V  V18  1  0.11667992  0.62576985  0.01227237  1
  V  V19  1  0.74922698  0.25182943  -0.00048223  1
  V  V20  1  0.50186569  0.62644306  0.61917066  1
  V  V21  1  0.25118380  0.12250084  0.36938981  1
  V  V22  1  0.62310464  0.74305730  0.87928616  1
  V  V23  1  0.74604224  0.74463791  0.50249805  1
  V  V24  1  0.37422605  0.61827173  0.75366884  1
  V  V25  1  0.25063610  0.63346563  0.88433357  1
  V  V26  1  0.13075812  -0.00442843  0.62851750  1
  V  V27  1  -0.00295047  0.38982419  0.85999307  1
  V  V28  1  0.36933004  0.75475085  0.62750610  1
  V  V29  1  -0.00686945  0.50342555  0.49566065  1
  V  V30  1  0.00082705  0.37805428  0.37479452  1
  V  V31  1  0.49466386  0.37338943  0.37364204  1
  V  V32  1  0.87761212  0.75230630  0.63278757  1
  V  V33  1  0.62278017  0.87612659  0.75816585  1
  V  V34  1  0.50154259  -0.00742323  -0.00709210  1
  V  V35  1  0.49207923  0.24965388  0.75038694  1
  V  V36  1  0.00456040  -0.00227093  -0.00489817  1
  V  V37  1  0.49752506  0.75399285  0.75667691  1
  V  V38  1  -0.00348564  0.75209391  0.24317854  1
  V  V39  1  0.87479444  -0.00020671  0.37575862  1
  V  V40  1  0.74925257  0.87508469  0.12625372  1
  V  V41  1  0.87429545  0.24730696  0.12255094  1
  V  V42  1  0.74371341  0.37869292  0.12569509  1
  V  V43  1  0.26528972  0.12957494  0.87106418  1
  V  V44  1  0.00328033  0.87519193  0.37479286  1
  V  V45  1  0.00429703  0.12687144  0.62911518  1
  V  V46  1  0.12536490  0.49130070  0.62691066  1
  V  V47  1  0.11124513  0.75440053  0.88094880  1
  V  V48  1  0.62254579  0.73932489  0.37891904  1
  V  V49  1  0.62335351  0.12448928  0.49926758  1
  V  V50  1  0.93128530  0.57627927  0.19427774  1
  V  V51  1  0.49056593  0.38037421  0.87559562  1
  V  V52  1  0.12804738  0.62559419  0.50078773  1
  V  V53  1  0.62040390  0.25053447  0.37114268  1
  V  V54  1  0.87741652  -0.00594514  0.87294685  1
  V  V55  1  0.12894100  0.12533067  0.50084843  1
  V  V56  1  0.62084212  0.87678526  0.26041685  1
  V  V57  1  0.76430124  0.62171202  0.37629744  1
  V  V58  1  0.24330223  0.50069736  0.75539606  1
  V  V59  1  0.61735335  0.37669861  0.24806155  1
  V  V60  1  0.87524187  0.38608017  -0.00537324  1
  V  V61  1  0.36950470  0.37818282  0.50358572  1
  V  V62  1  0.37186974  0.24563217  0.62650618  1
  V  V63  1  0.62202194  -0.00007126  0.12589244  1
  V  V64  1  0.37104256  0.75224279  0.12414796  1
  V  V65  1  0.49921609  0.75381337  0.25305391  1
  V  V66  1  0.74881506  0.37705316  0.62426913  1
  V  V67  1  0.11297713  0.86783171  0.75045726  1
  V  V68  1  0.62429572  0.25325802  0.87111668  1
  V  V69  1  0.24921247  0.75713368  0.50146325  1
  V  V70  1  0.74620461  0.74583952  0.00068009  1
  V  V71  1  0.24720815  0.49601617  0.23605482  1
  V  V72  1  0.87760831  0.12913505  0.74997908  1
  V  V73  1  0.38204663  0.87518389  0.49644567  1
  V  V74  1  0.87524277  0.87438906  0.50202814  1
  V  V75  1  0.49621741  0.12410284  0.62781507  1
  V  V76  1  0.00238565  0.12356341  0.12161102  1
  V  V77  1  0.10162321  0.24692649  0.86584937  1
  V  V78  1  0.50702052  0.50357669  -0.00286704  1
  V  V79  1  0.75084172  0.25024069  0.49794071  1
  V  V80  1  0.74966152  -0.00019091  0.25106776  1
  V  V81  1  0.12882700  0.37571269  0.23280778  1
  V  V82  1  0.62574543  -0.00213244  0.62479968  1
  V  V83  1  0.37263485  0.86977444  -0.01002205  1
  V  V84  1  0.00158297  0.63080986  0.63153464  1
  Zn  Zn85  1  0.00176968  -0.00058856  0.50162441  1
  Zn  Zn86  1  0.38464030  -0.00346287  0.86682083  1
  Zn  Zn87  1  0.74902460  0.87364721  0.62698522  1
  Zn  Zn88  1  0.12765244  0.75072735  0.37407150  1
  Zn  Zn89  1  0.87460090  0.74818787  0.12810526  1
  Zn  Zn90  1  0.49944867  0.50397352  0.49798878  1
  Zn  Zn91  1  0.13377418  0.13346398  -0.00307366  1
  Zn  Zn92  1  0.12946156  0.25212091  0.37393751  1
  Zn  Zn93  1  0.35691838  0.39220130  1.00977984  1
  Zn  Zn94  1  0.37086748  0.49747350  0.37499824  1
  Zn  Zn95  1  0.75072002  0.49599579  0.75915385  1
  Zn  Zn96  1  0.74919391  0.12459636  0.37451987  1
  Zn  Zn97  1  0.50133213  -0.00421229  0.49500191  1
  Zn  Zn98  1  0.24928744  0.25094829  0.50152156  1
  Zn  Zn99  1  0.25143452  0.62265439  0.37549851  1
  Zn  Zn100  1  0.74863358  0.61447875  0.88242253  1
  Zn  Zn101  1  0.75085553  -0.00187432  0.74934196  1
  Zn  Zn102  1  0.87301803  0.38066177  0.49156772  1
  Zn  Zn103  1  0.25402181  0.87672602  0.12332629  1
  Zn  Zn104  1  -0.00342680  0.50586851  0.00421008  1
  Zn  Zn105  1  0.62367226  0.37679444  0.74771892  1
  Zn  Zn106  1  0.24700296  0.36935870  0.64098260  1
  Zn  Zn107  1  0.18841524  0.18513700  0.18737854  1
  Zn  Zn108  1  0.19042967  0.18619815  0.69823265  1
  Zn  Zn109  1  0.19039020  0.69104388  0.19165728  1
  Zn  Zn110  1  0.18786304  0.68885516  0.68880025  1
  Zn  Zn111  1  0.68662983  0.18882137  0.18893376  1
  Zn  Zn112  1  0.68770316  0.18768418  0.68736691  1
  Zn  Zn113  1  0.69164410  0.68957738  0.19262089  1
  Zn  Zn114  1  0.68707670  0.68763372  0.68969848  1
  Zn  Zn115  1  0.31174610  0.30881914  0.30753751  1
  Zn  Zn116  1  0.28014951  0.33975865  0.85763036  1
  Zn  Zn117  1  0.31297871  0.81035765  0.31581395  1
  Zn  Zn118  1  0.30675162  0.81157088  0.81256420  1
  Zn  Zn119  1  0.81364101  0.31397443  0.31238474  1
  Zn  Zn120  1  0.81665015  0.31437727  0.81069574  1
  Zn  Zn121  1  0.81239481  0.81087334  0.31436498  1
  Zn  Zn122  1  0.80926773  0.81113590  0.81303429  1
  Zn  Zn123  1  0.18794010  0.43928378  0.43167497  1
  Zn  Zn124  1  0.17503758  0.44601570  0.94059988  1
  Zn  Zn125  1  0.19375117  0.94049242  0.43757926  1
  Zn  Zn126  1  0.19157438  0.93561071  0.93444140  1
  Zn  Zn127  1  0.68442785  0.44000211  0.43824521  1
  Zn  Zn128  1  0.68053376  0.44186524  0.93894979  1
  Zn  Zn129  1  0.68849217  0.93368221  0.43915671  1
  Zn  Zn130  1  0.68967555  0.93393722  0.93626186  1
  Zn  Zn131  1  0.31603586  0.06264741  0.05404567  1
  Zn  Zn132  1  0.31195385  0.05961805  0.56204879  1
  Zn  Zn133  1  0.31769578  0.56720900  0.05945399  1
  Zn  Zn134  1  0.31190815  0.56345318  0.56621213  1
  Zn  Zn135  1  0.81213709  0.06062235  0.06116094  1
  Zn  Zn136  1  0.81125518  0.06321394  0.56183521  1
  Zn  Zn137  1  0.79883947  0.55903018  0.06222188  1
  Zn  Zn138  1  0.81253740  0.56637894  0.56487416  1
  Zn  Zn139  1  0.43665620  0.43704389  0.18403716  1
  Zn  Zn140  1  0.43623270  0.43676823  0.68868125  1
  Zn  Zn141  1  0.43796917  0.94073010  0.18402987  1
  Zn  Zn142  1  0.44051145  0.93309669  0.68254754  1
  Zn  Zn143  1  0.93490048  0.41813892  0.18773554  1
  Zn  Zn144  1  0.93428755  0.44373269  0.67945689  1
  Zn  Zn145  1  0.94158594  0.93645196  0.18503334  1
  Zn  Zn146  1  0.94090462  0.94018112  0.68740887  1
  Zn  Zn147  1  0.06540719  0.05947320  0.31136271  1
  Zn  Zn148  1  0.06457296  0.06054823  0.81137980  1
  Zn  Zn149  1  0.07211652  0.55885110  0.31525283  1
  Zn  Zn150  1  0.06253836  0.56761990  0.81415742  1
  Zn  Zn151  1  0.55675951  0.06603731  0.31077264  1
  Zn  Zn152  1  0.56211776  0.06521792  0.81049655  1
  Zn  Zn153  1  0.56160115  0.56081937  0.31292022  1
  Zn  Zn154  1  0.56503816  0.56139015  0.80740770  1
  Zn  Zn155  1  0.43644337  0.18830390  0.43929281  1
  Zn  Zn156  1  0.43675216  0.18682702  0.93760830  1
  Zn  Zn157  1  0.43594355  0.68891401  0.43574481  1
  Zn  Zn158  1  0.43835807  0.68534646  0.93896874  1
  Zn  Zn159  1  0.94156620  0.18754605  0.43797741  1
  Zn  Zn160  1  0.93752704  0.18736751  0.93838368  1
  Zn  Zn161  1  0.94012292  0.69183709  0.43981893  1
  Zn  Zn162  1  0.93864937  0.69008188  0.93964360  1
  Zn  Zn163  1  0.06379314  0.31103700  0.05131354  1
  Zn  Zn164  1  0.06263395  0.31259245  0.56069313  1
  Zn  Zn165  1  0.06448708  0.81352879  0.06287414  1
  Zn  Zn166  1  0.06353196  0.81371979  0.56482058  1
  Zn  Zn167  1  0.55980721  0.31731838  0.05842539  1
  Zn  Zn168  1  0.56065164  0.31492052  0.55984562  1
  Zn  Zn169  1  0.56017162  0.81188149  0.06592687  1
  Zn  Zn170  1  0.56124670  0.81099102  0.56574471  1
  O  O171  1  0.12001876  0.11842751  0.11903098  1
  O  O172  1  0.12049089  0.12075501  0.62220097  1
  O  O173  1  0.13002246  0.63935307  0.10931280  1
  O  O174  1  0.11774834  0.62285190  0.61733242  1
  O  O175  1  0.61863839  0.12102276  0.12112144  1
  O  O176  1  0.62004951  0.11797432  0.61944447  1
  O  O177  1  0.61293567  0.63169243  0.13073341  1
  O  O178  1  0.61441413  0.61928833  0.63078984  1
  O  O179  1  0.38058021  0.37120449  0.38032990  1
  O  O180  1  0.39123579  0.37139897  0.87184469  1
  O  O181  1  0.37145467  0.88491136  0.38083308  1
  O  O182  1  0.37577465  0.87231395  0.88617042  1
  O  O183  1  0.89306397  0.36943696  0.37415929  1
  O  O184  1  0.88606211  0.36867846  0.88385658  1
  O  O185  1  0.88229052  0.88118795  0.38047294  1
  O  O186  1  0.86947044  0.88687755  0.88084502  1
  O  O187  1  0.26392329  0.01307984  0.37960232  1
  O  O188  1  0.25534111  0.00252927  0.86300430  1
  O  O189  1  0.25281680  0.50482390  0.36281946  1
  O  O190  1  0.23366946  0.52372428  0.86586998  1
  O  O191  1  0.75685853  0.00037606  0.36943428  1
  O  O192  1  0.75912644  0.00785000  0.87520419  1
  O  O193  1  0.74803583  0.50798247  0.36990767  1
  O  O194  1  0.74603472  0.50135361  0.87333441  1
  O  O195  1  0.25661661  0.50363923  0.13689965  1
  O  O196  1  0.24061245  0.50066887  0.63441012  1
  O  O197  1  0.23905498  1.00175454  0.11866147  1
  O  O198  1  0.23930948  1.00504439  0.63687615  1
  O  O199  1  0.74957333  0.48567628  0.13546097  1
  O  O200  1  0.74417914  0.49245534  0.62277846  1
  O  O201  1  0.74226976  0.99571377  0.13069469  1
  O  O202  1  0.73704565  0.99925049  0.62548161  1
  O  O203  1  0.00954702  0.36826357  0.25592135  1
  O  O204  1  -0.01172266  0.38399377  0.76101669  1
  O  O205  1  0.00845210  0.87000409  0.25657710  1
  O  O206  1  0.01424207  0.88039410  0.75354259  1
  O  O207  1  0.50914493  0.37805089  0.25620211  1
  O  O208  1  0.50338421  0.36771582  0.75550681  1
  O  O209  1  0.50895542  0.86633738  0.24384042  1
  O  O210  1  0.50772779  0.86512055  0.74715439  1
  O  O211  1  0.49053947  0.12372561  0.23661805  1
  O  O212  1  0.50503891  0.13295765  0.73627678  1
  O  O213  1  0.49566138  0.62977047  0.24178831  1
  O  O214  1  0.49061292  0.63167455  0.74416302  1
  O  O215  1  0.99647892  0.12703322  0.24216307  1
  O  O216  1  0.99333562  0.12015409  0.73695711  1
  O  O217  1  0.99845304  0.63135394  0.25454876  1
  O  O218  1  0.98923441  0.62312919  0.73960358  1
  O  O219  1  0.37701505  0.24811893  0.01316087  1
  O  O220  1  0.37421458  0.25651856  0.51264144  1
  O  O221  1  0.38515194  0.76271223  0.00827648  1
  O  O222  1  0.36892652  0.75480003  0.50576321  1
  O  O223  1  0.86672336  0.25493772  0.00436074  1
  O  O224  1  0.86697774  0.24903986  0.50605753  1
  O  O225  1  0.86883895  0.75918327  0.00260503  1
  O  O226  1  0.86894117  0.75594167  0.51033143  1
  O  O227  1  0.12686483  0.23679959  0.49972093  1
  O  O228  1  0.12046117  0.24842410  0.97561654  1
  O  O229  1  0.13298080  0.74553078  0.50106474  1
  O  O230  1  0.12136530  0.74638621  0.98811420  1
  O  O231  1  0.63192225  0.24741198  0.49119182  1
  O  O232  1  0.62948932  0.24484824  0.99138283  1
  O  O233  1  0.63289592  0.75723837  0.49116272  1
  O  O234  1  0.63236799  0.76120569  0.99061105  1
  O  O235  1  0.49943647  0.23831032  0.11902697  1
  O  O236  1  0.49644945  0.24369407  0.62973385  1
  O  O237  1  0.49475517  0.74174824  0.13569121  1
  O  O238  1  0.49412453  0.74347233  0.63580511  1
  O  O239  1  0.99487142  0.24258920  0.12830599  1
  O  O240  1  0.98886547  0.24379057  0.61946872  1
  O  O241  1  0.99795126  0.75573693  0.13848634  1
  O  O242  1  0.99152686  0.74069628  0.61954638  1
  O  O243  1  0.00561084  0.25351093  0.36693071  1
  O  O244  1  -0.00215276  0.25438846  0.86668135  1
  O  O245  1  0.00200584  0.76310336  0.36952265  1
  O  O246  1  0.01251231  0.75051462  0.87266599  1
  O  O247  1  0.50808740  0.26102052  0.37970184  1
  O  O248  1  0.50590287  0.25271209  0.86731235  1
  O  O249  1  0.50736874  0.74486983  0.36274058  1
  O  O250  1  0.50550727  0.74488489  0.86426009  1
  O  O251  1  0.24352113  0.12660832  0.49414257  1
  O  O252  1  0.24804570  0.11331824  0.97575561  1
  O  O253  1  0.24316359  0.63412961  0.50170508  1
  O  O254  1  0.24253967  0.62481987  0.98893713  1
  O  O255  1  0.74254686  0.13364324  0.49785109  1
  O  O256  1  0.74395915  0.13050846  0.99433721  1
  O  O257  1  0.75238846  0.63674239  0.49444430  1
  O  O258  1  0.75155857  0.64092724  1.00062868  1
  O  O259  1  0.25647687  0.37631870  -0.03665935  1
  O  O260  1  0.26031177  0.37290499  0.49950766  1
  O  O261  1  0.26844317  0.87811671  0.00182650  1
  O  O262  1  0.25901640  0.86349633  0.49682668  1
  O  O263  1  0.75178280  0.37028847  0.00858651  1
  O  O264  1  0.75227907  0.36848302  0.50650892  1
  O  O265  1  0.75928983  0.86844941  0.00534064  1
  O  O266  1  0.75765408  0.86327532  0.50192005  1
  O  O267  1  0.13834949  0.49360597  0.24689257  1
  O  O268  1  0.13082986  0.51213392  0.73782113  1
  O  O269  1  0.11855011  0.99026866  0.23639943  1
  O  O270  1  0.13095092  0.98873311  0.74673223  1
  O  O271  1  0.63388485  0.48822892  0.25556654  1
  O  O272  1  0.62952758  0.49620679  0.73588109  1
  O  O273  1  0.62731750  0.99404883  0.24815593  1
  O  O274  1  0.62465935  0.99312987  0.74357134  1
  O  O275  1  0.37837077  0.01151774  0.25474713  1
  O  O276  1  0.36234699  -0.01082707  0.74666243  1
  O  O277  1  0.36706353  0.50552028  0.24919031  1
  O  O278  1  0.36797815  0.51437008  0.74563969  1
  O  O279  1  0.87145206  0.00304593  0.25525090  1
  O  O280  1  0.87472468  0.00838544  0.75640419  1
  O  O281  1  0.87229609  0.50692182  0.24456515  1
  O  O282  1  0.87049189  0.51764069  0.74174805  1
  O  O283  1  0.11568707  0.37246309  0.36709328  1
  O  O284  1  0.10070463  0.36709275  0.87600185  1
  O  O285  1  0.11929828  0.87875242  0.36893846  1
  O  O286  1  0.12932450  0.86213785  0.86730562  1
  O  O287  1  0.61703815  0.36895007  0.37027461  1
  O  O288  1  0.61806145  0.36203602  0.87396453  1
  O  O289  1  0.62918149  0.86598948  0.36452319  1
  O  O290  1  0.62798266  0.86706302  0.86371455  1
  O  O291  1  0.38007747  0.13082048  0.12668708  1
  O  O292  1  0.38428520  0.13155003  0.61933346  1
  O  O293  1  0.38325334  0.63389994  0.13477865  1
  O  O294  1  0.38026646  0.63521666  0.63428055  1
  O  O295  1  0.88074032  0.12723258  0.12963214  1
  O  O296  1  0.88240980  0.12956353  0.62955938  1
  O  O297  1  0.87010364  0.62774963  0.12956828  1
  O  O298  1  0.88268449  0.63391529  0.63137090  1
  O  O299  1  0.25817202  0.24511654  0.11755077  1
  O  O300  1  0.25813330  0.25055462  0.62808323  1
  O  O301  1  0.26754466  0.75244336  0.13031810  1
  O  O302  1  0.25946930  0.74573099  0.61755218  1
  O  O303  1  0.75376588  0.25764023  0.12133573  1
  O  O304  1  0.75612073  0.25457772  0.61459522  1
  O  O305  1  0.75049626  0.75857349  0.12042794  1
  O  O306  1  0.75602253  0.75061444  0.61772530  1
  O  O307  1  0.24946710  0.23691391  0.37745403  1
  O  O308  1  0.25250042  0.22878175  0.86110694  1
  O  O309  1  0.24855028  0.74339418  0.38527550  1
  O  O310  1  0.23774119  0.73747633  0.86925938  1
  O  O311  1  0.74492934  0.25099002  0.38545008  1
  O  O312  1  0.74309464  0.24640374  0.87746746  1
  O  O313  1  0.74332459  0.74308533  0.38132784  1
  O  O314  1  0.74167511  0.74864220  0.88441390  1
  O  O315  1  -0.00013730  0.11593828  0.00734468  1
  O  O316  1  0.00861511  0.12166952  0.51053788  1
  O  O317  1  0.01038289  0.62638644  0.00177981  1
  O  O318  1  0.00715385  0.62128705  0.50674758  1
  O  O319  1  0.50717903  0.11772714  0.00514140  1
  O  O320  1  0.50689717  0.12514320  0.51071510  1
  O  O321  1  0.50004885  0.62215758  0.01424686  1
  O  O322  1  0.49278407  0.62674987  0.51493493  1
  O  O323  1  0.48637185  0.37589260  0.49318130  1
  O  O324  1  0.49723701  0.38411329  0.99091043  1
  O  O325  1  0.48667266  0.87311764  0.50184518  1
  O  O326  1  0.49090104  0.88349259  1.00597328  1
  O  O327  1  1.00100288  0.38489685  0.49245622  1
  O  O328  1  0.98782712  0.38193172  0.99666882  1
  O  O329  1  0.99534767  0.87688460  0.49221552  1
  O  O330  1  0.98705787  0.88226355  1.00494851  1
  O  O331  1  0.49694103  0.48736933  0.37728075  1
  O  O332  1  0.50845836  0.49289591  0.88216609  1
  O  O333  1  0.48478842  1.00676291  0.37821145  1
  O  O334  1  0.50249896  1.00487328  0.88732354  1
  O  O335  1  1.00615787  0.49273567  0.38384674  1
  O  O336  1  0.99994011  0.49266628  0.87860225  1
  O  O337  1  0.99478055  0.98965827  0.37606343  1
  O  O338  1  0.99264545  1.00498542  0.88685908  1
  O  O339  1  0.00740509  0.00453016  0.11374835  1
  O  O340  1  0.01311086  0.00779121  0.62356660  1
  O  O341  1  -0.01403333  0.51281185  0.13634768  1
  O  O342  1  0.00793172  0.50970588  0.61667872  1
  O  O343  1  0.50626810  0.00937506  0.11446315  1
  O  O344  1  0.50957393  0.00695412  0.62289613  1
  O  O345  1  0.50078017  0.51525125  0.12514735  1
  O  O346  1  0.50568852  0.50939224  0.62625287  1
  O  O347  1  0.24344587  0.38621590  0.25107237  1
  O  O348  1  0.25525095  0.39628471  0.75843368  1
  O  O349  1  0.23825450  0.87151607  0.24996324  1
  O  O350  1  0.23900271  0.88645088  0.75293025  1
  O  O351  1  0.74403777  0.38239662  0.24639632  1
  O  O352  1  0.75085173  0.37308038  0.73491357  1
  O  O353  1  0.74278658  0.88034923  0.24664856  1
  O  O354  1  0.73963747  0.87754340  0.74685444  1
  O  O355  1  0.25766727  0.12474537  0.25807473  1
  O  O356  1  0.24350584  0.10475206  0.76183547  1
  O  O357  1  0.25732326  0.61614116  0.25022221  1
  O  O358  1  0.25707551  0.62238965  0.75590131  1
  O  O359  1  0.75681892  0.11815779  0.25178663  1
  O  O360  1  0.75816101  0.12198014  0.75492498  1
  O  O361  1  0.74684978  0.61194158  0.25790801  1
  O  O362  1  0.76421004  0.62623656  0.74992577  1
  O  O363  1  0.37109505  0.12356076  0.36543722  1
  O  O364  1  0.36963328  0.11843318  0.87164889  1
  O  O365  1  0.37826116  0.62346917  0.35979464  1
  O  O366  1  0.36040269  0.63306688  0.86932220  1
  O  O367  1  0.87628457  0.11604232  0.36965532  1
  O  O368  1  0.87243747  0.11776501  0.86683496  1
  O  O369  1  0.86368501  0.63133933  0.37832460  1
  O  O370  1  0.87532117  0.63371180  0.86020573  1
  O  O371  1  0.11703200  0.37168992  0.13356747  1
  O  O372  1  0.12728063  0.38709069  0.62122812  1
  O  O373  1  0.12996346  0.88204899  0.13085982  1
  O  O374  1  0.12181171  0.88172164  0.63817948  1
  O  O375  1  0.63165406  0.36411968  0.13710681  1
  O  O376  1  0.63331319  0.37949797  0.62431517  1
  O  O377  1  0.63055703  0.88009784  0.13584539  1
  O  O378  1  0.62409633  0.88277062  0.63414012  1
  O  O379  1  0.12074775  0.25629688  0.24972417  1
  O  O380  1  0.12867224  0.25387492  0.76760673  1
  O  O381  1  0.11722566  0.75860579  0.25337758  1
  O  O382  1  0.12630703  0.76200433  0.75583842  1
  O  O383  1  0.63263257  0.25834379  0.26507133  1
  O  O384  1  0.61644745  0.25089949  0.75576121  1
  O  O385  1  0.61972678  0.75735217  0.25855745  1
  O  O386  1  0.61704295  0.75759635  0.75504154  1
  O  O387  1  0.37020820  0.23716068  0.23485511  1
  O  O388  1  0.38902497  0.25182229  0.73693562  1
  O  O389  1  0.38332524  0.74524426  0.24609835  1
  O  O390  1  0.37941844  0.74654357  0.74484941  1
  O  O391  1  0.88129443  0.24366387  0.24348030  1
  O  O392  1  0.86914908  0.23689641  0.73857990  1
  O  O393  1  0.88721253  0.75563095  0.24866643  1
  O  O394  1  0.87089754  0.74464633  0.73824939  1
  O  O395  1  0.37620149  0.49276040  0.49937986  1
  O  O396  1  0.39481240  0.50160128  1.00909812  1
  O  O397  1  0.37613854  0.99030146  0.49412667  1
  O  O398  1  0.38529632  0.98735342  0.99666155  1
  O  O399  1  0.88939170  0.50109457  0.50585109  1
  O  O400  1  0.87208732  0.48890910  1.00548662  1
  O  O401  1  0.87587499  0.99348031  0.49436058  1
  O  O402  1  0.88067299  0.99420616  0.99225404  1
  O  O403  1  0.11770620  -0.00304227  0.00381362  1
  O  O404  1  0.12829955  0.00831034  0.50980930  1
  O  O405  1  0.11712398  0.52003454  0.00364363  1
  O  O406  1  0.12027143  0.50897439  0.50707732  1
  O  O407  1  0.62135803  0.00277933  0.00488301  1
  O  O408  1  0.62269538  0.00299847  0.50619926  1
  O  O409  1  0.60850915  0.49576167  0.00997401  1
  O  O410  1  0.61886062  0.49613548  0.51413181  1
  O  O411  1  0.37727752  0.35796486  0.12427320  1
  O  O412  1  0.37124353  0.36757266  0.61933624  1
  O  O413  1  0.37568888  0.86883955  0.11772767  1
  O  O414  1  0.37755769  0.86174584  0.61648316  1
  O  O415  1  0.86440642  0.36518684  0.11664145  1
  O  O416  1  0.86927035  0.36670136  0.61888418  1
  O  O417  1  0.86631915  0.87803801  0.11642829  1
  O  O418  1  0.87555601  0.87008620  0.62125650  1
  O  O419  1  0.13284714  0.12120712  0.38302467  1
  O  O420  1  0.12187576  0.13668553  0.87383168  1
  O  O421  1  0.12496814  0.62877106  0.39021412  1
  O  O422  1  0.12860129  0.63930369  0.88136068  1
  O  O423  1  0.62387381  0.13342238  0.37980735  1
  O  O424  1  0.62937401  0.13524527  0.87823477  1
  O  O425  1  0.63244126  0.63617181  0.37096070  1
  O  O426  1  0.62782918  0.63984616  0.86675239  1
