# generated using pymatgen
data_V85Zn86O256
_symmetry_space_group_name_H-M   'P 1'
_cell_length_a   16.94462990
_cell_length_b   16.94319234
_cell_length_c   16.94419067
_cell_angle_alpha   89.90022316
_cell_angle_beta   90.01504225
_cell_angle_gamma   90.05863373
_symmetry_Int_Tables_number   1
_chemical_formula_structural   V85Zn86O256
_chemical_formula_sum   'V85 Zn86 O256'
_cell_volume   4864.60136870
_cell_formula_units_Z   1
loop_
 _symmetry_equiv_pos_site_id
 _symmetry_equiv_pos_as_xyz
  1  'x, y, z'
loop_
 _atom_site_type_symbol
 _atom_site_label
 _atom_site_symmetry_multiplicity
 _atom_site_fract_x
 _atom_site_fract_y
 _atom_site_fract_z
 _atom_site_occupancy
  V  V0  1  0.87260620  0.62792489  0.25220299  1
  V  V1  1  0.24689555  0.12944666  0.37348542  1
  V  V2  1  0.87454461  0.75309820  0.62231866  1
  V  V3  1  0.24884228  0.50235293  0.25332803  1
  V  V4  1  0.38751380  -0.00536277  0.88161582  1
  V  V5  1  0.62222716  0.87538197  0.25348923  1
  V  V6  1  0.75749904  0.24782001  -0.00224609  1
  V  V7  1  0.62856617  0.00451807  0.62665883  1
  V  V8  1  0.62132962  0.75192936  0.38284060  1
  V  V9  1  0.00491780  0.39351312  0.87059324  1
  V  V10  1  0.64034127  0.75345922  0.87496895  1
  V  V11  1  0.12452392  0.24917039  0.87568281  1
  V  V12  1  0.25072246  0.12219629  0.87474921  1
  V  V13  1  -0.00203677  -0.01604360  0.49723215  1
  V  V14  1  0.00041382  0.24675398  0.74901115  1
  V  V15  1  0.24780129  0.62673811  0.87952300  1
  V  V16  1  0.62901821  0.39042495  0.75026258  1
  V  V17  1  0.74877842  0.12233055  0.86137030  1
  V  V18  1  0.37858526  0.37743204  0.48310218  1
  V  V19  1  0.12022285  0.13072631  0.49553845  1
  V  V20  1  0.87882368  0.37761298  0.50145656  1
  V  V21  1  0.49469546  0.00156300  0.49595704  1
  V  V22  1  0.37303205  0.50236354  0.87651024  1
  V  V23  1  0.37231521  0.75551666  0.62861976  1
  V  V24  1  0.37467212  0.12830959  0.74674648  1
  V  V25  1  -0.00415241  0.74859152  0.75291221  1
  V  V26  1  0.74696761  0.62401110  0.38064548  1
  V  V27  1  0.50060017  0.37504110  0.87471782  1
  V  V28  1  0.75373861  0.88197233  0.61920534  1
  V  V29  1  0.13057803  0.37119747  0.73796438  1
  V  V30  1  0.74860987  0.38919221  0.63111028  1
  V  V31  1  0.50198252  0.62023506  0.62899592  1
  V  V32  1  0.24517767  0.74037175  0.50657220  1
  V  V33  1  0.11953741  0.00266977  0.12767319  1
  V  V34  1  0.56716177  -0.05016347  0.06508129  1
  V  V35  1  0.36350026  0.87856490  0.50306565  1
  V  V36  1  0.37924544  0.12449351  0.25691759  1
  V  V37  1  0.86747348  0.61221707  0.75289655  1
  V  V38  1  0.49050223  0.87745307  0.37949925  1
  V  V39  1  0.87070255  0.87388616  -0.00217918  1
  V  V40  1  0.50221622  0.75502379  0.75831057  1
  V  V41  1  -0.00298154  0.00351500  0.00355185  1
  V  V42  1  0.12781886  0.87512185  0.74517927  1
  V  V43  1  0.62692577  0.87960146  0.75007416  1
  V  V44  1  0.11897693  0.37419364  0.25258898  1
  V  V45  1  0.37745133  0.62570499  0.25780103  1
  V  V46  1  0.88487120  0.38759611  -0.00770997  1
  V  V47  1  0.50256520  0.12977504  0.12136366  1
  V  V48  1  0.00338444  0.24743881  0.25391368  1
  V  V49  1  0.87181269  -0.00061056  0.86316020  1
  V  V50  1  0.75194829  0.12725123  0.37539119  1
  V  V51  1  0.01675996  0.50630081  0.50587416  1
  V  V52  1  0.62528270  0.25042342  0.87259870  1
  V  V53  1  0.12227866  0.12420467  0.00310336  1
  V  V54  1  -0.00267752  0.75500608  0.25480358  1
  V  V55  1  0.12030788  0.87525263  0.25682449  1
  V  V56  1  0.25042092  0.87458205  0.12161949  1
  V  V57  1  0.49841240  0.13123472  0.62358771  1
  V  V58  1  0.87484434  0.25013506  0.62449396  1
  V  V59  1  0.88211155  0.11875088  0.24503233  1
  V  V60  1  0.62832195  0.62637542  0.00728171  1
  V  V61  1  0.24907770  0.24856638  0.00110349  1
  V  V62  1  0.74045596  -0.00002547  0.24808013  1
  V  V63  1  0.87634614  -0.01657581  0.37700440  1
  V  V64  1  0.00053415  0.87527956  0.87573138  1
  V  V65  1  0.25201388  0.00001695  0.25610570  1
  V  V66  1  0.62439630  0.12509196  0.00103971  1
  V  V67  1  0.25303212  0.24954099  0.50125895  1
  V  V68  1  0.37325537  0.37423538  -0.00103827  1
  V  V69  1  0.11255325  0.50164582  0.11837710  1
  V  V70  1  0.25160741  -0.00442664  0.74447158  1
  V  V71  1  0.88864753  0.23978853  0.11610476  1
  V  V72  1  0.62539534  0.62315042  0.50905033  1
  V  V73  1  0.88032102  0.50475257  0.37898720  1
  V  V74  1  0.12265819  0.74301441  0.37987155  1
  V  V75  1  0.49859088  0.49905065  0.48573576  1
  V  V76  1  0.87079295  0.75074844  0.11872426  1
  V  V77  1  0.50128829  0.50423216  0.00556721  1
  V  V78  1  0.74366511  0.25370537  0.49772586  1
  V  V79  1  0.74970313  0.87349556  0.12105989  1
  V  V80  1  0.49848219  0.25261288  0.74658721  1
  V  V81  1  0.26531733  0.37127600  0.62340605  1
  V  V82  1  0.25073431  0.50241883  0.74206427  1
  V  V83  1  0.37607050  0.25057192  0.12698870  1
  V  V84  1  0.75089382  0.59938178  0.88111957  1
  Zn  Zn85  1  0.12656878  0.75146400  0.87923487  1
  Zn  Zn86  1  0.25006621  0.75012097  0.00115470  1
  Zn  Zn87  1  0.24492131  0.37586899  0.12398736  1
  Zn  Zn88  1  0.75687965  0.75635423  0.50041512  1
  Zn  Zn89  1  0.49312077  0.62438738  0.12631717  1
  Zn  Zn90  1  0.74238106  0.37018241  0.13563740  1
  Zn  Zn91  1  0.37290992  0.74823091  0.12393077  1
  Zn  Zn92  1  0.62022156  0.13123419  0.49590193  1
  Zn  Zn93  1  0.49423398  0.29115938  0.28043607  1
  Zn  Zn94  1  0.00290806  0.37245772  0.37640943  1
  Zn  Zn95  1  0.12778412  -0.00107769  0.62028928  1
  Zn  Zn96  1  0.01214803  0.62558376  0.62084872  1
  Zn  Zn97  1  0.66339234  0.30907182  0.31578137  1
  Zn  Zn98  1  0.00094662  0.12343727  0.62091866  1
  Zn  Zn99  1  0.49387953  0.75039965  0.25437208  1
  Zn  Zn100  1  0.11152324  0.62500087  -0.00750258  1
  Zn  Zn101  1  0.38541921  0.87616393  0.00178448  1
  Zn  Zn102  1  0.87203346  0.12188511  0.74322388  1
  Zn  Zn103  1  0.24733753  0.61817383  0.38286981  1
  Zn  Zn104  1  -0.00661377  0.62332969  0.11895842  1
  Zn  Zn105  1  0.74089453  0.48339454  0.25151893  1
  Zn  Zn106  1  0.37752796  0.62902494  0.75283269  1
  Zn  Zn107  1  0.18569017  0.18680016  0.18658688  1
  Zn  Zn108  1  0.18883716  0.18602739  0.68153425  1
  Zn  Zn109  1  0.18526464  0.68540117  0.18681073  1
  Zn  Zn110  1  0.18720522  0.68828787  0.69064040  1
  Zn  Zn111  1  0.69487073  0.18481303  0.17974868  1
  Zn  Zn112  1  0.68430211  0.19618738  0.68315175  1
  Zn  Zn113  1  0.65189930  0.64299668  0.22306891  1
  Zn  Zn114  1  0.69210519  0.68870448  0.69059492  1
  Zn  Zn115  1  0.30553416  0.31156221  0.30939790  1
  Zn  Zn116  1  0.31375512  0.31040205  0.81304053  1
  Zn  Zn117  1  0.30721692  0.80956035  0.31622616  1
  Zn  Zn118  1  0.31405111  0.81518498  0.81629349  1
  Zn  Zn119  1  0.82986016  0.31055804  0.31176937  1
  Zn  Zn120  1  0.81449892  0.31730984  0.81424254  1
  Zn  Zn121  1  0.80603791  0.80875489  0.31021075  1
  Zn  Zn122  1  0.81061371  0.81627011  0.80419969  1
  Zn  Zn123  1  0.18746292  0.43111157  0.43354554  1
  Zn  Zn124  1  0.18602775  0.43750748  0.93551428  1
  Zn  Zn125  1  0.18453901  0.93747801  0.43608903  1
  Zn  Zn126  1  0.18773408  0.93946816  0.93504336  1
  Zn  Zn127  1  0.68869772  0.44434877  0.44658353  1
  Zn  Zn128  1  0.67859429  0.42432816  0.96561428  1
  Zn  Zn129  1  0.68379402  0.94285845  0.43921790  1
  Zn  Zn130  1  0.69338457  0.93372075  0.92822671  1
  Zn  Zn131  1  0.31184037  0.06047657  0.06464276  1
  Zn  Zn132  1  0.31292691  0.06441038  0.56376533  1
  Zn  Zn133  1  0.30672379  0.56246994  0.06784492  1
  Zn  Zn134  1  0.31962583  0.56330655  0.56444269  1
  Zn  Zn135  1  0.81039269  0.05910750  0.06049564  1
  Zn  Zn136  1  0.81487327  0.06285669  0.55928759  1
  Zn  Zn137  1  0.80786032  0.55766804  0.06898016  1
  Zn  Zn138  1  0.81903904  0.56709684  0.56485470  1
  Zn  Zn139  1  0.42910862  0.44182642  0.18538814  1
  Zn  Zn140  1  0.43775492  0.43867892  0.68686419  1
  Zn  Zn141  1  0.43192426  0.93667250  0.19490438  1
  Zn  Zn142  1  0.43991664  0.93928206  0.68706757  1
  Zn  Zn143  1  0.91515800  0.44141165  0.17812679  1
  Zn  Zn144  1  0.94180373  0.43628239  0.68635260  1
  Zn  Zn145  1  0.93644650  0.93666004  0.18830860  1
  Zn  Zn146  1  0.94093689  0.93643517  0.68243297  1
  Zn  Zn147  1  0.06060964  0.06136721  0.31786531  1
  Zn  Zn148  1  0.06298886  0.06175774  0.81158815  1
  Zn  Zn149  1  0.05961142  0.56299974  0.31029564  1
  Zn  Zn150  1  0.07548209  0.57282152  0.78526841  1
  Zn  Zn151  1  0.56802396  0.14520370  0.30948710  1
  Zn  Zn152  1  0.56320744  0.06265481  0.80968636  1
  Zn  Zn153  1  0.56940980  0.46387303  0.30340416  1
  Zn  Zn154  1  0.56188754  0.56771169  0.81947311  1
  Zn  Zn155  1  0.43202857  0.19042645  0.43855720  1
  Zn  Zn156  1  0.43805202  0.18458942  0.93676922  1
  Zn  Zn157  1  0.43373179  0.68567999  0.43849679  1
  Zn  Zn158  1  0.43599052  0.69228813  0.93932227  1
  Zn  Zn159  1  0.93412464  0.18461552  0.43484426  1
  Zn  Zn160  1  0.94014344  0.18343509  0.92825165  1
  Zn  Zn161  1  0.94350051  0.68897044  0.44040685  1
  Zn  Zn162  1  0.93228727  0.68175376  0.93753755  1
  Zn  Zn163  1  0.05927124  0.31580443  0.06381280  1
  Zn  Zn164  1  0.06577111  0.31177581  0.56030711  1
  Zn  Zn165  1  0.06254669  0.80857339  0.06372887  1
  Zn  Zn166  1  0.06418126  0.80963159  0.56726294  1
  Zn  Zn167  1  0.56384988  0.31704297  0.07171341  1
  Zn  Zn168  1  0.56407682  0.32018077  0.56244573  1
  Zn  Zn169  1  0.56543832  0.78671359  0.06724161  1
  Zn  Zn170  1  0.55911304  0.81372085  0.56708595  1
  O  O171  1  0.12835215  0.10998959  0.12024981  1
  O  O172  1  0.12504207  0.12143499  0.60962868  1
  O  O173  1  0.12016201  0.61055687  0.12632377  1
  O  O174  1  0.10748148  0.61263768  0.67867037  1
  O  O175  1  0.61980200  0.12393776  0.10945493  1
  O  O176  1  0.61832073  0.12076892  0.62195038  1
  O  O177  1  0.62504390  0.63512239  0.10980200  1
  O  O178  1  0.61874517  0.63631549  0.61641142  1
  O  O179  1  0.37320461  0.37099780  0.38310387  1
  O  O180  1  0.37960587  0.38175924  0.87928011  1
  O  O181  1  0.38386878  0.87017457  0.38404842  1
  O  O182  1  0.37635736  0.89019207  0.87876548  1
  O  O183  1  0.87936808  0.38613867  0.38542962  1
  O  O184  1  0.89226115  0.37074630  0.88089132  1
  O  O185  1  0.86829808  0.88428803  0.37144733  1
  O  O186  1  0.87788578  0.88228282  0.87691442  1
  O  O187  1  0.24316345  0.00984721  0.36319130  1
  O  O188  1  0.25633939  0.00718345  0.86554751  1
  O  O189  1  0.24003721  0.50093899  0.35858179  1
  O  O190  1  0.25993807  0.50299988  0.87005391  1
  O  O191  1  0.75923233  0.00367881  0.37008940  1
  O  O192  1  0.76050155  0.00930581  0.87512553  1
  O  O193  1  0.76162688  0.51318122  0.38048635  1
  O  O194  1  0.74389172  0.50238728  0.88097530  1
  O  O195  1  0.23617555  0.49708986  0.13672710  1
  O  O196  1  0.25899213  0.49195141  0.63457795  1
  O  O197  1  0.24112995  0.99584303  0.13628080  1
  O  O198  1  0.25005619  1.00398996  0.64013165  1
  O  O199  1  0.79567415  0.47725049  0.14698851  1
  O  O200  1  0.75762188  0.48796338  0.62178887  1
  O  O201  1  0.75674422  0.98783679  0.13580306  1
  O  O202  1  0.74182262  0.99692377  0.62010958  1
  O  O203  1  0.00144365  0.36504207  0.24755638  1
  O  O204  1  0.01117327  0.36560179  0.75132925  1
  O  O205  1  0.00892315  0.86897431  0.24776528  1
  O  O206  1  0.00362121  0.86871601  0.75734260  1
  O  O207  1  0.51137146  0.38946098  0.23746708  1
  O  O208  1  0.50492985  0.37040786  0.75432335  1
  O  O209  1  0.50412650  0.87724787  0.26266622  1
  O  O210  1  0.51421360  0.86723597  0.74111456  1
  O  O211  1  0.48925396  0.11293448  0.23160865  1
  O  O212  1  0.49412581  0.13113122  0.74332399  1
  O  O213  1  0.47926579  0.62058247  0.25179222  1
  O  O214  1  0.50051092  0.63402920  0.74506765  1
  O  O215  1  0.98954593  0.12772267  0.25437381  1
  O  O216  1  1.00080369  0.13627430  0.74577832  1
  O  O217  1  0.98694172  0.63475369  0.24849352  1
  O  O218  1  0.97849835  0.64214648  0.76994415  1
  O  O219  1  0.36956943  0.25225570  0.00576560  1
  O  O220  1  0.36238874  0.25904355  0.49820093  1
  O  O221  1  0.37045562  0.75907585  0.00303264  1
  O  O222  1  0.36619101  0.75647734  0.50902898  1
  O  O223  1  0.87246741  0.23816477  0.00272144  1
  O  O224  1  0.87095416  0.25961412  0.50531751  1
  O  O225  1  0.87642530  0.75691448  0.01252696  1
  O  O226  1  0.87840495  0.74340800  0.51769248  1
  O  O227  1  0.13825016  0.24390951  0.50028522  1
  O  O228  1  0.12821284  0.24413381  0.99778559  1
  O  O229  1  0.13281139  0.75583172  0.49400143  1
  O  O230  1  0.13000167  0.74758089  0.99684791  1
  O  O231  1  0.64021134  0.25186727  0.50488379  1
  O  O232  1  0.63538818  0.23917889  0.99151445  1
  O  O233  1  0.62228629  0.74719766  0.49388593  1
  O  O234  1  0.62459761  0.74007034  0.98516252  1
  O  O235  1  0.49150098  0.24284887  0.12019436  1
  O  O236  1  0.50610190  0.23856162  0.62787867  1
  O  O237  1  0.49253272  0.74262094  0.13725318  1
  O  O238  1  0.49360836  0.74260419  0.63441376  1
  O  O239  1  0.99308344  0.24383000  0.12990605  1
  O  O240  1  0.99315217  0.25102198  0.63100658  1
  O  O241  1  0.98900189  0.75249982  0.13752731  1
  O  O242  1  0.99452861  0.74696729  0.63654164  1
  O  O243  1  -0.01092419  0.25239145  0.35856134  1
  O  O244  1  0.00766299  0.25244488  0.86351398  1
  O  O245  1  0.00517126  0.75004607  0.36445210  1
  O  O246  1  -0.00649651  0.76509850  0.87189621  1
  O  O247  1  0.50873820  0.22568422  0.36754991  1
  O  O248  1  0.50523015  0.25463229  0.86969597  1
  O  O249  1  0.50434319  0.75890397  0.37869766  1
  O  O250  1  0.51010435  0.74357964  0.86148394  1
  O  O251  1  0.24730985  0.13034983  0.49284418  1
  O  O252  1  0.24312015  0.12811628  0.99506254  1
  O  O253  1  0.25271032  0.63549843  0.50225481  1
  O  O254  1  0.24659192  0.62163586  0.98761318  1
  O  O255  1  0.75508844  0.13778766  0.49200354  1
  O  O256  1  0.74417987  0.13031954  0.99140959  1
  O  O257  1  0.74339882  0.62815930  0.49886363  1
  O  O258  1  0.74465644  0.61512680  0.99029590  1
  O  O259  1  0.25531273  0.36668590  -0.00007803  1
  O  O260  1  0.25764691  0.37039356  0.50383953  1
  O  O261  1  0.24670172  0.88093072  0.01462319  1
  O  O262  1  0.25990973  0.87042947  0.49633221  1
  O  O263  1  0.77543286  0.35501831  -0.01925239  1
  O  O264  1  0.76233297  0.37195721  0.50700080  1
  O  O265  1  0.75807102  0.88265103  0.00826125  1
  O  O266  1  0.74349712  0.87493090  0.51389517  1
  O  O267  1  0.12806488  0.49432591  0.24261617  1
  O  O268  1  0.14621837  0.48017422  0.76176659  1
  O  O269  1  0.12673014  0.99468378  0.24567951  1
  O  O270  1  0.13329772  0.99499361  0.74903295  1
  O  O271  1  0.64103045  0.53484769  0.25427506  1
  O  O272  1  0.61808287  0.48896480  0.75737670  1
  O  O273  1  0.63927401  0.99353698  0.25350141  1
  O  O274  1  0.61975114  0.99490737  0.73681818  1
  O  O275  1  0.36188009  0.01159764  0.24509057  1
  O  O276  1  0.37024087  0.00489522  0.75820025  1
  O  O277  1  0.35640849  0.50860048  0.24603716  1
  O  O278  1  0.36746176  0.49934091  0.75964813  1
  O  O279  1  0.87063019  0.00347211  0.25752785  1
  O  O280  1  0.88310737  0.00252201  0.75941238  1
  O  O281  1  0.88410701  0.51161501  0.26995034  1
  O  O282  1  0.88136448  0.51431869  0.74755855  1
  O  O283  1  0.12051837  0.37421577  0.35814299  1
  O  O284  1  0.12165407  0.36511465  0.86751402  1
  O  O285  1  0.13108571  0.86555662  0.36195382  1
  O  O286  1  0.11438819  0.87811181  0.86751521  1
  O  O287  1  0.62083740  0.38974485  0.37789541  1
  O  O288  1  0.61898605  0.36823115  0.87211946  1
  O  O289  1  0.61486996  0.86996921  0.37462034  1
  O  O290  1  0.62846406  0.86793331  0.86362487  1
  O  O291  1  0.38013067  0.13399296  0.12868876  1
  O  O292  1  0.38259995  0.12151886  0.63869787  1
  O  O293  1  0.36837472  0.62704055  0.13962626  1
  O  O294  1  0.38348886  0.63850676  0.62939534  1
  O  O295  1  0.87219355  0.12639280  0.13309725  1
  O  O296  1  0.87640929  0.13809078  0.62491902  1
  O  O297  1  0.86966196  0.63542948  0.13584167  1
  O  O298  1  0.87775981  0.63242484  0.64136593  1
  O  O299  1  0.25843355  0.24963076  0.11928164  1
  O  O300  1  0.25045151  0.25868844  0.61513992  1
  O  O301  1  0.24759219  0.76233626  0.12694660  1
  O  O302  1  0.25792391  0.74721514  0.62157194  1
  O  O303  1  0.76496247  0.24962059  0.11231688  1
  O  O304  1  0.75936461  0.25788767  0.61715518  1
  O  O305  1  0.75999626  0.76885736  0.13245013  1
  O  O306  1  0.75804190  0.75936392  0.62411198  1
  O  O307  1  0.25122603  0.23670668  0.37990761  1
  O  O308  1  0.24501430  0.24196622  0.88044513  1
  O  O309  1  0.24018382  0.74736441  0.38755198  1
  O  O310  1  0.25040821  0.73955463  0.87488505  1
  O  O311  1  0.75560966  0.24389491  0.38096643  1
  O  O312  1  0.74720785  0.24003690  0.87818142  1
  O  O313  1  0.74259313  0.74371736  0.38251912  1
  O  O314  1  0.74195646  0.74934515  0.87002330  1
  O  O315  1  0.00610376  0.11044121  -0.00844913  1
  O  O316  1  0.00845726  0.12435363  0.49844166  1
  O  O317  1  -0.00159510  0.62663549  0.00549338  1
  O  O318  1  0.00455782  0.61186979  0.50335476  1
  O  O319  1  0.50814261  0.12596989  0.00982600  1
  O  O320  1  0.49677642  0.11887954  0.50826582  1
  O  O321  1  0.50742336  0.62077445  -0.00153696  1
  O  O322  1  0.50407157  0.61858753  0.50715683  1
  O  O323  1  0.49303997  0.39020962  0.50617199  1
  O  O324  1  0.49170744  0.38346740  0.99265166  1
  O  O325  1  0.48912609  0.88066616  0.49804304  1
  O  O326  1  0.51111799  0.88325026  1.01359381  1
  O  O327  1  0.99164607  0.38060003  0.50014904  1
  O  O328  1  0.99415044  0.37230355  0.98494625  1
  O  O329  1  1.00361898  0.88563552  0.50203601  1
  O  O330  1  0.99384889  0.88348328  0.99324406  1
  O  O331  1  0.49715828  0.50853516  0.38882513  1
  O  O332  1  0.48693318  0.49761576  0.88045448  1
  O  O333  1  0.50211985  0.99155877  0.39376765  1
  O  O334  1  0.48585541  1.00630332  0.87302596  1
  O  O335  1  0.99693338  0.49967191  0.38806950  1
  O  O336  1  1.01437428  0.49055733  0.85735939  1
  O  O337  1  0.99173097  0.99957327  0.38739343  1
  O  O338  1  0.99370882  0.99144233  0.87960931  1
  O  O339  1  0.00640505  -0.00518274  0.11516805  1
  O  O340  1  0.00074768  0.00350881  0.61008434  1
  O  O341  1  0.00955750  0.49958753  0.13319841  1
  O  O342  1  -0.00307801  0.49965563  0.60882331  1
  O  O343  1  0.50146342  0.00355430  0.12194951  1
  O  O344  1  0.50559587  0.01239211  0.61994425  1
  O  O345  1  0.49075389  0.50577360  0.10825083  1
  O  O346  1  0.49424939  0.51761317  0.62540435  1
  O  O347  1  0.24034854  0.38367685  0.24674681  1
  O  O348  1  0.24987818  0.37500605  0.74026213  1
  O  O349  1  0.24422120  0.88357431  0.24464318  1
  O  O350  1  0.24003602  0.88407674  0.75866371  1
  O  O351  1  0.74898320  0.36545229  0.25285028  1
  O  O352  1  0.74166544  0.37073160  0.74342554  1
  O  O353  1  0.74019892  0.87978700  0.24416038  1
  O  O354  1  0.73570012  0.87472105  0.73646740  1
  O  O355  1  0.25417570  0.12079921  0.25581559  1
  O  O356  1  0.25793932  0.12116438  0.75418848  1
  O  O357  1  0.25107346  0.61421725  0.25313692  1
  O  O358  1  0.25648435  0.61526336  0.76061188  1
  O  O359  1  0.76099520  0.11668438  0.25404407  1
  O  O360  1  0.74758092  0.13091613  0.75863042  1
  O  O361  1  0.76494175  0.63550164  0.26630026  1
  O  O362  1  0.75950975  0.62276511  0.76064408  1
  O  O363  1  0.36592042  0.12555754  0.36179776  1
  O  O364  1  0.37061197  0.11718392  0.86616427  1
  O  O365  1  0.36606090  0.62752237  0.36339392  1
  O  O366  1  0.36970034  0.61693418  0.87440016  1
  O  O367  1  0.86663296  0.11587832  0.36629618  1
  O  O368  1  0.86600132  0.11690752  0.86816401  1
  O  O369  1  0.87023932  0.62286274  0.37572747  1
  O  O370  1  0.85617830  0.62585699  0.86840386  1
  O  O371  1  0.12281112  0.38460981  0.13312186  1
  O  O372  1  0.13625463  0.37004602  0.63437796  1
  O  O373  1  0.12956137  0.88494520  0.13518837  1
  O  O374  1  0.12052411  0.87902581  0.64080234  1
  O  O375  1  0.64972117  0.38408704  0.07305987  1
  O  O376  1  0.63635739  0.37251806  0.63714288  1
  O  O377  1  0.62606334  0.88012684  0.12522566  1
  O  O378  1  0.62980235  0.88488904  0.62926536  1
  O  O379  1  0.11335128  0.25743992  0.23945243  1
  O  O380  1  0.12144115  0.25383442  0.75305232  1
  O  O381  1  0.11657700  0.75679062  0.25448861  1
  O  O382  1  0.11395050  0.76059236  0.75835823  1
  O  O383  1  0.61865492  0.23186010  0.24716185  1
  O  O384  1  0.61609615  0.25616840  0.75661715  1
  O  O385  1  0.61923358  0.74979989  0.26857571  1
  O  O386  1  0.62102937  0.75755492  0.75531019  1
  O  O387  1  0.37757134  0.24468661  0.24169027  1
  O  O388  1  0.38463859  0.23939571  0.75621529  1
  O  O389  1  0.37038511  0.73728850  0.25130329  1
  O  O390  1  0.38401763  0.75415948  0.74577949  1
  O  O391  1  0.88339270  0.23863131  0.23697832  1
  O  O392  1  0.88419567  0.25038038  0.74197792  1
  O  O393  1  0.88058716  0.74745654  0.24502318  1
  O  O394  1  0.87919092  0.74750576  0.74173805  1
  O  O395  1  0.38842613  0.49384133  0.50207664  1
  O  O396  1  0.37612469  0.49509446  0.99336186  1
  O  O397  1  0.38112440  0.99042928  0.50892299  1
  O  O398  1  0.37190402  1.00040194  0.98601531  1
  O  O399  1  0.88261081  0.49577521  0.49420504  1
  O  O400  1  0.87457645  0.48463368  0.99845669  1
  O  O401  1  0.88899927  1.00313455  0.49158104  1
  O  O402  1  0.88201474  0.99620575  0.98944821  1
  O  O403  1  0.11682842  0.00230008  0.00793356  1
  O  O404  1  0.11319702  0.00537615  0.49810218  1
  O  O405  1  0.12767922  0.49708571  0.01591162  1
  O  O406  1  0.11472323  0.49139847  0.49940655  1
  O  O407  1  0.62528185  0.00330777  -0.00217849  1
  O  O408  1  0.61435661  0.00321058  0.51243545  1
  O  O409  1  0.60968426  0.51591500  -0.01554718  1
  O  O410  1  0.61068699  0.51165832  0.50536998  1
  O  O411  1  0.37060434  0.36362108  0.11867553  1
  O  O412  1  0.36813633  0.37554378  0.61698365  1
  O  O413  1  0.36422455  0.87704955  0.12363216  1
  O  O414  1  0.38052453  0.86386705  0.61829370  1
  O  O415  1  0.88657828  0.35680511  0.09996969  1
  O  O416  1  0.87147870  0.36697249  0.62118769  1
  O  O417  1  0.86877670  0.87094585  0.11895944  1
  O  O418  1  0.86508878  0.86832608  0.63085031  1
  O  O419  1  0.13263312  0.12282541  0.38543224  1
  O  O420  1  0.13078163  0.12903599  0.88104557  1
  O  O421  1  0.12522978  0.63973672  0.36922799  1
  O  O422  1  0.13521364  0.62574042  0.87291170  1
  O  O423  1  0.64738329  0.11136946  0.38238895  1
  O  O424  1  0.63057369  0.12647951  0.88193668  1
  O  O425  1  0.63478550  0.63531242  0.39320896  1
  O  O426  1  0.64064764  0.63173712  0.87794586  1
