# generated using pymatgen
data_V85Zn86O256
_symmetry_space_group_name_H-M   'P 1'
_cell_length_a   16.93724499
_cell_length_b   16.95273900
_cell_length_c   16.93807409
_cell_angle_alpha   89.95855083
_cell_angle_beta   89.93383019
_cell_angle_gamma   89.95797264
_symmetry_Int_Tables_number   1
_chemical_formula_structural   V85Zn86O256
_chemical_formula_sum   'V85 Zn86 O256'
_cell_volume   4863.46901733
_cell_formula_units_Z   1
loop_
 _symmetry_equiv_pos_site_id
 _symmetry_equiv_pos_as_xyz
  1  'x, y, z'
loop_
 _atom_site_type_symbol
 _atom_site_label
 _atom_site_symmetry_multiplicity
 _atom_site_fract_x
 _atom_site_fract_y
 _atom_site_fract_z
 _atom_site_occupancy
  V  V0  1  0.63848947  -0.01215478  0.63677455  1
  V  V1  1  0.25171811  0.63790582  0.37042379  1
  V  V2  1  0.24489323  0.00182890  0.74536094  1
  V  V3  1  0.88093212  0.24632397  0.62159917  1
  V  V4  1  0.87284438  0.50010269  0.37597818  1
  V  V5  1  0.74858749  0.50248099  0.24991199  1
  V  V6  1  0.50245696  -0.00576958  -0.00467165  1
  V  V7  1  0.61887435  0.13387518  0.00993128  1
  V  V8  1  0.24441772  0.50624776  0.24229317  1
  V  V9  1  0.25062671  0.37684870  0.12345120  1
  V  V10  1  0.75096108  0.12005634  0.37169722  1
  V  V11  1  0.12510714  0.24487084  0.37397352  1
  V  V12  1  0.62359895  -0.01454473  0.12855478  1
  V  V13  1  0.12602341  0.24883812  0.87470115  1
  V  V14  1  0.12456532  0.37852816  0.24523750  1
  V  V15  1  0.75364519  0.24501048  0.49952419  1
  V  V16  1  0.24983998  0.87059823  0.62740465  1
  V  V17  1  0.37358233  0.86757663  0.50409488  1
  V  V18  1  0.00335838  0.24633134  0.74657325  1
  V  V19  1  0.87416345  0.37523809  -0.00043554  1
  V  V20  1  -0.00077766  0.24867521  0.24688330  1
  V  V21  1  0.88702258  -0.00606840  0.37103410  1
  V  V22  1  0.36980810  0.25666742  0.62342913  1
  V  V23  1  0.37525955  0.62967942  0.73940664  1
  V  V24  1  0.25226056  -0.00298882  0.24593386  1
  V  V25  1  0.86997072  0.87155318  0.49691307  1
  V  V26  1  0.25220213  0.12211209  0.87512198  1
  V  V27  1  0.25170702  0.50059393  0.75051964  1
  V  V28  1  0.62598930  0.12230119  0.50030296  1
  V  V29  1  0.86819789  0.50682822  0.87313367  1
  V  V30  1  0.60865206  0.50617818  0.11985331  1
  V  V31  1  0.73657866  0.49995503  0.73884563  1
  V  V32  1  0.60588893  0.62203306  -0.00615220  1
  V  V33  1  0.86853840  0.37574858  0.50473079  1
  V  V34  1  0.51752330  0.63046835  0.62339278  1
  V  V35  1  0.00027004  0.49908570  0.50054532  1
  V  V36  1  0.62275867  0.37848593  0.25432229  1
  V  V37  1  0.12606126  0.62805436  0.49748426  1
  V  V38  1  0.00011981  0.74756870  0.75096469  1
  V  V39  1  -0.00095296  0.37511474  0.37390275  1
  V  V40  1  0.11923766  0.12148879  0.51452617  1
  V  V41  1  0.50935916  0.36386616  0.86914362  1
  V  V42  1  0.75094834  0.73472573  -0.00335159  1
  V  V43  1  0.00919314  0.49976178  0.00554874  1
  V  V44  1  0.87443878  0.12707413  0.74886585  1
  V  V45  1  0.62237970  0.24774824  0.37578613  1
  V  V46  1  0.62683649  0.76054699  0.86801404  1
  V  V47  1  0.38638904  0.50113652  0.87837354  1
  V  V48  1  0.25425760  0.24962182  0.00031697  1
  V  V49  1  0.49589164  0.37604426  0.38265800  1
  V  V50  1  0.24329146  0.75786515  0.00433179  1
  V  V51  1  0.00251115  -0.00630957  0.51776193  1
  V  V52  1  0.74174029  0.62586376  0.38660728  1
  V  V53  1  0.12950505  -0.00696634  0.12096977  1
  V  V54  1  0.74636307  -0.01609856  0.24714858  1
  V  V55  1  0.50023589  -0.00245868  0.50234989  1
  V  V56  1  0.87541467  0.62446949  0.24966151  1
  V  V57  1  0.13249320  0.49565772  0.62159453  1
  V  V58  1  0.37948946  0.12857699  0.75059264  1
  V  V59  1  0.11905864  0.88104426  0.74389317  1
  V  V60  1  0.38408779  0.62615073  0.23674898  1
  V  V61  1  0.75048470  0.12560595  0.87551369  1
  V  V62  1  0.50534321  0.50914103  0.50392059  1
  V  V63  1  -0.00543857  -0.00169954  0.00072511  1
  V  V64  1  0.86796534  0.74940066  0.62370801  1
  V  V65  1  0.74495806  0.37756257  0.12307178  1
  V  V66  1  0.00093937  0.62392193  0.62590267  1
  V  V67  1  0.37261366  0.50316154  0.37418425  1
  V  V68  1  0.87073379  0.74971446  0.12636036  1
  V  V69  1  0.87259581  0.24968297  0.12368324  1
  V  V70  1  0.87188600  0.12389860  0.24816679  1
  V  V71  1  0.00130640  0.75543965  0.25477516  1
  V  V72  1  0.49577568  0.76421044  0.75038304  1
  V  V73  1  0.12710925  0.87614352  0.25623563  1
  V  V74  1  0.13225637  0.37412632  0.74494604  1
  V  V75  1  0.37359322  0.00378825  0.37911131  1
  V  V76  1  0.86247764  0.87713036  0.00966104  1
  V  V77  1  0.49848190  0.24790770  0.24533429  1
  V  V78  1  0.38228379  0.75741014  0.11819378  1
  V  V79  1  0.50077380  0.12728851  0.62972513  1
  V  V80  1  0.85578799  -0.02380750  0.84641742  1
  V  V81  1  0.12457255  0.12254273  0.00095553  1
  V  V82  1  0.00184603  0.87275937  0.88270066  1
  V  V83  1  0.00130086  0.37563774  0.87497083  1
  V  V84  1  0.37637336  0.12624131  0.24475326  1
  Zn  Zn85  1  0.70777321  0.34475637  0.66633833  1
  Zn  Zn86  1  0.00947030  0.62093793  0.12904979  1
  Zn  Zn87  1  0.12546103  0.74407754  0.87685579  1
  Zn  Zn88  1  0.38048169  0.38021315  -0.00005964  1
  Zn  Zn89  1  0.12093416  0.75868128  0.37910154  1
  Zn  Zn90  1  0.36358174  0.38412478  0.50848502  1
  Zn  Zn91  1  0.37431506  0.87684392  -0.00697835  1
  Zn  Zn92  1  0.51025154  0.87869495  0.36227352  1
  Zn  Zn93  1  0.62335312  0.76394680  0.37136803  1
  Zn  Zn94  1  0.13263061  0.61921892  0.00625128  1
  Zn  Zn95  1  0.51173626  0.75736806  0.24381313  1
  Zn  Zn96  1  0.74542738  0.25421188  -0.00451438  1
  Zn  Zn97  1  0.87299092  0.62343081  0.75228606  1
  Zn  Zn98  1  -0.00146427  0.12375171  0.12272582  1
  Zn  Zn99  1  0.24965818  0.62733631  0.87630586  1
  Zn  Zn100  1  0.24392219  0.25798084  0.50385461  1
  Zn  Zn101  1  0.73673326  0.75014306  0.51002210  1
  Zn  Zn102  1  0.62878093  0.25022252  0.84713357  1
  Zn  Zn103  1  0.38549770  -0.00517016  0.86743840  1
  Zn  Zn104  1  0.37955562  0.24881295  0.12199752  1
  Zn  Zn105  1  0.25101181  0.74955638  0.50711465  1
  Zn  Zn106  1  0.24719624  0.12528937  0.37827539  1
  Zn  Zn107  1  0.18951371  0.18384271  0.18589867  1
  Zn  Zn108  1  0.19011391  0.18635663  0.68684197  1
  Zn  Zn109  1  0.18746159  0.69024252  0.18014189  1
  Zn  Zn110  1  0.18588988  0.68779373  0.69020602  1
  Zn  Zn111  1  0.68642669  0.18776863  0.18753981  1
  Zn  Zn112  1  0.69419538  0.17287935  0.68328361  1
  Zn  Zn113  1  0.68464553  0.68901277  0.18456523  1
  Zn  Zn114  1  0.69017517  0.68316232  0.69716726  1
  Zn  Zn115  1  0.30972850  0.31349172  0.31485624  1
  Zn  Zn116  1  0.31673520  0.31400118  0.81031550  1
  Zn  Zn117  1  0.34673499  0.83220996  0.29297756  1
  Zn  Zn118  1  0.31300670  0.81583061  0.81856075  1
  Zn  Zn119  1  0.80980355  0.31280615  0.31358439  1
  Zn  Zn120  1  0.81357242  0.31344380  0.81505622  1
  Zn  Zn121  1  0.81205955  0.81000939  0.31633621  1
  Zn  Zn122  1  0.81327601  0.80643173  0.81574052  1
  Zn  Zn123  1  0.19095694  0.43783757  0.43193942  1
  Zn  Zn124  1  0.19193463  0.43578857  0.93259449  1
  Zn  Zn125  1  0.18845002  0.94122302  0.43864525  1
  Zn  Zn126  1  0.18981934  0.93482925  0.93240928  1
  Zn  Zn127  1  0.65147349  0.40120412  0.49766672  1
  Zn  Zn128  1  0.68419386  0.44201194  0.93492013  1
  Zn  Zn129  1  0.68798600  0.93508055  0.43902927  1
  Zn  Zn130  1  0.68604045  0.93669858  0.94282291  1
  Zn  Zn131  1  0.31578566  0.06312586  0.06377792  1
  Zn  Zn132  1  0.30723293  0.06372888  0.56545418  1
  Zn  Zn133  1  0.31115437  0.56688925  0.05981200  1
  Zn  Zn134  1  0.31272298  0.56534692  0.56106843  1
  Zn  Zn135  1  0.80480927  0.06237148  0.06269781  1
  Zn  Zn136  1  0.81702286  0.05933185  0.56308544  1
  Zn  Zn137  1  0.81486594  0.56071563  0.06355777  1
  Zn  Zn138  1  0.80991421  0.56091080  0.56822862  1
  Zn  Zn139  1  0.43327484  0.43463242  0.19083479  1
  Zn  Zn140  1  0.44197585  0.44504069  0.68966519  1
  Zn  Zn141  1  0.44089259  0.94060919  0.17777320  1
  Zn  Zn142  1  0.43504445  0.94282792  0.68440081  1
  Zn  Zn143  1  0.93529341  0.43594061  0.18656542  1
  Zn  Zn144  1  0.93889156  0.43476017  0.68817104  1
  Zn  Zn145  1  0.94060277  0.93608743  0.18725262  1
  Zn  Zn146  1  0.91904030  0.92813442  0.69222819  1
  Zn  Zn147  1  0.06308011  0.06366739  0.30947743  1
  Zn  Zn148  1  0.05701583  0.05889551  0.81579554  1
  Zn  Zn149  1  0.06272595  0.56481707  0.31217255  1
  Zn  Zn150  1  0.06349492  0.56296496  0.81798479  1
  Zn  Zn151  1  0.56118059  0.05836790  0.31067166  1
  Zn  Zn152  1  0.56828329  0.06280513  0.81290112  1
  Zn  Zn153  1  0.56206423  0.56481245  0.31225422  1
  Zn  Zn154  1  0.56328879  0.56860231  0.81251991  1
  Zn  Zn155  1  0.43643466  0.18744049  0.44011009  1
  Zn  Zn156  1  0.44180429  0.18736184  0.93453930  1
  Zn  Zn157  1  0.44418565  0.69138975  0.43445396  1
  Zn  Zn158  1  0.43401385  0.69202471  0.92885737  1
  Zn  Zn159  1  0.94244964  0.18101934  0.43622129  1
  Zn  Zn160  1  0.93517989  0.18592579  0.93607856  1
  Zn  Zn161  1  0.93618308  0.68787852  0.43627147  1
  Zn  Zn162  1  0.94004873  0.68504421  0.94145907  1
  Zn  Zn163  1  0.06434038  0.31290767  0.06269622  1
  Zn  Zn164  1  0.06181993  0.31249416  0.56135258  1
  Zn  Zn165  1  0.06157235  0.81150003  0.07086274  1
  Zn  Zn166  1  0.05870426  0.81453910  0.56361520  1
  Zn  Zn167  1  0.55880476  0.31979055  0.05791302  1
  Zn  Zn168  1  0.55343793  0.31352465  0.67516968  1
  Zn  Zn169  1  0.56443824  0.80905850  0.05908457  1
  Zn  Zn170  1  0.56523975  0.81160578  0.55979487  1
  O  O171  1  0.12288516  0.11491973  0.11757446  1
  O  O172  1  0.12058280  0.13024490  0.61315288  1
  O  O173  1  0.12240437  0.62227043  0.12103572  1
  O  O174  1  0.12181026  0.61832849  0.61607857  1
  O  O175  1  0.62948418  0.12136485  0.11164138  1
  O  O176  1  0.61761891  0.11778206  0.61608875  1
  O  O177  1  0.63039644  0.61653002  0.10784043  1
  O  O178  1  0.61572231  0.62674360  0.62625666  1
  O  O179  1  0.37762174  0.39070291  0.36836638  1
  O  O180  1  0.38260802  0.38622406  0.87168808  1
  O  O181  1  0.36851323  0.89358001  0.38969355  1
  O  O182  1  0.37537846  0.88387949  0.87971934  1
  O  O183  1  0.88075589  0.38016618  0.38011966  1
  O  O184  1  0.88302223  0.38055765  0.88277062  1
  O  O185  1  0.87626909  0.88238152  0.38166352  1
  O  O186  1  0.88539171  0.87286797  0.89357682  1
  O  O187  1  0.25650825  0.00549232  0.36761033  1
  O  O188  1  0.24960882  0.00805625  0.86417453  1
  O  O189  1  0.25472529  0.50953831  0.36145326  1
  O  O190  1  0.25833789  0.49942864  0.86169663  1
  O  O191  1  0.76027503  0.00582544  0.36688239  1
  O  O192  1  0.76002297  0.00575165  0.88450491  1
  O  O193  1  0.76031287  0.51194358  0.36600630  1
  O  O194  1  0.76587169  0.49464116  0.87065086  1
  O  O195  1  0.25432143  0.49274797  0.13447383  1
  O  O196  1  0.23980875  0.50510479  0.63430275  1
  O  O197  1  0.24160000  1.00582739  0.13189488  1
  O  O198  1  0.24754086  0.99272951  0.63875154  1
  O  O199  1  0.74675558  0.49026563  0.13019073  1
  O  O200  1  0.74880458  0.49480765  0.63692078  1
  O  O201  1  0.73569204  1.00224730  0.13359718  1
  O  O202  1  0.73781928  1.00307177  0.62128651  1
  O  O203  1  0.00672385  0.37021787  0.25229942  1
  O  O204  1  0.01037451  0.36624275  0.75487350  1
  O  O205  1  0.01180895  0.86711236  0.24702555  1
  O  O206  1  0.00232912  0.86788402  0.75873527  1
  O  O207  1  0.50422412  0.37171246  0.26289255  1
  O  O208  1  0.49873213  0.37562649  0.76043901  1
  O  O209  1  0.45958345  0.86589680  0.25742178  1
  O  O210  1  0.49414923  0.86226740  0.74257624  1
  O  O211  1  0.49100063  0.13696029  0.25868844  1
  O  O212  1  0.49134076  0.11917435  0.74268505  1
  O  O213  1  0.48506227  0.62563053  0.25134525  1
  O  O214  1  0.49425184  0.62922936  0.73794370  1
  O  O215  1  0.99048315  0.13138431  0.24613316  1
  O  O216  1  0.99969532  0.14317427  0.76030769  1
  O  O217  1  0.98926145  0.62848516  0.24979538  1
  O  O218  1  1.00119907  0.63223131  0.74510130  1
  O  O219  1  0.36450099  0.24864745  -0.00027969  1
  O  O220  1  0.37140932  0.24864788  0.51345663  1
  O  O221  1  0.36892403  0.74940835  0.00617951  1
  O  O222  1  0.37159771  0.76508372  0.49610803  1
  O  O223  1  0.87239257  0.25668982  0.00722955  1
  O  O224  1  0.87702764  0.25283077  0.50478968  1
  O  O225  1  0.87015187  0.75281338  0.00679961  1
  O  O226  1  0.87576054  0.75602865  0.50635476  1
  O  O227  1  0.11943821  0.23798154  0.49278306  1
  O  O228  1  0.13568525  0.24540645  0.99587057  1
  O  O229  1  0.12479361  0.74097067  0.49844639  1
  O  O230  1  0.13429676  0.75329677  1.00178007  1
  O  O231  1  0.63254075  0.23108966  0.49205837  1
  O  O232  1  0.62474893  0.23929285  1.00344275  1
  O  O233  1  0.62740745  0.75533992  0.48794774  1
  O  O234  1  0.63121635  0.73946242  0.99380442  1
  O  O235  1  0.49881864  0.26209673  0.14144371  1
  O  O236  1  0.48596725  0.23363767  0.62435259  1
  O  O237  1  0.48691309  0.75106579  0.12306405  1
  O  O238  1  0.50537744  0.74055084  0.63820502  1
  O  O239  1  0.99216135  0.24929712  0.12947629  1
  O  O240  1  0.99120868  0.25315361  0.63283423  1
  O  O241  1  0.98953893  0.74610725  0.13590817  1
  O  O242  1  0.99544808  0.74291401  0.63323999  1
  O  O243  1  0.00794749  0.25419049  0.36825705  1
  O  O244  1  0.00609794  0.25728756  0.87056567  1
  O  O245  1  0.00235169  0.74411749  0.35965686  1
  O  O246  1  -0.00090153  0.75609367  0.86977349  1
  O  O247  1  0.50061816  0.25879760  0.37028047  1
  O  O248  1  0.50524235  0.25930127  0.86825973  1
  O  O249  1  0.49775927  0.75827285  0.36526800  1
  O  O250  1  0.51145112  0.74725239  0.85989139  1
  O  O251  1  0.23116076  0.12382488  0.49902524  1
  O  O252  1  0.24576008  0.13069970  0.99569984  1
  O  O253  1  0.24268627  0.62804014  0.49126145  1
  O  O254  1  0.25034537  0.63889698  0.99561488  1
  O  O255  1  0.74615516  0.12481093  0.49244007  1
  O  O256  1  0.73843819  0.12824104  0.99296748  1
  O  O257  1  0.75551584  0.62345080  0.48874768  1
  O  O258  1  0.75210201  0.63322886  0.99826858  1
  O  O259  1  0.25128195  0.36766683  0.00688927  1
  O  O260  1  0.25169825  0.37247459  0.49666994  1
  O  O261  1  0.25062460  0.86265348  -0.00264228  1
  O  O262  1  0.25324609  0.87666689  0.51051170  1
  O  O263  1  0.75318102  0.37600211  0.00738487  1
  O  O264  1  0.76309985  0.36289288  0.48992535  1
  O  O265  1  0.75975732  0.86312319  -0.00167285  1
  O  O266  1  0.76681671  0.87460501  0.49855536  1
  O  O267  1  0.13219906  0.49007563  0.25498567  1
  O  O268  1  0.13067467  0.49343171  0.74343598  1
  O  O269  1  0.13189504  0.99697374  0.24241005  1
  O  O270  1  0.12915935  0.99201754  0.75592088  1
  O  O271  1  0.62907884  0.49671885  0.24188472  1
  O  O272  1  0.63805625  0.50077686  0.75575827  1
  O  O273  1  0.63066094  1.00454384  0.23611378  1
  O  O274  1  0.62522051  1.00234877  0.73617168  1
  O  O275  1  0.36991575  0.00871013  0.25554589  1
  O  O276  1  0.36575355  0.01247588  0.74842222  1
  O  O277  1  0.36592715  0.50924591  0.25281202  1
  O  O278  1  0.36685544  0.50719111  0.75427493  1
  O  O279  1  0.86967351  0.00411120  0.25332450  1
  O  O280  1  0.90473374  0.02543803  0.75378933  1
  O  O281  1  0.87184910  0.50593849  0.25444801  1
  O  O282  1  0.88179024  0.49971652  0.76480641  1
  O  O283  1  0.11846839  0.36781170  0.36370461  1
  O  O284  1  0.12149021  0.36813593  0.86567133  1
  O  O285  1  0.13095748  0.87694588  0.36126370  1
  O  O286  1  0.11224502  0.87373340  0.86711860  1
  O  O287  1  0.61370164  0.36563898  0.38012050  1
  O  O288  1  0.61328099  0.37149986  0.87709841  1
  O  O289  1  0.62337503  0.88360176  0.36741607  1
  O  O290  1  0.62690081  0.85921928  0.88160350  1
  O  O291  1  0.37305943  0.12980387  0.14033876  1
  O  O292  1  0.38103395  0.12900079  0.63083681  1
  O  O293  1  0.37371633  0.63289958  0.12921927  1
  O  O294  1  0.37242435  0.62733896  0.63723485  1
  O  O295  1  0.87209135  0.13364720  0.12948853  1
  O  O296  1  0.87393421  0.13458783  0.63323980  1
  O  O297  1  0.88017677  0.62926018  0.13370607  1
  O  O298  1  0.88599604  0.63019076  0.62477951  1
  O  O299  1  0.25109765  0.25693887  0.11654212  1
  O  O300  1  0.26486915  0.24469600  0.62262252  1
  O  O301  1  0.26014429  0.74975700  0.10945128  1
  O  O302  1  0.24452750  0.76543484  0.62754433  1
  O  O303  1  0.75299869  0.26370379  0.12586126  1
  O  O304  1  0.76543568  0.24819794  0.61609427  1
  O  O305  1  0.76387078  0.74320744  0.11590013  1
  O  O306  1  0.76361719  0.74149649  0.62756114  1
  O  O307  1  0.23528258  0.24801607  0.37562752  1
  O  O308  1  0.24581560  0.24455513  0.88078282  1
  O  O309  1  0.24790373  0.73999604  0.37348172  1
  O  O310  1  0.24726096  0.74888374  0.88733463  1
  O  O311  1  0.74547170  0.23961463  0.37883380  1
  O  O312  1  0.74784149  0.24161547  0.87663676  1
  O  O313  1  0.75604064  0.73189323  0.37746177  1
  O  O314  1  0.73866986  0.74913863  0.87948714  1
  O  O315  1  0.00566929  0.11678057  -0.00176338  1
  O  O316  1  0.00946835  0.11022516  0.49793043  1
  O  O317  1  0.00031423  0.60788922  0.00234627  1
  O  O318  1  0.00818411  0.61837982  0.50285028  1
  O  O319  1  0.51507332  0.11977960  -0.00297605  1
  O  O320  1  0.50750965  0.11688798  0.50521123  1
  O  O321  1  0.50776295  0.62861572  -0.00382229  1
  O  O322  1  0.49084587  0.62476737  0.51664070  1
  O  O323  1  0.48482143  0.38834830  0.48633176  1
  O  O324  1  0.49441383  0.37206738  0.97942749  1
  O  O325  1  0.48933622  0.88855222  0.50565403  1
  O  O326  1  0.50403879  0.89176901  1.00230290  1
  O  O327  1  0.99218904  0.37997368  0.49282730  1
  O  O328  1  0.99566587  0.38135525  0.99604319  1
  O  O329  1  0.99647416  0.88829503  0.49847643  1
  O  O330  1  0.99568092  0.87801256  0.99687117  1
  O  O331  1  0.48900396  0.49822152  0.37642826  1
  O  O332  1  0.48878767  0.49394519  0.86659774  1
  O  O333  1  0.49107121  1.00066088  0.38470387  1
  O  O334  1  0.50522188  1.00598676  0.89127415  1
  O  O335  1  0.99367640  0.49556607  0.38126694  1
  O  O336  1  0.99326506  0.49223930  0.88404722  1
  O  O337  1  0.98850138  1.00367151  0.37436511  1
  O  O338  1  0.98518307  0.98801936  0.88155686  1
  O  O339  1  0.00850868  0.00219620  0.11721002  1
  O  O340  1  -0.00693135  -0.00542498  0.61500336  1
  O  O341  1  -0.00623035  0.49543738  0.10842829  1
  O  O342  1  0.01052633  0.50397359  0.62002207  1
  O  O343  1  0.51500671  0.00342103  0.11684182  1
  O  O344  1  0.50476883  0.01037098  0.61768034  1
  O  O345  1  0.51012141  0.49292082  0.12791469  1
  O  O346  1  0.49328124  0.51748503  0.61674795  1
  O  O347  1  0.24313550  0.38208704  0.24345591  1
  O  O348  1  0.23925539  0.38171000  0.75161424  1
  O  O349  1  0.24873141  0.89066441  0.25089737  1
  O  O350  1  0.23993290  0.88172409  0.74680465  1
  O  O351  1  0.74176358  0.38132491  0.24545595  1
  O  O352  1  0.76223396  0.39259023  0.75185191  1
  O  O353  1  0.75816264  0.88573694  0.24932330  1
  O  O354  1  0.82023508  0.90941261  0.76783272  1
  O  O355  1  0.25700102  0.11664334  0.25375857  1
  O  O356  1  0.25391692  0.11838688  0.75465876  1
  O  O357  1  0.25352295  0.61997019  0.25342652  1
  O  O358  1  0.25544632  0.61860981  0.75259840  1
  O  O359  1  0.75574283  0.11967382  0.25433200  1
  O  O360  1  0.76358730  0.12320447  0.76005476  1
  O  O361  1  0.76292496  0.62008170  0.25265520  1
  O  O362  1  0.75732041  0.60636510  0.74974524  1
  O  O363  1  0.37197386  0.11752988  0.37004617  1
  O  O364  1  0.37099713  0.12225061  0.86656974  1
  O  O365  1  0.36751026  0.61908176  0.36629171  1
  O  O366  1  0.37623380  0.61345336  0.86270417  1
  O  O367  1  0.87035935  0.11794153  0.36766079  1
  O  O368  1  0.86424115  0.12077329  0.86958353  1
  O  O369  1  0.87140506  0.61770764  0.36810591  1
  O  O370  1  0.88093732  0.60944461  0.87541369  1
  O  O371  1  0.13505378  0.36939255  0.13684665  1
  O  O372  1  0.11977127  0.38433316  0.63204853  1
  O  O373  1  0.12405201  0.88753903  0.13512565  1
  O  O374  1  0.12694561  0.87393482  0.63829155  1
  O  O375  1  0.63054738  0.38330329  0.12866110  1
  O  O376  1  0.62123574  0.36718462  0.60057533  1
  O  O377  1  0.62510046  0.88665329  0.12173543  1
  O  O378  1  0.62284973  0.88979998  0.62236628  1
  O  O379  1  0.12012937  0.25412266  0.25518094  1
  O  O380  1  0.12187206  0.25666392  0.75144356  1
  O  O381  1  0.11955279  0.76026263  0.24891631  1
  O  O382  1  0.11261463  0.75698433  0.75244187  1
  O  O383  1  0.61794912  0.25627295  0.25687246  1
  O  O384  1  0.63960360  0.25945975  0.73283140  1
  O  O385  1  0.62366443  0.74347425  0.25602963  1
  O  O386  1  0.61913366  0.74800584  0.76162303  1
  O  O387  1  0.38093721  0.24379599  0.25309080  1
  O  O388  1  0.36776762  0.23696743  0.73961896  1
  O  O389  1  0.36425593  0.73877468  0.22854604  1
  O  O390  1  0.38852986  0.74335635  0.75799997  1
  O  O391  1  0.87834428  0.24636463  0.24328966  1
  O  O392  1  0.88337946  0.24532196  0.74383098  1
  O  O393  1  0.88000935  0.74370144  0.24481158  1
  O  O394  1  0.88529079  0.74563026  0.74382155  1
  O  O395  1  0.37802489  0.50434776  0.48834982  1
  O  O396  1  0.36765507  0.50016158  0.98086023  1
  O  O397  1  0.38113423  1.00205355  0.49549047  1
  O  O398  1  0.39416565  1.00531151  1.00425301  1
  O  O399  1  0.87827360  0.49104168  0.49754853  1
  O  O400  1  0.88151654  0.49372577  0.99046528  1
  O  O401  1  0.88658864  0.99404899  0.49289058  1
  O  O402  1  0.87805484  0.98960153  1.00737432  1
  O  O403  1  0.11974558  0.00107201  0.00453690  1
  O  O404  1  0.11210844  0.00827707  0.49871075  1
  O  O405  1  0.11135753  0.49183283  -0.00503471  1
  O  O406  1  0.12281869  0.50708574  0.50541138  1
  O  O407  1  0.62039498  0.00811225  0.00942555  1
  O  O408  1  0.61829111  0.00813047  0.50508797  1
  O  O409  1  0.62589371  0.51406709  0.00386290  1
  O  O410  1  0.60370708  0.50535368  0.48776636  1
  O  O411  1  0.36312269  0.37169672  0.12279902  1
  O  O412  1  0.38327213  0.35910146  0.62869697  1
  O  O413  1  0.37488030  0.86131882  0.11427559  1
  O  O414  1  0.36241711  0.88383775  0.61579793  1
  O  O415  1  0.86553533  0.36969262  0.11999133  1
  O  O416  1  0.88168739  0.36653428  0.61331821  1
  O  O417  1  0.88089266  0.86378811  0.11849728  1
  O  O418  1  0.88386933  0.85905495  0.61118119  1
  O  O419  1  0.12270026  0.13319372  0.38012881  1
  O  O420  1  0.13013321  0.13001748  0.88148261  1
  O  O421  1  0.13257375  0.62545740  0.38371111  1
  O  O422  1  0.12863138  0.62612161  0.88436521  1
  O  O423  1  0.63062657  0.12492259  0.38025637  1
  O  O424  1  0.63613124  0.12919786  0.88133579  1
  O  O425  1  0.64227736  0.62010221  0.37149095  1
  O  O426  1  0.62283930  0.63331317  0.88844605  1
