# generated using pymatgen
data_V85Zn86O256
_symmetry_space_group_name_H-M   'P 1'
_cell_length_a   16.91991355
_cell_length_b   16.92208929
_cell_length_c   16.91787736
_cell_angle_alpha   89.97875737
_cell_angle_beta   90.01770727
_cell_angle_gamma   89.98950076
_symmetry_Int_Tables_number   1
_chemical_formula_structural   V85Zn86O256
_chemical_formula_sum   'V85 Zn86 O256'
_cell_volume   4843.93086926
_cell_formula_units_Z   1
loop_
 _symmetry_equiv_pos_site_id
 _symmetry_equiv_pos_as_xyz
  1  'x, y, z'
loop_
 _atom_site_type_symbol
 _atom_site_label
 _atom_site_symmetry_multiplicity
 _atom_site_fract_x
 _atom_site_fract_y
 _atom_site_fract_z
 _atom_site_occupancy
  V  V0  1  0.00120999  0.37545947  0.87507454  1
  V  V1  1  0.75811461  0.12681539  0.37049046  1
  V  V2  1  0.87796455  0.75306698  0.62965789  1
  V  V3  1  0.37714657  0.74319967  0.62427077  1
  V  V4  1  0.13299454  0.38078977  0.74967547  1
  V  V5  1  0.00561230  0.87077744  0.36047986  1
  V  V6  1  0.88067025  0.74933532  0.13787394  1
  V  V7  1  0.75437544  0.12314513  0.87432056  1
  V  V8  1  0.25385659  0.87512369  0.63724426  1
  V  V9  1  0.37619299  0.36656491  0.48992905  1
  V  V10  1  0.50953505  0.87078114  0.37581077  1
  V  V11  1  0.36451323  -0.00247821  0.87120835  1
  V  V12  1  0.00042573  0.25095706  0.75009592  1
  V  V13  1  0.87697493  0.62613266  0.75000037  1
  V  V14  1  0.62255663  -0.00581482  0.12641308  1
  V  V15  1  0.24778839  -0.00224721  0.25334804  1
  V  V16  1  0.37353671  0.87326334  0.50238671  1
  V  V17  1  -0.00359291  0.62003007  0.13807338  1
  V  V18  1  0.62797292  0.12138732  0.50447804  1
  V  V19  1  0.61859063  0.25327143  0.37501136  1
  V  V20  1  0.13387102  0.13046101  0.49767612  1
  V  V21  1  -0.00669344  -0.00568483  -0.01153051  1
  V  V22  1  0.62222215  0.11022997  -0.00226514  1
  V  V23  1  0.24961986  0.62215289  0.87500290  1
  V  V24  1  0.75086022  0.24781421  0.00108630  1
  V  V25  1  0.10978144  0.87169972  0.75169047  1
  V  V26  1  0.12963726  0.38301067  0.24510247  1
  V  V27  1  -0.00311167  0.12142966  0.13496611  1
  V  V28  1  0.49870097  0.49975176  0.00123594  1
  V  V29  1  0.37754793  0.87906730  0.00350997  1
  V  V30  1  0.74126699  0.88040580  0.62271607  1
  V  V31  1  0.37387383  0.37346493  -0.00054387  1
  V  V32  1  0.24879169  0.24590760  0.00162537  1
  V  V33  1  0.11166886  0.75222995  0.87107634  1
  V  V34  1  0.49592266  0.50400682  0.48355604  1
  V  V35  1  0.61906532  0.37784123  0.25306377  1
  V  V36  1  0.74934817  0.25192914  0.49978544  1
  V  V37  1  0.87699887  0.50958070  0.36828159  1
  V  V38  1  0.74279878  0.00346695  0.74320793  1
  V  V39  1  0.50421551  -0.00202431  0.50903429  1
  V  V40  1  0.87620317  0.37717692  0.50095934  1
  V  V41  1  0.50345055  0.88391957  0.87856820  1
  V  V42  1  0.75316662  0.75006377  0.00217301  1
  V  V43  1  0.24790533  0.38391233  0.12509225  1
  V  V44  1  0.62202297  0.24890039  0.87505903  1
  V  V45  1  0.37503451  0.24861430  0.12702327  1
  V  V46  1  0.87735843  0.12080328  0.75309065  1
  V  V47  1  0.87343945  0.49845355  0.87448873  1
  V  V48  1  0.48665351  0.63147330  0.12386265  1
  V  V49  1  0.87672764  0.87626978  0.49866809  1
  V  V50  1  0.13023167  0.75046639  0.36467582  1
  V  V51  1  0.25146613  0.87073826  0.12905617  1
  V  V52  1  0.13894952  0.50371293  0.62689283  1
  V  V53  1  0.61250832  0.50772654  0.62553434  1
  V  V54  1  0.50077856  0.13371026  0.62494481  1
  V  V55  1  0.74593285  0.63147444  0.36780166  1
  V  V56  1  0.13134843  -0.00143566  0.63175634  1
  V  V57  1  0.00033314  0.12565732  0.62476356  1
  V  V58  1  0.49581325  0.74322539  0.25515875  1
  V  V59  1  0.00261409  0.37300776  0.37400056  1
  V  V60  1  0.36722628  0.12489074  0.74299400  1
  V  V61  1  0.62456472  0.75058170  0.87438896  1
  V  V62  1  0.35199871  0.51210087  0.36279357  1
  V  V63  1  0.25263451  0.75012249  0.00075732  1
  V  V64  1  0.75581209  0.00183953  0.24857732  1
  V  V65  1  0.74233823  0.74936579  0.49821799  1
  V  V66  1  0.00423315  0.63047861  0.62798150  1
  V  V67  1  0.25975702  0.36191071  0.62263623  1
  V  V68  1  0.87626004  0.37311598  0.00126401  1
  V  V69  1  0.12442848  0.12198210  0.00268420  1
  V  V70  1  0.87460397  0.24563073  0.13771878  1
  V  V71  1  0.37144219  0.49974591  0.87449208  1
  V  V72  1  0.50013836  0.74615024  0.74885870  1
  V  V73  1  0.62479927  0.62360083  0.00206857  1
  V  V74  1  0.12034202  0.62081771  0.00510993  1
  V  V75  1  0.49848495  0.37392744  0.87441086  1
  V  V76  1  0.37397432  0.61963228  0.74826774  1
  V  V77  1  0.00346036  -0.00257507  0.50052968  1
  V  V78  1  0.00234218  0.50354109  0.50211874  1
  V  V79  1  0.12294376  -0.00823555  0.12927071  1
  V  V80  1  0.74705287  0.37968707  0.62437030  1
  V  V81  1  0.74943933  0.37725414  0.12756903  1
  V  V82  1  0.37816068  -0.00259507  0.37406987  1
  V  V83  1  0.49893658  0.11892303  0.12353128  1
  V  V84  1  0.12622862  0.24984142  0.87584499  1
  Zn  Zn85  1  0.87379220  0.25213612  0.62618411  1
  Zn  Zn86  1  0.74816294  0.62251114  0.87261600  1
  Zn  Zn87  1  0.49922333  0.25154103  0.25087343  1
  Zn  Zn88  1  0.75307647  0.50689724  0.24638633  1
  Zn  Zn89  1  0.62327356  0.37526597  0.74877549  1
  Zn  Zn90  1  0.24687818  0.11922696  0.86991259  1
  Zn  Zn91  1  0.13856274  0.25539195  0.37537856  1
  Zn  Zn92  1  0.88051450  0.00401926  0.36691285  1
  Zn  Zn93  1  0.62789171  0.86864122  0.25441895  1
  Zn  Zn94  1  0.49569444  0.25072437  0.74678153  1
  Zn  Zn95  1  0.00258164  0.24524729  0.25542181  1
  Zn  Zn96  1  0.75457740  0.87365609  0.12843838  1
  Zn  Zn97  1  0.62481146  0.50162120  0.12726789  1
  Zn  Zn98  1  0.25031164  0.74492425  0.49456504  1
  Zn  Zn99  1  0.25765717  0.12960566  0.37760087  1
  Zn  Zn100  1  0.62217119  0.87935707  0.74642177  1
  Zn  Zn101  1  0.37675743  0.12407635  0.25049556  1
  Zn  Zn102  1  0.74779844  0.50114550  0.74659012  1
  Zn  Zn103  1  0.88676246  0.86795285  -0.01150622  1
  Zn  Zn104  1  0.61871582  0.62935649  0.49854945  1
  Zn  Zn105  1  0.00196486  0.49842379  0.00555302  1
  Zn  Zn106  1  0.13206757  0.62657212  0.49028824  1
  Zn  Zn107  1  0.18717927  0.18835792  0.19404155  1
  Zn  Zn108  1  0.18741572  0.18873431  0.68613530  1
  Zn  Zn109  1  0.17386420  0.69533000  0.19689096  1
  Zn  Zn110  1  0.19207819  0.68849400  0.68902372  1
  Zn  Zn111  1  0.68534134  0.18627386  0.18847906  1
  Zn  Zn112  1  0.68546003  0.19086226  0.68633189  1
  Zn  Zn113  1  0.68316094  0.69105563  0.18745304  1
  Zn  Zn114  1  0.69019973  0.68738995  0.68597125  1
  Zn  Zn115  1  0.31081726  0.31358603  0.31332291  1
  Zn  Zn116  1  0.31107828  0.30733524  0.80997339  1
  Zn  Zn117  1  0.31683119  0.80940843  0.30854165  1
  Zn  Zn118  1  0.31039077  0.80950156  0.81438136  1
  Zn  Zn119  1  0.81054048  0.31719163  0.31463585  1
  Zn  Zn120  1  0.81146064  0.31094762  0.80920001  1
  Zn  Zn121  1  0.81336617  0.81561097  0.31375313  1
  Zn  Zn122  1  0.81535005  0.81334473  0.81053000  1
  Zn  Zn123  1  0.18935639  0.43647567  0.44038454  1
  Zn  Zn124  1  0.18921222  0.43937542  0.94184666  1
  Zn  Zn125  1  0.18916298  0.93289765  0.44131308  1
  Zn  Zn126  1  0.18416146  0.93429031  0.93822702  1
  Zn  Zn127  1  0.68631199  0.44312682  0.43686894  1
  Zn  Zn128  1  0.68814394  0.43694408  0.93841763  1
  Zn  Zn129  1  0.68962650  0.94139768  0.43668933  1
  Zn  Zn130  1  0.72252281  0.92045309  0.91976729  1
  Zn  Zn131  1  0.31277492  0.05727448  0.06215657  1
  Zn  Zn132  1  0.31418032  0.05860288  0.56540473  1
  Zn  Zn133  1  0.27990633  0.59163339  0.11721936  1
  Zn  Zn134  1  0.31567187  0.56271665  0.55704496  1
  Zn  Zn135  1  0.81306800  0.06185386  0.06368415  1
  Zn  Zn136  1  0.81550398  0.06350866  0.56211682  1
  Zn  Zn137  1  0.81530884  0.56473705  0.06226702  1
  Zn  Zn138  1  0.81204847  0.56441873  0.55977002  1
  Zn  Zn139  1  0.43689259  0.44113744  0.18780991  1
  Zn  Zn140  1  0.43638059  0.43679638  0.68746090  1
  Zn  Zn141  1  0.43840592  0.93315980  0.18969567  1
  Zn  Zn142  1  0.43861507  0.93873932  0.69086988  1
  Zn  Zn143  1  0.93953404  0.43660342  0.18995948  1
  Zn  Zn144  1  0.93980339  0.44037985  0.68740865  1
  Zn  Zn145  1  0.93364835  0.93513300  0.18029900  1
  Zn  Zn146  1  0.93394492  0.94112536  0.68793332  1
  Zn  Zn147  1  0.06542437  0.05757596  0.31404297  1
  Zn  Zn148  1  0.06513620  0.06092505  0.81227057  1
  Zn  Zn149  1  0.06956385  0.56268610  0.31128516  1
  Zn  Zn150  1  0.06107207  0.56315299  0.81264695  1
  Zn  Zn151  1  0.56534783  0.06325371  0.31227249  1
  Zn  Zn152  1  0.56092974  0.06194608  0.80982546  1
  Zn  Zn153  1  0.56551805  0.56616732  0.30888105  1
  Zn  Zn154  1  0.56089134  0.56246411  0.81164854  1
  Zn  Zn155  1  0.43818241  0.18537484  0.43719620  1
  Zn  Zn156  1  0.43716283  0.18143166  0.93796718  1
  Zn  Zn157  1  0.43427041  0.68323211  0.43512055  1
  Zn  Zn158  1  0.43623993  0.69106159  0.93941883  1
  Zn  Zn159  1  0.93880956  0.18909219  0.44082077  1
  Zn  Zn160  1  0.93891044  0.18552836  0.94172901  1
  Zn  Zn161  1  0.93921109  0.69019574  0.43765223  1
  Zn  Zn162  1  0.93639999  0.68376248  0.93978981  1
  Zn  Zn163  1  0.06109489  0.31052910  0.06630372  1
  Zn  Zn164  1  0.06494720  0.31414484  0.56468089  1
  Zn  Zn165  1  0.06267086  0.80955171  0.06202055  1
  Zn  Zn166  1  0.06706853  0.81058936  0.55922329  1
  Zn  Zn167  1  0.56359119  0.30869948  0.06247910  1
  Zn  Zn168  1  0.55967751  0.31801256  0.55852256  1
  Zn  Zn169  1  0.56118521  0.81031827  0.06258606  1
  Zn  Zn170  1  0.55984287  0.81064303  0.56410594  1
  O  O171  1  0.11890740  0.11624301  0.11945350  1
  O  O172  1  0.12164979  0.11733130  0.61874541  1
  O  O173  1  0.10506047  0.63845296  0.11515156  1
  O  O174  1  0.11764436  0.61841415  0.63367444  1
  O  O175  1  0.61965881  0.11645297  0.11787853  1
  O  O176  1  0.61966857  0.12859698  0.61219402  1
  O  O177  1  0.61925033  0.62384704  0.11262178  1
  O  O178  1  0.63004457  0.61086895  0.62086782  1
  O  O179  1  0.36839230  0.38582271  0.38701663  1
  O  O180  1  0.37978906  0.37640935  0.87777698  1
  O  O181  1  0.38475578  0.88220665  0.38145643  1
  O  O182  1  0.38148380  0.88074942  0.87773699  1
  O  O183  1  0.88182543  0.38383073  0.38189147  1
  O  O184  1  0.87873666  0.37925465  0.87855779  1
  O  O185  1  0.88613324  0.87719495  0.38395277  1
  O  O186  1  0.83268517  0.88533133  0.89115860  1
  O  O187  1  0.25832908  -0.00230085  0.36941346  1
  O  O188  1  0.26008364  -0.00169192  0.87586166  1
  O  O189  1  0.25229487  0.50450598  0.37508913  1
  O  O190  1  0.25470383  0.51419309  0.88184707  1
  O  O191  1  0.75314535  0.00878854  0.36732214  1
  O  O192  1  0.74287649  0.01903097  0.86342848  1
  O  O193  1  0.75987522  0.51413318  0.37775710  1
  O  O194  1  0.76085040  0.49877713  0.87150885  1
  O  O195  1  0.25498827  0.48049906  0.10467053  1
  O  O196  1  0.24049895  0.49280926  0.62404125  1
  O  O197  1  0.24238253  0.99185181  0.13044547  1
  O  O198  1  0.24150968  0.98984219  0.62366833  1
  O  O199  1  0.75073430  0.49140157  0.12545215  1
  O  O200  1  0.73980349  0.49393345  0.62133395  1
  O  O201  1  0.74208915  0.99955676  0.13099266  1
  O  O202  1  0.75483557  0.99244745  0.62967663  1
  O  O203  1  0.00884474  0.37203432  0.25780061  1
  O  O204  1  0.00814805  0.36996348  0.75467583  1
  O  O205  1  -0.00407901  0.88264664  0.26291005  1
  O  O206  1  0.00977920  0.87668315  0.74541874  1
  O  O207  1  0.51568052  0.37178011  0.24064672  1
  O  O208  1  0.49955740  0.37105768  0.76169640  1
  O  O209  1  0.50402811  0.86828356  0.26050329  1
  O  O210  1  0.50177443  0.86454222  0.75808816  1
  O  O211  1  0.50066989  0.12828954  0.23790991  1
  O  O212  1  0.49357896  0.12497632  0.73982558  1
  O  O213  1  0.50190646  0.63246969  0.23773933  1
  O  O214  1  0.49062343  0.63868783  0.75881922  1
  O  O215  1  1.00373087  0.12314123  0.23964432  1
  O  O216  1  0.99443893  0.12879629  0.74705404  1
  O  O217  1  1.00153893  0.62233650  0.23704302  1
  O  O218  1  0.98710201  0.62071755  0.74174663  1
  O  O219  1  0.36979488  0.25165304  0.00779273  1
  O  O220  1  0.38341331  0.26734641  0.49503496  1
  O  O221  1  0.36042277  0.76143631  -0.00725567  1
  O  O222  1  0.37760003  0.75488008  0.50901090  1
  O  O223  1  0.86927906  0.25527425  0.00761145  1
  O  O224  1  0.86789298  0.25860442  0.50313584  1
  O  O225  1  0.86538459  0.74936695  0.00162519  1
  O  O226  1  0.87001809  0.76051533  0.50990637  1
  O  O227  1  0.11859211  0.23280298  0.50074408  1
  O  O228  1  0.12738472  0.24050043  0.99721781  1
  O  O229  1  0.12713782  0.75048705  0.48594602  1
  O  O230  1  0.13118105  0.74569345  0.98770124  1
  O  O231  1  0.63006488  0.24679956  0.49315802  1
  O  O232  1  0.63177604  0.24125506  0.99104093  1
  O  O233  1  0.63802319  0.74957178  0.50535564  1
  O  O234  1  0.62654020  0.74042445  0.99281394  1
  O  O235  1  0.49112914  0.24146667  0.12386830  1
  O  O236  1  0.50483820  0.23807210  0.62438053  1
  O  O237  1  0.50059877  0.73706737  0.12941517  1
  O  O238  1  0.48800907  0.75407080  0.63476622  1
  O  O239  1  0.99101707  0.23953833  0.12648036  1
  O  O240  1  1.00050904  0.24450861  0.63288061  1
  O  O241  1  0.98671865  0.74274764  0.11918206  1
  O  O242  1  0.99350995  0.73912590  0.61942312  1
  O  O243  1  -0.00018339  0.26417156  0.37747556  1
  O  O244  1  0.00674610  0.25510542  0.87118964  1
  O  O245  1  0.00450348  0.76604482  0.37980506  1
  O  O246  1  0.01287560  0.74687492  0.87744828  1
  O  O247  1  0.51457299  0.24516969  0.37268244  1
  O  O248  1  0.50656245  0.25597869  0.87764851  1
  O  O249  1  0.49712762  0.75448949  0.36547567  1
  O  O250  1  0.50906616  0.75800887  0.87071123  1
  O  O251  1  0.23623829  0.11714253  0.50236776  1
  O  O252  1  0.23782242  0.12639096  1.00145558  1
  O  O253  1  0.24304047  0.63207352  0.51205627  1
  O  O254  1  0.24043813  0.63525953  1.00401371  1
  O  O255  1  0.74396253  0.13013029  0.49625644  1
  O  O256  1  0.74534082  0.12883823  0.99179077  1
  O  O257  1  0.74926628  0.63542488  0.49290506  1
  O  O258  1  0.74201296  0.63202486  0.99736705  1
  O  O259  1  0.25293100  0.36271235  0.00346106  1
  O  O260  1  0.26278144  0.37994735  0.51248710  1
  O  O261  1  0.25599911  0.87010151  0.00524891  1
  O  O262  1  0.25816947  0.87122336  0.51346654  1
  O  O263  1  0.75349619  0.36821139  0.01029744  1
  O  O264  1  0.75383732  0.37383703  0.50774982  1
  O  O265  1  0.73212007  0.85368011  0.01358116  1
  O  O266  1  0.75811811  0.87168137  0.50288445  1
  O  O267  1  0.12011600  0.48224487  0.24910791  1
  O  O268  1  0.11981583  0.48799594  0.74304343  1
  O  O269  1  0.13394301  1.00054949  0.24109447  1
  O  O270  1  0.12178984  0.99222148  0.73930765  1
  O  O271  1  0.63156993  0.49261813  0.24797190  1
  O  O272  1  0.62479905  0.49912527  0.73830858  1
  O  O273  1  0.63475700  0.99856209  0.24229924  1
  O  O274  1  0.63771459  1.00171010  0.74796332  1
  O  O275  1  0.37084803  -0.00021763  0.25933745  1
  O  O276  1  0.37927984  0.01245032  0.75793333  1
  O  O277  1  0.37345064  0.49085208  0.26582654  1
  O  O278  1  0.38273125  0.51182066  0.75793026  1
  O  O279  1  0.86127264  -0.00236701  0.24716610  1
  O  O280  1  0.86500461  0.01447661  0.74651112  1
  O  O281  1  0.87217634  0.49438490  0.26489617  1
  O  O282  1  0.87279792  0.50695705  0.75610700  1
  O  O283  1  0.11885067  0.37536127  0.36848855  1
  O  O284  1  0.12394096  0.37203367  0.86757149  1
  O  O285  1  0.11087131  0.87188837  0.38054395  1
  O  O286  1  0.12938511  0.86116549  0.86694761  1
  O  O287  1  0.63545790  0.36635461  0.36534149  1
  O  O288  1  0.61756092  0.36704313  0.87511975  1
  O  O289  1  0.61284487  0.87706036  0.37900538  1
  O  O290  1  0.62112635  0.86790322  0.87238198  1
  O  O291  1  0.38242774  0.12934140  0.12304666  1
  O  O292  1  0.38217060  0.12044568  0.63555497  1
  O  O293  1  0.39018713  0.62547577  0.10740199  1
  O  O294  1  0.37269145  0.63113842  0.63654409  1
  O  O295  1  0.88424309  0.13394851  0.12036222  1
  O  O296  1  0.88316146  0.12847426  0.63205081  1
  O  O297  1  0.88597479  0.63619956  0.12129124  1
  O  O298  1  0.88162769  0.63222823  0.62965982  1
  O  O299  1  0.25786898  0.25284933  0.11980113  1
  O  O300  1  0.24791650  0.26343204  0.62249036  1
  O  O301  1  0.23864354  0.76584029  0.11558640  1
  O  O302  1  0.26444499  0.75744352  0.62852745  1
  O  O303  1  0.75633728  0.25376643  0.12148638  1
  O  O304  1  0.74852363  0.26081188  0.61760507  1
  O  O305  1  0.76283324  0.74412185  0.11963079  1
  O  O306  1  0.75836750  0.75768316  0.61792116  1
  O  O307  1  0.25131347  0.24229356  0.37458190  1
  O  O308  1  0.24297541  0.24502008  0.88319974  1
  O  O309  1  0.23517907  0.76306685  0.37368252  1
  O  O310  1  0.24342603  0.73941107  0.88304246  1
  O  O311  1  0.74414101  0.24432191  0.38030407  1
  O  O312  1  0.74211237  0.24252749  0.87792209  1
  O  O313  1  0.75860273  0.73984275  0.38318652  1
  O  O314  1  0.73606975  0.74536412  0.87997233  1
  O  O315  1  0.00939268  0.11742560  0.00896485  1
  O  O316  1  0.00633895  0.11372816  0.50363836  1
  O  O317  1  0.00607876  0.62147496  0.00526798  1
  O  O318  1  0.00398051  0.61813287  0.50853595  1
  O  O319  1  0.51005819  0.12650666  0.01070910  1
  O  O320  1  0.50653017  0.11781589  0.50610584  1
  O  O321  1  0.50627657  0.62328835  0.00602059  1
  O  O322  1  0.50060721  0.60987349  0.49836006  1
  O  O323  1  0.48448830  0.38893197  0.50615539  1
  O  O324  1  0.49643376  0.37634336  0.99112455  1
  O  O325  1  0.49539778  0.88060347  0.49667918  1
  O  O326  1  0.48962625  0.86689440  0.99066602  1
  O  O327  1  0.99858224  0.38320018  0.49495363  1
  O  O328  1  0.99586936  0.37606603  0.99396159  1
  O  O329  1  0.99436551  0.88535684  0.50167129  1
  O  O330  1  1.00325426  0.88939954  0.99905050  1
  O  O331  1  0.50436661  0.49902147  0.38338836  1
  O  O332  1  0.49603366  0.49071360  0.87968631  1
  O  O333  1  0.49610356  0.99312194  0.38291035  1
  O  O334  1  0.49412282  0.98724075  0.87024227  1
  O  O335  1  0.99641639  0.49448278  0.38222754  1
  O  O336  1  0.98868703  0.49326620  0.87521288  1
  O  O337  1  0.99956712  0.99072034  0.38346321  1
  O  O338  1  1.00154205  1.00599173  0.88995387  1
  O  O339  1  0.00680405  0.00457760  0.11992946  1
  O  O340  1  0.00690753  0.00559426  0.61858324  1
  O  O341  1  -0.00902300  0.51476587  0.12305466  1
  O  O342  1  0.00748551  0.50861120  0.61870105  1
  O  O343  1  0.50748730  0.00806350  0.12938102  1
  O  O344  1  0.49767960  0.00659519  0.61364600  1
  O  O345  1  0.50180455  0.51129426  0.11924459  1
  O  O346  1  0.51028189  0.49806838  0.62015487  1
  O  O347  1  0.23838671  0.37229182  0.24002431  1
  O  O348  1  0.24460248  0.37188570  0.73808692  1
  O  O349  1  0.25812833  0.88624835  0.24059578  1
  O  O350  1  0.24192421  0.86991819  0.74103958  1
  O  O351  1  0.74346285  0.37526217  0.23835096  1
  O  O352  1  0.74768208  0.37641787  0.73626392  1
  O  O353  1  0.74555892  0.88250253  0.24823973  1
  O  O354  1  0.74885365  0.88582044  0.73874750  1
  O  O355  1  0.25454050  0.10990766  0.24990459  1
  O  O356  1  0.26235802  0.12555934  0.74841300  1
  O  O357  1  0.24953619  0.62214069  0.21831296  1
  O  O358  1  0.26097137  0.62953239  0.76330934  1
  O  O359  1  0.74458408  0.11818555  0.26062123  1
  O  O360  1  0.75651587  0.12380797  0.75272020  1
  O  O361  1  0.74788478  0.62768466  0.26354657  1
  O  O362  1  0.76270345  0.62273327  0.75015089  1
  O  O363  1  0.37838226  0.10957027  0.37489169  1
  O  O364  1  0.37381438  0.11378218  0.86754829  1
  O  O365  1  0.37398395  0.61056546  0.37330055  1
  O  O366  1  0.36772950  0.62149987  0.87260231  1
  O  O367  1  0.86272614  0.12401857  0.38244145  1
  O  O368  1  0.86624156  0.13268430  0.86713105  1
  O  O369  1  0.86666920  0.61877318  0.38224824  1
  O  O370  1  0.87419640  0.61683622  0.86706018  1
  O  O371  1  0.13193604  0.36992460  0.13527601  1
  O  O372  1  0.13503562  0.38171789  0.63028215  1
  O  O373  1  0.13174387  0.88575079  0.11866909  1
  O  O374  1  0.13158007  0.87886654  0.63252363  1
  O  O375  1  0.63447505  0.37467842  0.12911284  1
  O  O376  1  0.62980366  0.38603460  0.62533429  1
  O  O377  1  0.61990064  0.88820599  0.12532300  1
  O  O378  1  0.63738102  0.87192918  0.62533867  1
  O  O379  1  0.12048237  0.25952231  0.25477532  1
  O  O380  1  0.12119618  0.25897507  0.75492624  1
  O  O381  1  0.11683748  0.76418877  0.26528511  1
  O  O382  1  0.12676639  0.75475109  0.76302857  1
  O  O383  1  0.62649260  0.25732785  0.25844254  1
  O  O384  1  0.62141125  0.25039966  0.76371243  1
  O  O385  1  0.60632232  0.75420571  0.24312660  1
  O  O386  1  0.61822994  0.74896902  0.75595384  1
  O  O387  1  0.37749686  0.24878666  0.23768709  1
  O  O388  1  0.37912972  0.22974488  0.75719624  1
  O  O389  1  0.39565298  0.75867243  0.24395911  1
  O  O390  1  0.38164634  0.74248503  0.74662037  1
  O  O391  1  0.87721422  0.25459314  0.24068946  1
  O  O392  1  0.88129023  0.24025327  0.74775654  1
  O  O393  1  0.87495730  0.75447196  0.23637351  1
  O  O394  1  0.87111907  0.74465155  0.73806868  1
  O  O395  1  0.38357199  0.49572399  0.48963831  1
  O  O396  1  0.38436933  0.48761983  0.98908435  1
  O  O397  1  0.38356293  0.99380961  0.49458904  1
  O  O398  1  0.37274324  0.98826825  0.98889029  1
  O  O399  1  0.88682423  0.49712841  0.49534137  1
  O  O400  1  0.87499876  0.49176654  0.99074983  1
  O  O401  1  0.88317429  0.98986126  0.49996801  1
  O  O402  1  0.89119073  1.00069667  1.00528704  1
  O  O403  1  0.11814787  0.00580471  0.00618232  1
  O  O404  1  0.11934486  0.00398229  0.51086858  1
  O  O405  1  0.12265169  0.51643898  -0.00513603  1
  O  O406  1  0.11587212  0.50105370  0.50873604  1
  O  O407  1  0.63325623  0.00925839  0.00571631  1
  O  O408  1  0.61739709  0.01011887  0.49568572  1
  O  O409  1  0.61863069  0.50725810  -0.00017766  1
  O  O410  1  0.61127540  0.49875745  0.50772649  1
  O  O411  1  0.37054884  0.36618755  0.11937202  1
  O  O412  1  0.36442806  0.37847295  0.61905674  1
  O  O413  1  0.36597820  0.88260263  0.11392807  1
  O  O414  1  0.37008865  0.86976743  0.62443640  1
  O  O415  1  0.86953141  0.36737872  0.12142524  1
  O  O416  1  0.86724356  0.37758271  0.61917070  1
  O  O417  1  0.87420985  0.86092295  0.11473024  1
  O  O418  1  0.86860324  0.86952865  0.61937475  1
  O  O419  1  0.12521141  0.12116795  0.39121889  1
  O  O420  1  0.12664860  0.12991307  0.88328835  1
  O  O421  1  0.11675295  0.64517581  0.37255047  1
  O  O422  1  0.12993127  0.63357793  0.87860494  1
  O  O423  1  0.63388080  0.13220229  0.38514833  1
  O  O424  1  0.62699516  0.13086161  0.88120972  1
  O  O425  1  0.64197047  0.62164911  0.37994206  1
  O  O426  1  0.62336414  0.63064536  0.88453979  1
