# generated using pymatgen
data_V85Zn86O256
_symmetry_space_group_name_H-M   'P 1'
_cell_length_a   16.92624335
_cell_length_b   16.94478288
_cell_length_c   16.93275738
_cell_angle_alpha   90.05405541
_cell_angle_beta   90.04108459
_cell_angle_gamma   89.96704813
_symmetry_Int_Tables_number   1
_chemical_formula_structural   V85Zn86O256
_chemical_formula_sum   'V85 Zn86 O256'
_cell_volume   4856.50564389
_cell_formula_units_Z   1
loop_
 _symmetry_equiv_pos_site_id
 _symmetry_equiv_pos_as_xyz
  1  'x, y, z'
loop_
 _atom_site_type_symbol
 _atom_site_label
 _atom_site_symmetry_multiplicity
 _atom_site_fract_x
 _atom_site_fract_y
 _atom_site_fract_z
 _atom_site_occupancy
  V  V0  1  0.11353160  0.00246102  0.12025567  1
  V  V1  1  0.26370205  0.36870636  0.11947539  1
  V  V2  1  0.62332840  -0.00113612  0.12805278  1
  V  V3  1  0.25009715  0.75513421  0.50481802  1
  V  V4  1  0.12352316  0.37341728  0.24609717  1
  V  V5  1  0.50163756  0.49510208  0.51243760  1
  V  V6  1  0.37806758  0.74781775  0.12728598  1
  V  V7  1  -0.00067702  -0.00630679  0.49055591  1
  V  V8  1  0.11697748  0.87569457  0.25354875  1
  V  V9  1  0.24748746  0.74878340  -0.00415556  1
  V  V10  1  0.62453484  0.74501802  0.87679370  1
  V  V11  1  0.11951632  0.75552273  0.37758005  1
  V  V12  1  0.62615796  0.25363614  0.87655552  1
  V  V13  1  0.14046088  0.87206560  0.74824324  1
  V  V14  1  0.87339108  0.62272927  0.25315408  1
  V  V15  1  0.36781919  -0.00652658  0.86862253  1
  V  V16  1  0.61744218  0.24833965  0.38373900  1
  V  V17  1  0.24994822  0.12557752  0.37299982  1
  V  V18  1  0.12684097  0.49774311  0.12478934  1
  V  V19  1  0.37723098  -0.00056323  0.37535318  1
  V  V20  1  0.62087675  0.63067147  0.51839405  1
  V  V21  1  0.88486919  0.87918327  0.00096403  1
  V  V22  1  0.74757623  0.74897609  0.00145841  1
  V  V23  1  0.24916554  0.12445230  0.87892158  1
  V  V24  1  0.00000398  0.37520479  0.37462931  1
  V  V25  1  0.13681589  -0.00018133  0.63264467  1
  V  V26  1  0.87687012  0.37507293  0.00183115  1
  V  V27  1  0.87687322  0.00126706  0.87852791  1
  V  V28  1  0.74866152  0.87060096  0.62091279  1
  V  V29  1  0.24955312  -0.00187739  0.24910566  1
  V  V30  1  0.61665820  0.36664466  0.24459278  1
  V  V31  1  0.25234253  0.25546137  0.49874182  1
  V  V32  1  0.37578942  0.62107930  0.25445472  1
  V  V33  1  0.51536655  0.00689319  0.50496631  1
  V  V34  1  0.24777177  0.38144879  0.62541113  1
  V  V35  1  0.75362289  0.00108524  0.25650344  1
  V  V36  1  0.75101167  0.62410716  0.88060097  1
  V  V37  1  0.37808660  0.13465568  0.24600034  1
  V  V38  1  0.50753614  0.86880749  0.37682582  1
  V  V39  1  0.88060776  0.12258281  0.24960552  1
  V  V40  1  0.50164776  0.87343205  0.87412969  1
  V  V41  1  0.61990926  0.38065059  0.75113326  1
  V  V42  1  0.38170709  0.75122183  0.62519925  1
  V  V43  1  0.62646227  0.12278156  0.00204697  1
  V  V44  1  0.87329795  0.37425380  0.50105665  1
  V  V45  1  0.51069892  0.62420140  0.12150886  1
  V  V46  1  0.00016329  0.63008295  0.63172673  1
  V  V47  1  0.12373489  0.24911090  0.37540875  1
  V  V48  1  0.00077508  0.12232322  0.62501964  1
  V  V49  1  0.88149260  0.24960240  0.12661655  1
  V  V50  1  0.37596681  0.25268552  0.62064742  1
  V  V51  1  0.37202405  0.87897796  0.50634457  1
  V  V52  1  0.37085410  0.50375615  0.87637459  1
  V  V53  1  0.50566245  0.50675816  -0.00771076  1
  V  V54  1  0.87112697  0.50136601  0.37529164  1
  V  V55  1  0.44294494  0.33497773  0.92712164  1
  V  V56  1  0.75012458  0.87553751  0.12527825  1
  V  V57  1  0.00074736  0.62412505  0.12776273  1
  V  V58  1  0.12440947  0.62464211  -0.00060086  1
  V  V59  1  0.37522768  0.87400927  -0.00029663  1
  V  V60  1  0.69126300  0.04259467  0.69158249  1
  V  V61  1  0.74715183  0.12041087  0.87412990  1
  V  V62  1  0.73262592  0.63384082  0.37705414  1
  V  V63  1  0.87658249  0.74857375  0.12546922  1
  V  V64  1  0.87867950  0.75429038  0.63050651  1
  V  V65  1  0.74713673  0.50280825  0.74905945  1
  V  V66  1  0.00007794  0.50079664  0.50225438  1
  V  V67  1  0.12563330  0.62458854  0.49980903  1
  V  V68  1  0.49823598  0.13623483  0.13000066  1
  V  V69  1  -0.00255490  0.87176349  0.86070568  1
  V  V70  1  0.74911164  0.25416146  0.00936827  1
  V  V71  1  0.87554328  0.87083616  0.48717286  1
  V  V72  1  0.62931385  0.87407055  0.74667105  1
  V  V73  1  0.75141914  0.12675072  0.38106131  1
  V  V74  1  0.10764069  0.12478813  0.00279095  1
  V  V75  1  0.87410863  0.11996812  0.74827321  1
  V  V76  1  0.37530849  0.61824719  0.74207035  1
  V  V77  1  0.74752680  0.38337348  0.62271031  1
  V  V78  1  0.24929138  0.87586414  0.12581524  1
  V  V79  1  0.00149887  0.25136084  0.75819390  1
  V  V80  1  0.37012586  0.11994770  0.74521668  1
  V  V81  1  0.88010031  0.49472409  0.87474323  1
  V  V82  1  0.74688178  0.48967944  0.24650973  1
  V  V83  1  0.49715550  0.25347050  0.74876728  1
  V  V84  1  0.12296786  0.38234855  0.75728898  1
  Zn  Zn85  1  0.50418881  0.74489338  0.74271677  1
  Zn  Zn86  1  0.12816127  0.50264909  0.62784133  1
  Zn  Zn87  1  0.12524295  0.25451974  0.88000953  1
  Zn  Zn88  1  0.49046155  0.37246618  0.37746032  1
  Zn  Zn89  1  0.51413181  0.12390701  0.62359100  1
  Zn  Zn90  1  0.25130774  0.49878276  0.25430082  1
  Zn  Zn91  1  0.11624175  0.74573912  0.86738251  1
  Zn  Zn92  1  0.00218637  0.49317673  -0.00397443  1
  Zn  Zn93  1  0.37281370  0.48677360  0.38787869  1
  Zn  Zn94  1  0.50873781  0.74221069  0.25993391  1
  Zn  Zn95  1  -0.00361222  0.75222037  0.25680545  1
  Zn  Zn96  1  0.87822505  0.63059826  0.75325442  1
  Zn  Zn97  1  0.00361386  0.24277034  0.24466451  1
  Zn  Zn98  1  0.74810245  0.24846315  0.50168451  1
  Zn  Zn99  1  0.87793544  0.25277619  0.62618310  1
  Zn  Zn100  1  0.12431380  0.12313138  0.50086446  1
  Zn  Zn101  1  0.62913696  0.87005272  0.25651678  1
  Zn  Zn102  1  0.25214847  0.62457876  0.37644313  1
  Zn  Zn103  1  0.63015411  0.49656973  0.11669454  1
  Zn  Zn104  1  0.26536614  0.25341856  -0.00168472  1
  Zn  Zn105  1  0.24452715  0.62104248  0.86479401  1
  Zn  Zn106  1  0.49922841  -0.00385580  0.00352583  1
  Zn  Zn107  1  0.19161968  0.18825051  0.18260067  1
  Zn  Zn108  1  0.18789471  0.18889479  0.69003444  1
  Zn  Zn109  1  0.18968527  0.68889339  0.18821160  1
  Zn  Zn110  1  0.19281320  0.69072834  0.68401590  1
  Zn  Zn111  1  0.68911469  0.18622745  0.19069918  1
  Zn  Zn112  1  0.69021912  0.20773775  0.68632302  1
  Zn  Zn113  1  0.68760454  0.68688629  0.19360684  1
  Zn  Zn114  1  0.69408970  0.69139890  0.68883902  1
  Zn  Zn115  1  0.31133973  0.31571130  0.30769084  1
  Zn  Zn116  1  0.30351382  0.30783940  0.80535107  1
  Zn  Zn117  1  0.31188499  0.81035853  0.31633471  1
  Zn  Zn118  1  0.31187890  0.80610280  0.81085069  1
  Zn  Zn119  1  0.81052456  0.30910866  0.31380317  1
  Zn  Zn120  1  0.81145923  0.31213243  0.81387370  1
  Zn  Zn121  1  0.80907597  0.80917896  0.31116914  1
  Zn  Zn122  1  0.81020332  0.81550446  0.80977379  1
  Zn  Zn123  1  0.19110697  0.43902225  0.43639413  1
  Zn  Zn124  1  0.19104558  0.43804342  0.93885015  1
  Zn  Zn125  1  0.18625378  0.93844384  0.43996452  1
  Zn  Zn126  1  0.18467067  0.93893068  0.93601626  1
  Zn  Zn127  1  0.67892192  0.44152415  0.43552470  1
  Zn  Zn128  1  0.68859930  0.43636352  0.93677151  1
  Zn  Zn129  1  0.69187555  0.93779440  0.43888783  1
  Zn  Zn130  1  0.69128003  0.93612535  0.93747820  1
  Zn  Zn131  1  0.31181511  0.06037246  0.06195290  1
  Zn  Zn132  1  0.31325988  0.06758495  0.55843788  1
  Zn  Zn133  1  0.31531421  0.55935335  0.06090834  1
  Zn  Zn134  1  0.31504673  0.56437328  0.56192174  1
  Zn  Zn135  1  0.81354426  0.06358439  0.06490744  1
  Zn  Zn136  1  0.82117782  0.06015483  0.55533116  1
  Zn  Zn137  1  0.81161168  0.56143797  0.06313506  1
  Zn  Zn138  1  0.80891219  0.56679733  0.56052181  1
  Zn  Zn139  1  0.44224832  0.44202145  0.18625034  1
  Zn  Zn140  1  0.43545849  0.43759471  0.68612749  1
  Zn  Zn141  1  0.43868309  0.93831336  0.19114266  1
  Zn  Zn142  1  0.44138226  0.93666684  0.68599103  1
  Zn  Zn143  1  0.93660478  0.43399041  0.18376431  1
  Zn  Zn144  1  0.93853426  0.44027354  0.68821456  1
  Zn  Zn145  1  0.93670057  0.93909408  0.18899615  1
  Zn  Zn146  1  0.93691585  0.94059241  0.68507102  1
  Zn  Zn147  1  0.06357430  0.06202353  0.31031600  1
  Zn  Zn148  1  0.06108693  0.05857070  0.81533155  1
  Zn  Zn149  1  0.06306169  0.56249956  0.31398069  1
  Zn  Zn150  1  0.06119565  0.56190216  0.81301136  1
  Zn  Zn151  1  0.56405057  0.06306964  0.31372754  1
  Zn  Zn152  1  0.55170500  0.06490410  0.81673869  1
  Zn  Zn153  1  0.55724354  0.55357984  0.31526331  1
  Zn  Zn154  1  0.55852774  0.56408090  0.80999340  1
  Zn  Zn155  1  0.43709131  0.18692092  0.43812687  1
  Zn  Zn156  1  0.44074753  0.16985245  0.93698762  1
  Zn  Zn157  1  0.44301172  0.68333291  0.44426314  1
  Zn  Zn158  1  0.43696435  0.68477925  0.93497049  1
  Zn  Zn159  1  0.93700620  0.18599587  0.43618519  1
  Zn  Zn160  1  0.93420374  0.18939887  0.93645980  1
  Zn  Zn161  1  0.93558161  0.68872863  0.44054217  1
  Zn  Zn162  1  0.93773750  0.68838985  0.93757058  1
  Zn  Zn163  1  0.06061513  0.31028562  0.05944323  1
  Zn  Zn164  1  0.06327154  0.31140404  0.56520390  1
  Zn  Zn165  1  0.06126078  0.81291187  0.06362306  1
  Zn  Zn166  1  0.06221473  0.81551923  0.56759112  1
  Zn  Zn167  1  0.56605353  0.31295643  0.06815823  1
  Zn  Zn168  1  0.56248331  0.31668746  0.56453208  1
  Zn  Zn169  1  0.56365060  0.81131580  0.06452887  1
  Zn  Zn170  1  0.56568584  0.81270293  0.55787115  1
  O  O171  1  0.12923210  0.11842560  0.11102447  1
  O  O172  1  0.11915342  0.11545939  0.62668712  1
  O  O173  1  0.12185990  0.61768947  0.12122234  1
  O  O174  1  0.11927192  0.62659713  0.61635993  1
  O  O175  1  0.61960862  0.11754658  0.12386290  1
  O  O176  1  0.63384405  0.11638584  0.64098875  1
  O  O177  1  0.61307936  0.62277350  0.12812047  1
  O  O178  1  0.63475928  0.62511331  0.61745440  1
  O  O179  1  0.37568502  0.37279996  0.37380180  1
  O  O180  1  0.37618326  0.38329705  0.86183651  1
  O  O181  1  0.38186995  0.88222857  0.38395106  1
  O  O182  1  0.37895396  0.87744205  0.87705090  1
  O  O183  1  0.87930485  0.38050385  0.38076711  1
  O  O184  1  0.86805350  0.38460743  0.88335865  1
  O  O185  1  0.87356350  0.86767644  0.38810040  1
  O  O186  1  0.87901798  0.88151463  0.87897634  1
  O  O187  1  0.25652178  0.00543263  0.37134665  1
  O  O188  1  0.26164592  0.00522809  0.87819742  1
  O  O189  1  0.25589741  0.50647272  0.37303862  1
  O  O190  1  0.26488967  0.50327873  0.88168206  1
  O  O191  1  0.74384763  0.00888356  0.36416182  1
  O  O192  1  0.76214090  0.00692089  0.87769635  1
  O  O193  1  0.75293466  0.50562020  0.36436120  1
  O  O194  1  0.75665154  0.50877957  0.87111171  1
  O  O195  1  0.23906969  0.49152913  0.12489455  1
  O  O196  1  0.25023838  0.48503299  0.61727833  1
  O  O197  1  0.24420097  0.99289874  0.13086161  1
  O  O198  1  0.23488553  1.00667464  0.61964414  1
  O  O199  1  0.74687980  0.50799260  0.14196032  1
  O  O200  1  0.75596181  0.49242080  0.63476444  1
  O  O201  1  0.74076428  0.99787552  0.13352052  1
  O  O202  1  0.75494471  0.99190088  0.62447568  1
  O  O203  1  0.01034081  0.37277663  0.25465910  1
  O  O204  1  0.01223502  0.36549967  0.74177354  1
  O  O205  1  0.01281674  0.87324532  0.24718815  1
  O  O206  1  0.00541653  0.88036757  0.75768091  1
  O  O207  1  0.51419623  0.37819575  0.25142352  1
  O  O208  1  0.50963336  0.36949333  0.74580415  1
  O  O209  1  0.49856393  0.87780238  0.26960019  1
  O  O210  1  0.51296818  0.87278757  0.75505594  1
  O  O211  1  0.49066260  0.11821777  0.24257535  1
  O  O212  1  0.48750672  0.13224421  0.74693370  1
  O  O213  1  0.49095515  0.62405326  0.24165197  1
  O  O214  1  0.48297762  0.63002028  0.75359746  1
  O  O215  1  0.98594436  0.12403887  0.25425337  1
  O  O216  1  0.99396351  0.12934205  0.74468910  1
  O  O217  1  0.99231882  0.62474709  0.24509441  1
  O  O218  1  0.99815799  0.62106677  0.73615842  1
  O  O219  1  0.38668653  0.26425053  -0.02066876  1
  O  O220  1  0.36520884  0.24434721  0.50865809  1
  O  O221  1  0.36689437  0.75329534  0.00561941  1
  O  O222  1  0.36980870  0.75679711  0.50404795  1
  O  O223  1  0.86811372  0.25380436  0.00587179  1
  O  O224  1  0.87538850  0.26467310  0.49958719  1
  O  O225  1  0.86609696  0.75664511  0.00469302  1
  O  O226  1  0.88108887  0.76547390  0.50939864  1
  O  O227  1  0.12918198  0.24663016  0.49148095  1
  O  O228  1  0.12401266  0.23439821  0.99859848  1
  O  O229  1  0.13104250  0.74848684  0.49726820  1
  O  O230  1  0.13204148  0.74303647  1.00094801  1
  O  O231  1  0.62799635  0.25320276  0.48774236  1
  O  O232  1  0.63214783  0.24638455  0.99635344  1
  O  O233  1  0.62199915  0.73118902  0.50153654  1
  O  O234  1  0.63975099  0.75640269  0.99294128  1
  O  O235  1  0.50191126  0.23565108  0.12208774  1
  O  O236  1  0.49274932  0.24516714  0.62690756  1
  O  O237  1  0.48831151  0.74301364  0.12079516  1
  O  O238  1  0.48631851  0.75745972  0.62243109  1
  O  O239  1  0.98635402  0.24992010  0.12558831  1
  O  O240  1  0.99998815  0.23673584  0.63221518  1
  O  O241  1  0.99362446  0.74237704  0.12797325  1
  O  O242  1  0.99259724  0.74222627  0.62124965  1
  O  O243  1  0.01114607  0.25517366  0.37373398  1
  O  O244  1  0.00241932  0.24511257  0.86207299  1
  O  O245  1  0.01485798  0.74589547  0.37642446  1
  O  O246  1  -0.00002648  0.76444039  0.87830147  1
  O  O247  1  0.51368978  0.24886866  0.37791130  1
  O  O248  1  0.50246601  0.25666853  0.87319412  1
  O  O249  1  0.49358545  0.76641475  0.37876116  1
  O  O250  1  0.50992025  0.75569757  0.87541937  1
  O  O251  1  0.24620332  0.13630055  0.49117358  1
  O  O252  1  0.25674378  0.13074996  0.98823845  1
  O  O253  1  0.24075036  0.63346792  0.50115814  1
  O  O254  1  0.23814092  0.63138450  1.00333755  1
  O  O255  1  0.75787778  0.12522273  0.48601678  1
  O  O256  1  0.74415777  0.13216666  0.99513472  1
  O  O257  1  0.73547463  0.61494516  0.48527880  1
  O  O258  1  0.75384557  0.63278525  0.98921242  1
  O  O259  1  0.24728874  0.37219141  0.01457086  1
  O  O260  1  0.24131120  0.36175172  0.50800984  1
  O  O261  1  0.25286231  0.86684951  0.00472695  1
  O  O262  1  0.26025021  0.86833699  0.49419738  1
  O  O263  1  0.75900378  0.36350614  -0.00421196  1
  O  O264  1  0.75571690  0.38076087  0.50655036  1
  O  O265  1  0.76076208  0.86758683  0.00543174  1
  O  O266  1  0.76590706  0.88219585  0.50639492  1
  O  O267  1  0.12676747  0.49225151  0.24304948  1
  O  O268  1  0.11989341  0.48646202  0.74738856  1
  O  O269  1  0.13009731  0.99381270  0.24333115  1
  O  O270  1  0.12305709  0.99374346  0.73925430  1
  O  O271  1  0.63398997  0.48723822  0.25083346  1
  O  O272  1  0.63742386  0.49454612  0.75839059  1
  O  O273  1  0.63331746  0.99541488  0.24396956  1
  O  O274  1  0.62392634  0.99384609  0.75678996  1
  O  O275  1  0.36963925  0.00147015  0.26262404  1
  O  O276  1  0.37925112  0.00658308  0.75596241  1
  O  O277  1  0.37331592  0.51455903  0.24675058  1
  O  O278  1  0.37768383  0.51229508  0.75478687  1
  O  O279  1  0.86530063  0.00850488  0.24478043  1
  O  O280  1  0.87843077  0.01329741  0.75715804  1
  O  O281  1  0.86497890  0.50058766  0.25411907  1
  O  O282  1  0.86428460  0.50034957  0.75811990  1
  O  O283  1  0.12230394  0.36871720  0.36617747  1
  O  O284  1  0.12822665  0.37551871  0.86194550  1
  O  O285  1  0.13053572  0.86809725  0.36581418  1
  O  O286  1  0.11679699  0.87863085  0.86215603  1
  O  O287  1  0.62474295  0.36169385  0.36562944  1
  O  O288  1  0.63374836  0.36683680  0.86131036  1
  O  O289  1  0.61119203  0.87846728  0.37881866  1
  O  O290  1  0.62491346  0.86562117  0.86872943  1
  O  O291  1  0.38636907  0.11272452  0.13421013  1
  O  O292  1  0.37183369  0.13456130  0.63233071  1
  O  O293  1  0.38009631  0.63168415  0.13297857  1
  O  O294  1  0.37288493  0.63389794  0.63506461  1
  O  O295  1  0.86811251  0.13512447  0.13620613  1
  O  O296  1  0.88216684  0.12569259  0.63181117  1
  O  O297  1  0.88060329  0.62825349  0.13084415  1
  O  O298  1  0.88110995  0.63570691  0.62221643  1
  O  O299  1  0.25192680  0.26352220  0.11945606  1
  O  O300  1  0.25426480  0.25444187  0.61657515  1
  O  O301  1  0.25953186  0.75422193  0.11665819  1
  O  O302  1  0.26119103  0.75157479  0.61145647  1
  O  O303  1  0.75577878  0.24472802  0.11357116  1
  O  O304  1  0.75829807  0.26674633  0.61983539  1
  O  O305  1  0.75664992  0.75207030  0.11775591  1
  O  O306  1  0.75928030  0.76388075  0.62442645  1
  O  O307  1  0.23930306  0.24791822  0.37960357  1
  O  O308  1  0.24582346  0.24107219  0.87963754  1
  O  O309  1  0.24061550  0.74646862  0.38616258  1
  O  O310  1  0.24604889  0.74765926  0.88804720  1
  O  O311  1  0.74092651  0.24356916  0.37875572  1
  O  O312  1  0.74576705  0.23982287  0.88186178  1
  O  O313  1  0.75140020  0.73160688  0.37242211  1
  O  O314  1  0.74674687  0.74461957  0.88132016  1
  O  O315  1  0.00919159  0.12268217  -0.00394949  1
  O  O316  1  -0.00046469  0.11486351  0.50755019  1
  O  O317  1  0.01095047  0.62467992  0.00723526  1
  O  O318  1  0.00677269  0.62086355  0.50781653  1
  O  O319  1  0.50854787  0.11681420  0.00998784  1
  O  O320  1  0.49796120  0.11077632  0.50194300  1
  O  O321  1  0.49737996  0.61862775  0.00802733  1
  O  O322  1  0.51432445  0.61723568  0.50194820  1
  O  O323  1  0.50830269  0.38929235  0.49774375  1
  O  O324  1  0.50391691  0.38226739  0.99737971  1
  O  O325  1  0.49436999  0.88604717  0.49205469  1
  O  O326  1  0.49332484  0.87379446  0.99279585  1
  O  O327  1  0.99384704  0.38036586  0.49605704  1
  O  O328  1  0.98402528  0.37432248  1.00066646  1
  O  O329  1  0.99170095  0.88564363  0.50497149  1
  O  O330  1  0.98831850  0.87212795  0.99369280  1
  O  O331  1  0.49357336  0.49457564  0.38506337  1
  O  O332  1  0.48974440  0.50263073  0.88133166  1
  O  O333  1  0.49388658  0.99514467  0.38455323  1
  O  O334  1  0.48733324  0.99141438  0.87866594  1
  O  O335  1  0.99340689  0.49406800  0.38122113  1
  O  O336  1  0.98425780  0.50511789  0.87706442  1
  O  O337  1  1.00983595  1.00158233  0.39234729  1
  O  O338  1  0.98596387  0.99079992  0.87427966  1
  O  O339  1  0.01419879  -0.00416458  0.12534778  1
  O  O340  1  0.00673180  0.01009604  0.61976291  1
  O  O341  1  0.01112329  0.50462345  0.12324021  1
  O  O342  1  0.00070620  0.50931010  0.61693431  1
  O  O343  1  0.51335435  -0.00020899  0.12613059  1
  O  O344  1  0.49789507  0.00224083  0.60917637  1
  O  O345  1  0.50297234  0.50878177  0.11426949  1
  O  O346  1  0.50171336  0.49445771  0.61338069  1
  O  O347  1  0.23762328  0.37535052  0.23673965  1
  O  O348  1  0.23218685  0.36875073  0.73950090  1
  O  O349  1  0.24258828  0.87844913  0.24553885  1
  O  O350  1  0.23886137  0.87906893  0.75612489  1
  O  O351  1  0.74398894  0.38637183  0.25516062  1
  O  O352  1  0.74574076  0.38289446  0.74334981  1
  O  O353  1  0.75219274  0.88395253  0.24406687  1
  O  O354  1  0.73822099  0.87818830  0.74176224  1
  O  O355  1  0.25483723  0.11634230  0.25295455  1
  O  O356  1  0.26102111  0.13014367  0.76228019  1
  O  O357  1  0.26352315  0.62524051  0.24994198  1
  O  O358  1  0.26612627  0.63212393  0.75033858  1
  O  O359  1  0.75721936  0.11834910  0.25783087  1
  O  O360  1  0.75305063  0.11973120  0.74917536  1
  O  O361  1  0.75404433  0.61486279  0.26032678  1
  O  O362  1  0.75331683  0.61873313  0.76063398  1
  O  O363  1  0.37050338  0.11740809  0.36848473  1
  O  O364  1  0.36973799  0.11340834  0.86699454  1
  O  O365  1  0.37749347  0.63224417  0.35967081  1
  O  O366  1  0.37019439  0.61972705  0.86518837  1
  O  O367  1  0.86462426  0.13356316  0.36326416  1
  O  O368  1  0.86897394  0.11907041  0.86893557  1
  O  O369  1  0.86974843  0.61758324  0.37278798  1
  O  O370  1  0.86739328  0.61920791  0.87430063  1
  O  O371  1  0.12511412  0.38069993  0.12982466  1
  O  O372  1  0.13116572  0.37657074  0.63288052  1
  O  O373  1  0.13102013  0.88061710  0.13035494  1
  O  O374  1  0.12249093  0.88700032  0.63845149  1
  O  O375  1  0.62761225  0.37649025  0.13991229  1
  O  O376  1  0.63593451  0.36985711  0.63918721  1
  O  O377  1  0.63376647  0.88403701  0.12236544  1
  O  O378  1  0.63459880  0.87272395  0.63117001  1
  O  O379  1  0.12424032  0.25533910  0.25466099  1
  O  O380  1  0.11694046  0.25738072  0.75315602  1
  O  O381  1  0.12577320  0.75783733  0.25870442  1
  O  O382  1  0.13031195  0.76661311  0.74870319  1
  O  O383  1  0.63225938  0.26320236  0.25649659  1
  O  O384  1  0.61647960  0.25754555  0.75786463  1
  O  O385  1  0.61852306  0.75912968  0.24061135  1
  O  O386  1  0.62536350  0.75747477  0.75751227  1
  O  O387  1  0.36667282  0.23302594  0.24952436  1
  O  O388  1  0.37963892  0.24190895  0.74364057  1
  O  O389  1  0.37895717  0.74284483  0.24200978  1
  O  O390  1  0.37826801  0.74513254  0.74082280  1
  O  O391  1  0.87545528  0.24468277  0.24183452  1
  O  O392  1  0.88047927  0.23877235  0.75030309  1
  O  O393  1  0.87597013  0.74258940  0.24328308  1
  O  O394  1  0.87116963  0.75025025  0.73663358  1
  O  O395  1  0.39429589  0.51294901  0.50084224  1
  O  O396  1  0.38769319  0.50222361  0.98986796  1
  O  O397  1  0.37607197  0.99535916  0.49026153  1
  O  O398  1  0.37519635  0.98862983  0.99225350  1
  O  O399  1  0.87884839  0.49180484  0.49509659  1
  O  O400  1  0.87310588  0.49117493  0.99444053  1
  O  O401  1  0.89046821  0.98708927  0.50086411  1
  O  O402  1  0.87005687  0.99083278  0.99356648  1
  O  O403  1  0.13182056  0.01394500  0.00749121  1
  O  O404  1  0.11538657  -0.00204863  0.51308248  1
  O  O405  1  0.12281280  0.50673502  0.00629163  1
  O  O406  1  0.11917113  0.50943553  0.50126663  1
  O  O407  1  0.62719899  0.00520560  0.00860932  1
  O  O408  1  0.61381901  0.00057746  0.49831128  1
  O  O409  1  0.61332868  0.49667083  -0.00181205  1
  O  O410  1  0.61336258  0.51295084  0.49568685  1
  O  O411  1  0.36155471  0.38063153  0.13061254  1
  O  O412  1  0.36373183  0.36010721  0.63475543  1
  O  O413  1  0.37173971  0.86733394  0.12189610  1
  O  O414  1  0.37712201  0.87199896  0.61269992  1
  O  O415  1  0.87193490  0.36481847  0.11725186  1
  O  O416  1  0.87026596  0.37646314  0.61670926  1
  O  O417  1  0.87134244  0.87022540  0.11829211  1
  O  O418  1  0.86985552  0.87110635  0.62067370  1
  O  O419  1  0.13084276  0.13340786  0.37410738  1
  O  O420  1  0.13255699  0.11976535  0.88698215  1
  O  O421  1  0.12530450  0.63139701  0.38713847  1
  O  O422  1  0.12566946  0.62693083  0.88286947  1
  O  O423  1  0.63359345  0.14135700  0.36513287  1
  O  O424  1  0.62652654  0.13105190  0.88094984  1
  O  O425  1  0.63187259  0.62543637  0.36921131  1
  O  O426  1  0.63267257  0.63856686  0.86986487  1
