# generated using pymatgen
data_V85Zn86O256
_symmetry_space_group_name_H-M   'P 1'
_cell_length_a   16.94835648
_cell_length_b   16.94187621
_cell_length_c   16.93168143
_cell_angle_alpha   89.99094590
_cell_angle_beta   90.01941131
_cell_angle_gamma   89.91961882
_symmetry_Int_Tables_number   1
_chemical_formula_structural   V85Zn86O256
_chemical_formula_sum   'V85 Zn86 O256'
_cell_volume   4861.70636461
_cell_formula_units_Z   1
loop_
 _symmetry_equiv_pos_site_id
 _symmetry_equiv_pos_as_xyz
  1  'x, y, z'
loop_
 _atom_site_type_symbol
 _atom_site_label
 _atom_site_symmetry_multiplicity
 _atom_site_fract_x
 _atom_site_fract_y
 _atom_site_fract_z
 _atom_site_occupancy
  V  V0  1  0.87945014  0.36611842  0.00321996  1
  V  V1  1  0.50764989  0.88178293  0.86378220  1
  V  V2  1  0.87528243  0.24317297  0.60938828  1
  V  V3  1  0.74569418  0.12945748  0.38748465  1
  V  V4  1  0.12499412  0.87364090  0.75304069  1
  V  V5  1  0.74964434  0.36914890  0.12165377  1
  V  V6  1  -0.00067289  0.74760173  0.75192181  1
  V  V7  1  0.00037098  0.60994095  0.12797793  1
  V  V8  1  0.62157124  0.37455024  0.24767456  1
  V  V9  1  0.12070199  0.12528021  -0.00015807  1
  V  V10  1  0.37757194  -0.00508455  0.38004009  1
  V  V11  1  0.74863356  0.75336511  0.49807213  1
  V  V12  1  -0.00156109  0.87555912  0.37679747  1
  V  V13  1  0.11326547  0.37656969  0.75217780  1
  V  V14  1  0.74611517  0.50019193  0.24766750  1
  V  V15  1  -0.00942067  0.87233158  0.88118418  1
  V  V16  1  0.62534291  0.24818622  0.38790205  1
  V  V17  1  0.25353017  0.63381068  0.37610996  1
  V  V18  1  0.51419662  0.11981245  0.12202715  1
  V  V19  1  0.11697771  0.25486010  0.87384594  1
  V  V20  1  0.37580253  0.37496485  0.50215173  1
  V  V21  1  0.12830274  0.62925022  0.50058296  1
  V  V22  1  0.75002647  0.62574900  0.37482297  1
  V  V23  1  0.50232025  0.62714644  0.62677783  1
  V  V24  1  -0.00172567  0.25215992  0.25872889  1
  V  V25  1  0.25328921  0.87276567  0.11719240  1
  V  V26  1  0.50003786  0.24645422  0.25194531  1
  V  V27  1  0.37202886  0.75106552  0.62079426  1
  V  V28  1  0.62974350  0.00073650  0.64648338  1
  V  V29  1  0.52225593  0.00389514  -0.00063424  1
  V  V30  1  0.12349705  0.50082148  0.62410632  1
  V  V31  1  0.51314765  -0.00392709  0.49674812  1
  V  V32  1  0.12178741  0.12661383  0.50438454  1
  V  V33  1  0.63041363  0.35631201  0.75347124  1
  V  V34  1  0.63086866  0.49965676  0.63847861  1
  V  V35  1  0.87004836  0.12869116  0.24551501  1
  V  V36  1  -0.00365208  0.49036063  0.49040512  1
  V  V37  1  0.25248647  0.00066896  0.25249925  1
  V  V38  1  0.12428212  0.87649214  0.25184947  1
  V  V39  1  0.25154497  0.24828995  0.50050519  1
  V  V40  1  0.38031980  0.24598821  0.63204356  1
  V  V41  1  0.37559843  0.62578011  0.75439513  1
  V  V42  1  -0.01180058  -0.00380817  0.00363502  1
  V  V43  1  0.13091171  0.74827321  0.88260478  1
  V  V44  1  -0.00462588  0.13247440  0.12588751  1
  V  V45  1  0.24568989  0.50241922  0.24796523  1
  V  V46  1  -0.00165947  0.62420924  0.62310629  1
  V  V47  1  0.62549005  0.75584485  0.86663606  1
  V  V48  1  0.87281787  0.00299346  0.37412106  1
  V  V49  1  0.12553833  0.75025605  0.37919808  1
  V  V50  1  0.25011384  0.87263150  0.61765493  1
  V  V51  1  0.24682804  0.24985358  -0.00040226  1
  V  V52  1  -0.00235338  0.00532002  0.50655175  1
  V  V53  1  0.37498140  0.24583465  0.12471657  1
  V  V54  1  0.50288149  0.50082202  0.50084603  1
  V  V55  1  0.86973437  0.61565565  0.75008262  1
  V  V56  1  0.24989116  0.37478278  0.62627426  1
  V  V57  1  -0.00316018  0.75154197  0.24793352  1
  V  V58  1  0.74269851  0.12830810  0.85939969  1
  V  V59  1  0.74916554  0.61688285  0.87507662  1
  V  V60  1  0.87526459  0.01256758  0.86098090  1
  V  V61  1  0.24662120  0.12328076  0.87380291  1
  V  V62  1  0.12356172  0.61727229  0.00428130  1
  V  V63  1  0.12499539  0.37426329  0.25648976  1
  V  V64  1  0.75653979  0.75905767  -0.00120627  1
  V  V65  1  0.24694274  0.37471882  0.12480953  1
  V  V66  1  0.25056551  0.49984707  0.75257477  1
  V  V67  1  0.50070648  0.49500734  -0.00130963  1
  V  V68  1  0.37680469  0.50278626  0.37175452  1
  V  V69  1  0.61610637  0.75872630  0.37104258  1
  V  V70  1  0.87260119  0.74887700  0.62595916  1
  V  V71  1  0.12285132  0.00227925  0.62737961  1
  V  V72  1  0.25379344  -0.00078856  0.75082005  1
  V  V73  1  0.50921474  0.12715095  0.62514278  1
  V  V74  1  0.62448748  0.62377634  0.00509171  1
  V  V75  1  0.74615340  0.87780814  0.64061565  1
  V  V76  1  0.88145688  0.49224785  0.87698165  1
  V  V77  1  0.12162162  0.00067271  0.12626150  1
  V  V78  1  -0.01088101  0.23801083  0.74684655  1
  V  V79  1  0.75832695  0.37648373  0.61128434  1
  V  V80  1  0.87078406  0.62709120  0.24776423  1
  V  V81  1  0.87326206  0.87579518  0.50041763  1
  V  V82  1  0.73683580  0.24225633  -0.00470064  1
  V  V83  1  0.37437646  -0.00221054  0.88800478  1
  V  V84  1  0.61863559  0.88191074  0.23879180  1
  Zn  Zn85  1  0.25062047  0.12560757  0.37625456  1
  Zn  Zn86  1  0.38624513  0.12631228  0.75595353  1
  Zn  Zn87  1  0.12229122  0.25359888  0.38109322  1
  Zn  Zn88  1  0.62599125  0.62591853  0.49970328  1
  Zn  Zn89  1  0.37853097  0.36937210  -0.00899349  1
  Zn  Zn90  1  0.50076219  0.35815209  0.86673478  1
  Zn  Zn91  1  0.49135316  0.74705566  0.22372798  1
  Zn  Zn92  1  0.73943125  0.00507197  0.24445267  1
  Zn  Zn93  1  0.38087200  0.49282503  0.86966776  1
  Zn  Zn94  1  0.75683751  0.88833824  0.12115167  1
  Zn  Zn95  1  0.50373191  0.75800537  0.74766925  1
  Zn  Zn96  1  0.61651854  0.50497218  0.12838385  1
  Zn  Zn97  1  0.25417789  0.62807562  0.88034563  1
  Zn  Zn98  1  0.28810391  0.71211412  0.04723512  1
  Zn  Zn99  1  0.50028661  0.37404759  0.37566061  1
  Zn  Zn100  1  0.86959576  0.47914755  0.38255314  1
  Zn  Zn101  1  0.39355697  0.85709386  0.00709122  1
  Zn  Zn102  1  0.37832013  0.87173444  0.49720921  1
  Zn  Zn103  1  0.37686451  0.12103818  0.25239250  1
  Zn  Zn104  1  0.00134508  0.49147436  0.00444332  1
  Zn  Zn105  1  0.87768644  0.75489430  0.11609030  1
  Zn  Zn106  1  0.38330532  0.62975194  0.22374295  1
  Zn  Zn107  1  0.18497942  0.18723128  0.18958877  1
  Zn  Zn108  1  0.18573702  0.18727192  0.68724656  1
  Zn  Zn109  1  0.18189790  0.68415416  0.19226461  1
  Zn  Zn110  1  0.18828843  0.68885458  0.68943208  1
  Zn  Zn111  1  0.68993495  0.19010663  0.18823932  1
  Zn  Zn112  1  0.69856760  0.18531726  0.67409910  1
  Zn  Zn113  1  0.68324390  0.69430343  0.18502182  1
  Zn  Zn114  1  0.68958630  0.68554127  0.68724316  1
  Zn  Zn115  1  0.31397140  0.31382347  0.31429646  1
  Zn  Zn116  1  0.30947186  0.31215333  0.81289309  1
  Zn  Zn117  1  0.31769946  0.81406608  0.30703226  1
  Zn  Zn118  1  0.31988056  0.81108505  0.81836070  1
  Zn  Zn119  1  0.80962055  0.30769861  0.31387714  1
  Zn  Zn120  1  0.80730309  0.31473547  0.81107529  1
  Zn  Zn121  1  0.80808841  0.81624930  0.30795056  1
  Zn  Zn122  1  0.81631711  0.80827741  0.81813847  1
  Zn  Zn123  1  0.18750994  0.44095245  0.43650048  1
  Zn  Zn124  1  0.18631545  0.43775088  0.93679442  1
  Zn  Zn125  1  0.18752031  0.94001069  0.43761972  1
  Zn  Zn126  1  0.18043490  0.93852618  0.93827446  1
  Zn  Zn127  1  0.68346659  0.43803221  0.43547260  1
  Zn  Zn128  1  0.68848280  0.43610776  0.93452374  1
  Zn  Zn129  1  0.68978469  0.93714005  0.43263123  1
  Zn  Zn130  1  0.69269563  0.94237239  0.92443385  1
  Zn  Zn131  1  0.31126746  0.06384910  0.06610122  1
  Zn  Zn132  1  0.31573826  0.06254151  0.56319793  1
  Zn  Zn133  1  0.31284870  0.54707562  0.05803872  1
  Zn  Zn134  1  0.31325036  0.56435646  0.56318103  1
  Zn  Zn135  1  0.80918809  0.06344767  0.06064929  1
  Zn  Zn136  1  0.80904885  0.06243219  0.56702898  1
  Zn  Zn137  1  0.81170920  0.55954091  0.06301047  1
  Zn  Zn138  1  0.81215946  0.55915030  0.55975639  1
  Zn  Zn139  1  0.43501767  0.43684194  0.18502723  1
  Zn  Zn140  1  0.44290827  0.43479244  0.68888335  1
  Zn  Zn141  1  0.44058640  0.93460072  0.18474383  1
  Zn  Zn142  1  0.43729023  0.94406730  0.68569753  1
  Zn  Zn143  1  0.92073287  0.42166478  0.21303597  1
  Zn  Zn144  1  0.93565114  0.43770908  0.68471358  1
  Zn  Zn145  1  0.92939520  0.93921609  0.18589939  1
  Zn  Zn146  1  0.93718027  0.93416807  0.68795369  1
  Zn  Zn147  1  0.06267594  0.06589379  0.31735122  1
  Zn  Zn148  1  0.05930398  0.06269679  0.81263561  1
  Zn  Zn149  1  0.06407826  0.56159374  0.31180524  1
  Zn  Zn150  1  0.06030195  0.56249391  0.81549029  1
  Zn  Zn151  1  0.56106974  0.06389438  0.31591627  1
  Zn  Zn152  1  0.56530494  0.17979153  0.81031641  1
  Zn  Zn153  1  0.55904685  0.57102771  0.30906985  1
  Zn  Zn154  1  0.56075444  0.56297585  0.81804960  1
  Zn  Zn155  1  0.43854536  0.17942977  0.44066204  1
  Zn  Zn156  1  0.43625710  0.18409256  0.93989827  1
  Zn  Zn157  1  0.43586936  0.68805428  0.43687763  1
  Zn  Zn158  1  0.44415641  0.68687634  1.04402507  1
  Zn  Zn159  1  0.93637641  0.18636462  0.43700440  1
  Zn  Zn160  1  0.93571002  0.19113915  0.93686439  1
  Zn  Zn161  1  0.93626881  0.68345351  0.43605327  1
  Zn  Zn162  1  0.93892820  0.68149879  0.93811686  1
  Zn  Zn163  1  0.06240750  0.31347247  0.06932214  1
  Zn  Zn164  1  0.05908120  0.31166859  0.56653864  1
  Zn  Zn165  1  0.06441907  0.81038195  0.06388925  1
  Zn  Zn166  1  0.06202044  0.81324185  0.56438700  1
  Zn  Zn167  1  0.56145554  0.31131405  0.06102314  1
  Zn  Zn168  1  0.56253498  0.31689978  0.56835168  1
  Zn  Zn169  1  0.57411559  0.81895409  0.05336164  1
  Zn  Zn170  1  0.56503240  0.81747599  0.56438214  1
  O  O171  1  0.11752742  0.11844007  0.12063335  1
  O  O172  1  0.12834862  0.11736367  0.61416513  1
  O  O173  1  0.11387612  0.62697193  0.11771779  1
  O  O174  1  0.12102554  0.62108148  0.61849268  1
  O  O175  1  0.61268048  0.13085907  0.12783765  1
  O  O176  1  0.62404379  0.11138876  0.62466758  1
  O  O177  1  0.63214090  0.62385023  0.10897321  1
  O  O178  1  0.61934748  0.61901969  0.62227821  1
  O  O179  1  0.37585360  0.38830718  0.38187859  1
  O  O180  1  0.37916451  0.37527664  0.87224175  1
  O  O181  1  0.36598691  0.88974978  0.37991464  1
  O  O182  1  0.38617262  0.88432309  0.87615492  1
  O  O183  1  0.88537909  0.38631448  0.32223036  1
  O  O184  1  0.86667060  0.38126621  0.88916321  1
  O  O185  1  0.87796539  0.88297599  0.37984395  1
  O  O186  1  0.88654476  0.88471945  0.87238518  1
  O  O187  1  0.25494514  0.00210415  0.36789064  1
  O  O188  1  0.25280060  0.00118100  0.86963335  1
  O  O189  1  0.25749249  0.50747523  0.36821450  1
  O  O190  1  0.25025596  0.50104464  0.86067141  1
  O  O191  1  0.75550195  0.01232009  0.37087761  1
  O  O192  1  0.76746655  0.01452137  0.87831949  1
  O  O193  1  0.75043215  0.50810617  0.36870953  1
  O  O194  1  0.76043156  0.51150467  0.87934779  1
  O  O195  1  0.25499983  0.48657367  0.13625185  1
  O  O196  1  0.24303345  0.49616138  0.63251737  1
  O  O197  1  0.24188915  0.99265688  0.13212519  1
  O  O198  1  0.24573605  0.99390055  0.63367897  1
  O  O199  1  0.74323708  0.48892407  0.13020924  1
  O  O200  1  0.74281277  0.49006129  0.61993284  1
  O  O201  1  0.75433085  1.00240723  0.13205101  1
  O  O202  1  0.73890424  0.99182388  0.62257564  1
  O  O203  1  0.01714982  0.36100836  0.23062161  1
  O  O204  1  0.01085236  0.37085511  0.74589553  1
  O  O205  1  0.00353551  0.86920331  0.25758199  1
  O  O206  1  0.00535232  0.86755526  0.75849701  1
  O  O207  1  0.50465628  0.36730290  0.25165847  1
  O  O208  1  0.52420976  0.37793467  0.74509431  1
  O  O209  1  0.51353544  0.86880875  0.24444930  1
  O  O210  1  0.49880237  0.88100887  0.76029076  1
  O  O211  1  0.49817073  0.13070099  0.24258362  1
  O  O212  1  0.50062563  0.12179378  0.73159267  1
  O  O213  1  0.49825137  0.63034973  0.23973318  1
  O  O214  1  0.49373495  0.62333335  0.73906851  1
  O  O215  1  0.99598537  0.13168768  0.24513019  1
  O  O216  1  1.00322659  0.13961825  0.74673759  1
  O  O217  1  0.99258154  0.63146949  0.24745076  1
  O  O218  1  0.99246347  0.62812275  0.74311100  1
  O  O219  1  0.36518838  0.24869534  0.00916775  1
  O  O220  1  0.36831274  0.25327452  0.50770167  1
  O  O221  1  0.36862849  0.75096906  -0.01934024  1
  O  O222  1  0.37873991  0.75209607  0.51538109  1
  O  O223  1  0.86766776  0.26307858  -0.00259235  1
  O  O224  1  0.88765974  0.25766272  0.51113666  1
  O  O225  1  0.86030989  0.74536665  -0.00577807  1
  O  O226  1  0.86552757  0.75302157  0.50356740  1
  O  O227  1  0.13060172  0.24402502  0.50298919  1
  O  O228  1  0.12543537  0.24709144  0.99154034  1
  O  O229  1  0.11843133  0.73785718  0.49591667  1
  O  O230  1  0.11954724  0.73685499  0.99227074  1
  O  O231  1  0.61719870  0.25656709  0.48656398  1
  O  O232  1  0.63812245  0.25169083  0.99694974  1
  O  O233  1  0.63576806  0.75223072  0.49285283  1
  O  O234  1  0.63609985  0.74167803  0.98620494  1
  O  O235  1  0.49244399  0.24340064  0.13016714  1
  O  O236  1  0.49154038  0.24090831  0.61716417  1
  O  O237  1  0.49772138  0.76134471  0.10939175  1
  O  O238  1  0.49750966  0.74360814  0.62812257  1
  O  O239  1  1.00611520  0.23620193  0.13452118  1
  O  O240  1  0.98733243  0.25638806  0.63672858  1
  O  O241  1  1.00146803  0.74483635  0.13953261  1
  O  O242  1  0.99201388  0.74422778  0.62975621  1
  O  O243  1  0.00276379  0.24621620  0.36275997  1
  O  O244  1  0.00876100  0.24735027  0.86322549  1
  O  O245  1  0.00306701  0.75345226  0.36687644  1
  O  O246  1  0.00474916  0.75605053  0.87303167  1
  O  O247  1  0.50428160  0.24738361  0.36806921  1
  O  O248  1  0.49639093  0.24345934  0.86967191  1
  O  O249  1  0.51798163  0.74715523  0.38469731  1
  O  O250  1  0.51380617  0.76769636  0.87023858  1
  O  O251  1  0.24347835  0.13348454  0.50257477  1
  O  O252  1  0.24045204  0.13022431  0.99585920  1
  O  O253  1  0.23925775  0.61879565  0.49123004  1
  O  O254  1  0.23790040  0.61812096  0.99700507  1
  O  O255  1  0.75205741  0.12395738  0.48589571  1
  O  O256  1  0.75713705  0.14044637  0.99265184  1
  O  O257  1  0.74948690  0.63324070  0.49221597  1
  O  O258  1  0.74509360  0.62944784  0.99128649  1
  O  O259  1  0.25008062  0.36842204  0.00751775  1
  O  O260  1  0.25435092  0.37030895  0.50667934  1
  O  O261  1  0.23941069  0.87804736  0.01686680  1
  O  O262  1  0.24954360  0.87984127  0.51500965  1
  O  O263  1  0.75454068  0.36587797  0.00396907  1
  O  O264  1  0.74680740  0.37847460  0.51167170  1
  O  O265  1  0.74644956  0.86108516  -0.00654273  1
  O  O266  1  0.75603229  0.86866909  0.50397527  1
  O  O267  1  0.13726171  0.49234292  0.25425780  1
  O  O268  1  0.12900653  0.49484559  0.74621564  1
  O  O269  1  0.13017148  0.99577341  0.24848484  1
  O  O270  1  0.12864337  0.99360048  0.74651082  1
  O  O271  1  0.62807314  0.49137624  0.25063018  1
  O  O272  1  0.62621000  0.50347573  0.73921574  1
  O  O273  1  0.62025461  0.98475925  0.25763510  1
  O  O274  1  0.62750824  0.99984490  0.74129741  1
  O  O275  1  0.36851835  -0.00196166  0.25650302  1
  O  O276  1  0.36603095  0.00286472  0.75932685  1
  O  O277  1  0.36719852  0.50309079  0.25737520  1
  O  O278  1  0.36594921  0.50495343  0.74299712  1
  O  O279  1  0.88188107  0.01348808  0.26300568  1
  O  O280  1  0.88360221  0.00179524  0.76240142  1
  O  O281  1  0.86363541  0.52001337  0.24323674  1
  O  O282  1  0.87925365  0.50787562  0.75767503  1
  O  O283  1  0.13097172  0.37330997  0.36188298  1
  O  O284  1  0.12871564  0.36514896  0.86586185  1
  O  O285  1  0.11942694  0.87020199  0.37237853  1
  O  O286  1  0.11491513  0.86732224  0.87206841  1
  O  O287  1  0.62374173  0.36717353  0.36336815  1
  O  O288  1  0.63226555  0.37318434  0.85571779  1
  O  O289  1  0.62853887  0.86219699  0.36811128  1
  O  O290  1  0.62165529  0.86917694  0.87402733  1
  O  O291  1  0.37881472  0.13522491  0.12876142  1
  O  O292  1  0.38371941  0.13122913  0.62753560  1
  O  O293  1  0.35960084  0.63519838  0.11033912  1
  O  O294  1  0.38191313  0.63157904  0.63073597  1
  O  O295  1  0.88517503  0.12079818  0.13370374  1
  O  O296  1  0.87016221  0.14316243  0.61946503  1
  O  O297  1  0.88138078  0.63333260  0.13076872  1
  O  O298  1  0.87631085  0.62826599  0.63195275  1
  O  O299  1  0.25626740  0.25160694  0.12162639  1
  O  O300  1  0.25475171  0.25429747  0.61593548  1
  O  O301  1  0.23670914  0.76859177  0.13270583  1
  O  O302  1  0.25838480  0.76092986  0.63259035  1
  O  O303  1  0.74545357  0.25998688  0.11239303  1
  O  O304  1  0.76531553  0.26216830  0.62076060  1
  O  O305  1  0.74927932  0.74948298  0.10538687  1
  O  O306  1  0.75285572  0.75596887  0.61647022  1
  O  O307  1  0.25165141  0.24979859  0.38987744  1
  O  O308  1  0.23725912  0.24304134  0.87782207  1
  O  O309  1  0.24379607  0.73901879  0.37244479  1
  O  O310  1  0.23402912  0.74905435  0.86583245  1
  O  O311  1  0.74129540  0.23919673  0.37290455  1
  O  O312  1  0.75552758  0.23847548  0.88365364  1
  O  O313  1  0.74412737  0.74533196  0.38176888  1
  O  O314  1  0.74735969  0.74023370  0.88197576  1
  O  O315  1  0.00174968  0.12122213  0.00821402  1
  O  O316  1  0.00746222  0.11582079  0.49750158  1
  O  O317  1  0.00321196  0.62063882  0.01240801  1
  O  O318  1  0.00655618  0.61959704  0.50599710  1
  O  O319  1  0.49550220  0.11024853  0.00775672  1
  O  O320  1  0.49618598  0.10871026  0.51340977  1
  O  O321  1  0.51294067  0.60830486  -0.00666722  1
  O  O322  1  0.50074051  0.61921021  0.51187833  1
  O  O323  1  0.49352626  0.38428307  0.49907967  1
  O  O324  1  0.50284889  0.38154177  0.99242550  1
  O  O325  1  0.49660586  0.89170755  0.50788697  1
  O  O326  1  0.50529173  0.89179527  0.99040903  1
  O  O327  1  1.01108344  0.39228809  0.49979003  1
  O  O328  1  0.98456787  0.37262505  1.00903758  1
  O  O329  1  0.99358052  0.88059425  0.49490580  1
  O  O330  1  1.00623538  0.88382195  0.99292852  1
  O  O331  1  0.49382643  0.50180996  0.38324538  1
  O  O332  1  0.50189161  0.49174707  0.88455863  1
  O  O333  1  0.49351099  1.00516849  0.38913725  1
  O  O334  1  0.49011265  0.99851411  0.88992910  1
  O  O335  1  0.99775793  0.50787525  0.38789244  1
  O  O336  1  0.98522686  0.50279038  0.87947864  1
  O  O337  1  0.99436922  0.99603399  0.38652998  1
  O  O338  1  0.99288621  0.99430663  0.88176448  1
  O  O339  1  0.00325788  0.00726652  0.12002262  1
  O  O340  1  0.00465190  -0.00792631  0.61332829  1
  O  O341  1  -0.00811092  0.50964681  0.13192629  1
  O  O342  1  0.00514884  0.50602174  0.61629321  1
  O  O343  1  0.49638358  0.00584917  0.10906917  1
  O  O344  1  0.51408235  0.00443679  0.61955741  1
  O  O345  1  0.50028249  0.49071106  0.10651547  1
  O  O346  1  0.50783951  0.50703919  0.61870390  1
  O  O347  1  0.24567105  0.37991655  0.24528569  1
  O  O348  1  0.23982170  0.38158535  0.74337893  1
  O  O349  1  0.24423788  0.88548026  0.24345912  1
  O  O350  1  0.24510167  0.88474838  0.74750621  1
  O  O351  1  0.73864793  0.37522884  0.23961244  1
  O  O352  1  0.73720756  0.37132246  0.73658504  1
  O  O353  1  0.73498575  0.87970764  0.25092483  1
  O  O354  1  0.75823144  0.86791307  0.73905297  1
  O  O355  1  0.25026304  0.11120953  0.24959404  1
  O  O356  1  0.24479279  0.11151143  0.75526746  1
  O  O357  1  0.24936748  0.61648592  0.25856914  1
  O  O358  1  0.25688717  0.61563418  0.74753847  1
  O  O359  1  0.75778973  0.12671140  0.25706310  1
  O  O360  1  0.75593886  0.13352703  0.76064256  1
  O  O361  1  0.75282933  0.62584532  0.25444317  1
  O  O362  1  0.76200996  0.62920444  0.75817048  1
  O  O363  1  0.37051880  0.11202772  0.37347776  1
  O  O364  1  0.36318941  0.11536641  0.87390587  1
  O  O365  1  0.36612543  0.61211471  0.38626004  1
  O  O366  1  0.37315318  0.61735477  0.85648542  1
  O  O367  1  0.86425385  0.12275635  0.37029808  1
  O  O368  1  0.87630154  0.11557211  0.87334548  1
  O  O369  1  0.86130943  0.62575934  0.36755004  1
  O  O370  1  0.86927752  0.61768233  0.86803555  1
  O  O371  1  0.14140634  0.36644899  0.13473722  1
  O  O372  1  0.13013160  0.38148069  0.63206276  1
  O  O373  1  0.12727604  0.88305483  0.13371216  1
  O  O374  1  0.13151209  0.87944963  0.63250503  1
  O  O375  1  0.62802251  0.37408173  0.13560320  1
  O  O376  1  0.63521428  0.38163561  0.63082687  1
  O  O377  1  0.63449531  0.87280368  0.13687138  1
  O  O378  1  0.63431168  0.88778029  0.62509311  1
  O  O379  1  0.12017533  0.25513283  0.25656320  1
  O  O380  1  0.11673137  0.25704043  0.75383412  1
  O  O381  1  0.11541543  0.75526542  0.25970614  1
  O  O382  1  0.11663219  0.75365678  0.75676919  1
  O  O383  1  0.61354213  0.25573302  0.25511777  1
  O  O384  1  0.62836207  0.25338660  0.74097093  1
  O  O385  1  0.62359756  0.75866746  0.26000731  1
  O  O386  1  0.62578199  0.74334487  0.76246968  1
  O  O387  1  0.38557356  0.24885464  0.24653709  1
  O  O388  1  0.36300901  0.24488541  0.73477045  1
  O  O389  1  0.38326558  0.73761158  0.26657718  1
  O  O390  1  0.37890756  0.74194396  0.74082789  1
  O  O391  1  0.88372107  0.23599458  0.25011294  1
  O  O392  1  0.88770723  0.25627164  0.74756724  1
  O  O393  1  0.88101375  0.74147149  0.25351130  1
  O  O394  1  0.88140394  0.73945434  0.74669887  1
  O  O395  1  0.38503846  0.49590637  0.49775285  1
  O  O396  1  0.38806518  0.49218175  0.99252325  1
  O  O397  1  0.38247940  0.99703218  0.49515427  1
  O  O398  1  0.36660966  0.99491725  0.99122878  1
  O  O399  1  0.88984220  0.50152656  0.49657578  1
  O  O400  1  0.87567664  0.48814591  0.99441925  1
  O  O401  1  0.88090811  0.99788704  0.49543850  1
  O  O402  1  0.88654587  1.00500887  0.98975716  1
  O  O403  1  0.11234600  0.00770041  0.00457283  1
  O  O404  1  0.11739631  0.00620608  0.50602760  1
  O  O405  1  0.11780307  0.51069968  -0.00615848  1
  O  O406  1  0.11754750  0.51087006  0.50258930  1
  O  O407  1  0.62005229  0.00268844  -0.00476932  1
  O  O408  1  0.61422483  -0.00320828  0.49712580  1
  O  O409  1  0.61964231  0.50533760  -0.00075070  1
  O  O410  1  0.61296743  0.50139191  0.50478225  1
  O  O411  1  0.36548901  0.36043864  0.12546086  1
  O  O412  1  0.37143319  0.36717123  0.62107072  1
  O  O413  1  0.35754157  0.88102360  0.12040434  1
  O  O414  1  0.36666618  0.86879305  0.62768367  1
  O  O415  1  0.86241440  0.37920329  0.11336549  1
  O  O416  1  0.86253013  0.37213303  0.62709950  1
  O  O417  1  0.87011960  0.86631330  0.13008173  1
  O  O418  1  0.86896611  0.86834806  0.61871652  1
  O  O419  1  0.12980940  0.12715615  0.39051678  1
  O  O420  1  0.12712197  0.13155843  0.88018391  1
  O  O421  1  0.13249145  0.62944846  0.38163626  1
  O  O422  1  0.12333646  0.63322961  0.88250430  1
  O  O423  1  0.63762217  0.13300860  0.37037688  1
  O  O424  1  0.64410782  0.11800124  0.86798117  1
  O  O425  1  0.63634363  0.63544558  0.37600268  1
  O  O426  1  0.63412060  0.63016059  0.88068800  1
