# generated using pymatgen
data_V85Zn86O256
_symmetry_space_group_name_H-M   'P 1'
_cell_length_a   16.94995938
_cell_length_b   16.97847224
_cell_length_c   16.99240428
_cell_angle_alpha   89.85582471
_cell_angle_beta   89.94590935
_cell_angle_gamma   89.95520294
_symmetry_Int_Tables_number   1
_chemical_formula_structural   V85Zn86O256
_chemical_formula_sum   'V85 Zn86 O256'
_cell_volume   4890.12997535
_cell_formula_units_Z   1
loop_
 _symmetry_equiv_pos_site_id
 _symmetry_equiv_pos_as_xyz
  1  'x, y, z'
loop_
 _atom_site_type_symbol
 _atom_site_label
 _atom_site_symmetry_multiplicity
 _atom_site_fract_x
 _atom_site_fract_y
 _atom_site_fract_z
 _atom_site_occupancy
  V  V0  1  0.12817520  0.48150690  0.63037853  1
  V  V1  1  0.62572950  0.87597348  0.74065276  1
  V  V2  1  0.26453226  0.26040095  0.49763968  1
  V  V3  1  0.24954001  0.00101079  0.25117660  1
  V  V4  1  0.74984374  0.49510869  0.25379334  1
  V  V5  1  -0.01540524  0.12384307  0.62517822  1
  V  V6  1  0.62219695  0.74972915  0.36201087  1
  V  V7  1  0.11926062  0.00512125  0.12190817  1
  V  V8  1  0.38194486  0.12668766  0.74217313  1
  V  V9  1  0.44610491  0.43861668  0.55116696  1
  V  V10  1  0.24325610  -0.00567631  0.74749935  1
  V  V11  1  0.11688959  0.50439694  0.12855726  1
  V  V12  1  0.51408014  0.24949792  0.74637832  1
  V  V13  1  0.87868812  0.50346442  0.37721208  1
  V  V14  1  0.25041020  0.62753124  0.37343834  1
  V  V15  1  0.87660056  0.87392106  0.00529220  1
  V  V16  1  0.49921393  0.50122448  0.00550429  1
  V  V17  1  0.37811700  0.49013607  0.37861604  1
  V  V18  1  0.85674119  0.25308614  0.11837757  1
  V  V19  1  0.24189295  0.24789341  0.00270426  1
  V  V20  1  0.63909905  0.24545565  0.37472185  1
  V  V21  1  0.76038960  0.49937169  0.75133543  1
  V  V22  1  0.75720480  0.24313514  0.50130205  1
  V  V23  1  0.37764667  0.87294548  0.49759926  1
  V  V24  1  0.11437068  0.63081831  -0.00118201  1
  V  V25  1  0.50496784  -0.00313347  0.50375681  1
  V  V26  1  0.00052700  0.49838914  0.50203060  1
  V  V27  1  0.12518367  0.62706828  0.50504525  1
  V  V28  1  0.50095889  0.62891783  0.13069076  1
  V  V29  1  0.00861346  0.88132917  0.86969436  1
  V  V30  1  0.24405974  0.49336730  0.25566509  1
  V  V31  1  0.50440029  0.37812808  0.37801873  1
  V  V32  1  0.74930857  0.37269799  0.62768418  1
  V  V33  1  0.49842179  0.62199272  0.62098774  1
  V  V34  1  0.37374751  0.62636346  0.75208011  1
  V  V35  1  0.75041545  0.62585620  0.37720599  1
  V  V36  1  0.00497097  0.48823496  -0.01806934  1
  V  V37  1  0.24813260  0.62708724  0.87645534  1
  V  V38  1  0.75716471  0.87352468  0.62388514  1
  V  V39  1  0.63124755  0.11821897  0.49878490  1
  V  V40  1  0.75770533  0.74592944  0.00653118  1
  V  V41  1  0.37259010  0.00449236  0.87251226  1
  V  V42  1  0.50388642  0.24958660  0.25209870  1
  V  V43  1  0.12051973  0.13435010  0.49613893  1
  V  V44  1  0.87470198  0.64067459  0.74849088  1
  V  V45  1  0.37505111  0.50486549  0.88288292  1
  V  V46  1  0.62082208  0.62151893  0.49909880  1
  V  V47  1  0.37409537  0.75098468  0.12750143  1
  V  V48  1  0.63244963  0.24952941  0.87986533  1
  V  V49  1  0.75632948  0.12441886  0.87621747  1
  V  V50  1  0.11207734  0.87861808  0.25594798  1
  V  V51  1  0.50272398  0.86988401  0.36069722  1
  V  V52  1  0.24454635  0.37576670  0.13109364  1
  V  V53  1  0.49928891  0.00049259  -0.00075510  1
  V  V54  1  0.62867935  0.74832069  0.87742303  1
  V  V55  1  0.88007040  0.86907933  0.48911711  1
  V  V56  1  0.50222138  0.12431968  0.12592425  1
  V  V57  1  0.37536539  0.37336930  0.00218285  1
  V  V58  1  0.62882165  0.12628359  0.00216932  1
  V  V59  1  0.50608735  0.12565203  0.62043971  1
  V  V60  1  0.00223905  -0.00428041  0.48955571  1
  V  V61  1  0.74711289  0.00187465  0.74481944  1
  V  V62  1  0.75373281  0.74737720  0.50511261  1
  V  V63  1  0.87483437  0.37197927  0.50417194  1
  V  V64  1  0.50221960  0.74914110  0.75027024  1
  V  V65  1  0.22807661  0.16140508  0.84079108  1
  V  V66  1  0.37664094  -0.00060398  0.37400732  1
  V  V67  1  0.62666643  -0.01285753  0.12699909  1
  V  V68  1  0.00833455  0.76067459  0.74100935  1
  V  V69  1  0.37583640  0.62798181  0.25342200  1
  V  V70  1  0.50481484  0.37041688  0.87667007  1
  V  V71  1  0.24607163  0.12977224  0.37656478  1
  V  V72  1  0.24840995  0.87710969  0.12335762  1
  V  V73  1  0.87460108  -0.00119455  0.87051898  1
  V  V74  1  0.63133787  0.49524853  0.12412077  1
  V  V75  1  0.87953776  0.62432225  0.23135137  1
  V  V76  1  0.24682724  0.87538282  0.62534712  1
  V  V77  1  0.62469692  0.49901254  0.62912861  1
  V  V78  1  0.50056802  0.87617443  0.87384267  1
  V  V79  1  0.37564738  0.74947053  0.62399394  1
  V  V80  1  0.74462705  -0.00602618  0.25811449  1
  V  V81  1  0.11593247  0.75417918  0.37345660  1
  V  V82  1  0.37914328  0.25022575  0.13043548  1
  V  V83  1  0.87190582  0.12618365  0.25567830  1
  V  V84  1  0.63221817  0.37226044  0.24939783  1
  Zn  Zn85  1  0.11752287  -0.00496572  0.62489013  1
  Zn  Zn86  1  0.85885570  0.37983144  -0.00111770  1
  Zn  Zn87  1  0.24831745  0.75335391  -0.00182148  1
  Zn  Zn88  1  -0.01442234  0.75308668  0.23816340  1
  Zn  Zn89  1  0.37679122  0.12591673  0.25181220  1
  Zn  Zn90  1  0.32186326  0.29771033  0.66795627  1
  Zn  Zn91  1  0.75312833  0.86840708  0.12934564  1
  Zn  Zn92  1  -0.00929228  0.13123224  0.11745111  1
  Zn  Zn93  1  0.12796570  0.75759687  0.87143190  1
  Zn  Zn94  1  0.12185110  0.12943931  -0.00313479  1
  Zn  Zn95  1  0.87353651  -0.00179890  0.37316445  1
  Zn  Zn96  1  0.01100752  0.25195391  0.25196522  1
  Zn  Zn97  1  -0.00283757  0.62991155  0.62384484  1
  Zn  Zn98  1  0.95853035  0.24159015  0.73969048  1
  Zn  Zn99  1  0.24941285  0.75180452  0.49865406  1
  Zn  Zn100  1  0.75783424  0.62270050  0.87673481  1
  Zn  Zn101  1  -0.00288735  0.00937203  -0.00383646  1
  Zn  Zn102  1  0.01837158  0.36271587  0.37388077  1
  Zn  Zn103  1  0.24232633  0.49103685  0.75069605  1
  Zn  Zn104  1  0.37401649  0.87563626  -0.00108330  1
  Zn  Zn105  1  0.01634486  0.34939856  0.86345596  1
  Zn  Zn106  1  0.62762065  0.62666679  0.00056565  1
  Zn  Zn107  1  0.18988567  0.18465048  0.18521391  1
  Zn  Zn108  1  0.18338429  0.17574199  0.67006828  1
  Zn  Zn109  1  0.14732621  0.71050147  0.16479498  1
  Zn  Zn110  1  0.18831721  0.68857285  0.68804898  1
  Zn  Zn111  1  0.69213414  0.17893705  0.18966199  1
  Zn  Zn112  1  0.74265241  0.20707739  0.71134505  1
  Zn  Zn113  1  0.69341609  0.67952744  0.18557473  1
  Zn  Zn114  1  0.68814852  0.68751704  0.68604696  1
  Zn  Zn115  1  0.17983110  0.31125751  0.31669946  1
  Zn  Zn116  1  0.20471396  0.32909801  0.80722259  1
  Zn  Zn117  1  0.30747019  0.81187290  0.31062764  1
  Zn  Zn118  1  0.31372435  0.81400400  0.81322306  1
  Zn  Zn119  1  0.84605473  0.32724276  0.30126502  1
  Zn  Zn120  1  0.84775961  0.33257278  0.80695156  1
  Zn  Zn121  1  0.80918358  0.80810427  0.31048097  1
  Zn  Zn122  1  0.81462975  0.81417777  0.81650231  1
  Zn  Zn123  1  0.19117220  0.44077835  0.44580386  1
  Zn  Zn124  1  0.18431297  0.43918587  0.94122597  1
  Zn  Zn125  1  0.18718185  0.93940012  0.43809290  1
  Zn  Zn126  1  0.18835719  0.94455559  0.93748737  1
  Zn  Zn127  1  0.68856870  0.43658632  0.44040060  1
  Zn  Zn128  1  0.68607485  0.43858185  0.93358958  1
  Zn  Zn129  1  0.68543039  0.93032908  0.43627033  1
  Zn  Zn130  1  0.68884234  0.93453952  0.93864452  1
  Zn  Zn131  1  0.31237296  0.06539897  0.06186282  1
  Zn  Zn132  1  0.31453005  0.06389034  0.56040347  1
  Zn  Zn133  1  0.30545405  0.56625114  0.06668554  1
  Zn  Zn134  1  0.30550110  0.56323435  0.56535623  1
  Zn  Zn135  1  0.81155838  0.06169381  0.06388436  1
  Zn  Zn136  1  0.81118357  0.05334177  0.55789187  1
  Zn  Zn137  1  0.80556332  0.54085320  0.04888647  1
  Zn  Zn138  1  0.81490153  0.56603906  0.56809938  1
  Zn  Zn139  1  0.43778044  0.43741669  0.19285790  1
  Zn  Zn140  1  0.40068571  0.41216851  0.73100680  1
  Zn  Zn141  1  0.43581922  0.93918617  0.18607001  1
  Zn  Zn142  1  0.43745398  0.93843830  0.68452834  1
  Zn  Zn143  1  0.93520495  0.42962408  0.18476001  1
  Zn  Zn144  1  0.93937561  0.43992727  0.68686030  1
  Zn  Zn145  1  0.93469437  0.94331327  0.18633591  1
  Zn  Zn146  1  0.93355347  0.94163683  0.68285056  1
  Zn  Zn147  1  0.05879846  0.06886088  0.31148176  1
  Zn  Zn148  1  0.03948877  0.10759487  0.83176681  1
  Zn  Zn149  1  0.06125336  0.56195208  0.31491743  1
  Zn  Zn150  1  0.06022845  0.56655018  0.80994007  1
  Zn  Zn151  1  0.56562175  0.06095574  0.31475571  1
  Zn  Zn152  1  0.56759530  0.06206820  0.81165450  1
  Zn  Zn153  1  0.56206169  0.56173465  0.31244015  1
  Zn  Zn154  1  0.56376816  0.56146632  0.81166139  1
  Zn  Zn155  1  0.43898946  0.18754303  0.43352467  1
  Zn  Zn156  1  0.43272194  0.18646837  0.93517612  1
  Zn  Zn157  1  0.43973738  0.68808764  0.43590117  1
  Zn  Zn158  1  0.43796612  0.69104335  0.94276165  1
  Zn  Zn159  1  0.93849976  0.18623732  0.42996828  1
  Zn  Zn160  1  0.93541919  0.20989454  0.93474544  1
  Zn  Zn161  1  0.93904264  0.68726367  0.43576923  1
  Zn  Zn162  1  0.93874609  0.69058773  0.92881056  1
  Zn  Zn163  1  0.05883622  0.31082007  0.07865996  1
  Zn  Zn164  1  0.05782074  0.30595491  0.56340174  1
  Zn  Zn165  1  0.05747837  0.81838855  0.05875847  1
  Zn  Zn166  1  0.06258742  0.81428868  0.56011998  1
  Zn  Zn167  1  0.56865679  0.31245692  0.06386049  1
  Zn  Zn168  1  0.57673509  0.30481607  0.56730456  1
  Zn  Zn169  1  0.55963530  0.80989396  0.06105970  1
  Zn  Zn170  1  0.56560198  0.80884220  0.55947240  1
  O  O171  1  0.12648408  0.11146904  0.12450513  1
  O  O172  1  0.11501560  0.11343465  0.60888440  1
  O  O173  1  0.14233045  0.61315683  0.10741677  1
  O  O174  1  0.12460924  0.62807435  0.61163058  1
  O  O175  1  0.62048692  0.11565895  0.11812753  1
  O  O176  1  0.61261885  0.12032932  0.60585603  1
  O  O177  1  0.61452349  0.61750561  0.12475454  1
  O  O178  1  0.61857353  0.62072650  0.61808077  1
  O  O179  1  0.38695263  0.38938435  0.37721280  1
  O  O180  1  0.38986535  0.38354849  0.89373613  1
  O  O181  1  0.38054525  0.87604171  0.38109628  1
  O  O182  1  0.38475556  0.88287664  0.87519275  1
  O  O183  1  0.86248541  0.39425629  0.39488260  1
  O  O184  1  0.90177732  0.33302325  0.90558202  1
  O  O185  1  0.86999928  0.87253297  0.38616894  1
  O  O186  1  0.88345423  0.88334217  0.88087885  1
  O  O187  1  0.25712146  0.00407489  0.36757736  1
  O  O188  1  0.26562066  -0.01058639  0.86379125  1
  O  O189  1  0.26106805  0.50660774  0.37374895  1
  O  O190  1  0.25915636  0.50874351  0.87377515  1
  O  O191  1  0.74680263  -0.00703935  0.36097851  1
  O  O192  1  0.75308383  0.00271916  0.86741430  1
  O  O193  1  0.75371188  0.50767602  0.37168512  1
  O  O194  1  0.73345892  0.50781422  0.85113743  1
  O  O195  1  0.24835680  0.49298965  0.13651971  1
  O  O196  1  0.23258842  0.50036388  0.62664515  1
  O  O197  1  0.24775770  0.99607869  0.13338508  1
  O  O198  1  0.25654922  0.99058315  0.63049168  1
  O  O199  1  0.73363012  0.51518894  0.14179750  1
  O  O200  1  0.74372376  0.49716984  0.63341213  1
  O  O201  1  0.73991158  0.99365071  0.13100394  1
  O  O202  1  0.75057811  0.98985909  0.63534978  1
  O  O203  1  -0.04214944  0.36249990  0.27139841  1
  O  O204  1  -0.03722068  0.35929917  0.75777235  1
  O  O205  1  0.00933494  0.87637777  0.24888553  1
  O  O206  1  -0.00713028  0.86691433  0.75232926  1
  O  O207  1  0.50858116  0.36875762  0.25938906  1
  O  O208  1  0.49713785  0.36275548  0.76545203  1
  O  O209  1  0.49570658  0.87858739  0.26216448  1
  O  O210  1  0.50749770  0.86889628  0.75127765  1
  O  O211  1  0.50066105  0.13154912  0.24577051  1
  O  O212  1  0.50221076  0.12717555  0.73997892  1
  O  O213  1  0.49037176  0.61807923  0.23944687  1
  O  O214  1  0.49393013  0.63081111  0.74327852  1
  O  O215  1  0.98217731  0.12219473  0.24494050  1
  O  O216  1  0.99663803  0.10831799  0.72488354  1
  O  O217  1  0.98122169  0.61994106  0.25242692  1
  O  O218  1  0.99231772  0.64130648  0.74838141  1
  O  O219  1  0.37496208  0.25846179  0.01125626  1
  O  O220  1  0.36396176  0.24845388  0.49423940  1
  O  O221  1  0.36978218  0.75190853  0.01488902  1
  O  O222  1  0.37490213  0.75722933  0.50479353  1
  O  O223  1  0.86255826  0.23337392  0.01964744  1
  O  O224  1  0.86416973  0.25711784  0.49310870  1
  O  O225  1  0.86813724  0.75863595  -0.00895785  1
  O  O226  1  0.86634883  0.75417839  0.49558509  1
  O  O227  1  0.13083511  0.23650001  0.50263854  1
  O  O228  1  0.13923330  0.25232389  1.01231346  1
  O  O229  1  0.12596139  0.74371289  0.49126526  1
  O  O230  1  0.12845728  0.74390176  0.99370432  1
  O  O231  1  0.63582253  0.23957691  0.49254784  1
  O  O232  1  0.61820526  0.23702093  0.99409390  1
  O  O233  1  0.63240652  0.73729116  0.49376081  1
  O  O234  1  0.63136326  0.74878805  0.99192664  1
  O  O235  1  0.49824076  0.24484304  0.13042681  1
  O  O236  1  0.51036326  0.23950179  0.63399199  1
  O  O237  1  0.48870684  0.74067560  0.12301832  1
  O  O238  1  0.49480925  0.74413460  0.63091084  1
  O  O239  1  0.98391784  0.24759095  0.13455826  1
  O  O240  1  1.00123863  0.23004944  0.62723348  1
  O  O241  1  1.03838359  0.74574262  0.13920267  1
  O  O242  1  1.00303729  0.75253948  0.63754773  1
  O  O243  1  0.00690642  0.24804169  0.36929689  1
  O  O244  1  0.00663135  0.21837968  0.84676833  1
  O  O245  1  0.01377663  0.74276247  0.36456242  1
  O  O246  1  0.00280767  0.76431796  0.86159374  1
  O  O247  1  0.50828124  0.26102261  0.37189261  1
  O  O248  1  0.50572135  0.25461196  0.87129941  1
  O  O249  1  0.50893232  0.75758237  0.37608093  1
  O  O250  1  0.50526163  0.75624185  0.87031676  1
  O  O251  1  0.24366907  0.12625659  0.49132425  1
  O  O252  1  0.25001128  0.14012899  1.00221106  1
  O  O253  1  0.24295168  0.62563356  0.49004920  1
  O  O254  1  0.24616203  0.62604772  0.98664614  1
  O  O255  1  0.74375241  0.13105835  0.50411060  1
  O  O256  1  0.73479705  0.11324476  0.99101211  1
  O  O257  1  0.74581580  0.63125211  0.49745181  1
  O  O258  1  0.74933722  0.63033375  0.99427619  1
  O  O259  1  0.25995472  0.37199401  0.01027029  1
  O  O260  1  0.25174768  0.35938117  0.49841138  1
  O  O261  1  0.25255758  0.87895496  0.01304720  1
  O  O262  1  0.26441088  0.87581204  0.50409854  1
  O  O263  1  0.76246348  0.43789636  0.01026400  1
  O  O264  1  0.75407753  0.36751922  0.50844783  1
  O  O265  1  0.75894942  0.86534454  0.00064885  1
  O  O266  1  0.75433484  0.86649104  0.50588054  1
  O  O267  1  0.13738401  0.51424021  0.24256388  1
  O  O268  1  0.12326863  0.50607623  0.73288795  1
  O  O269  1  0.13101003  0.99547253  0.24674033  1
  O  O270  1  0.14424425  1.00161769  0.74407325  1
  O  O271  1  0.63134251  0.49340135  0.24707866  1
  O  O272  1  0.63269309  0.51013003  0.73336049  1
  O  O273  1  0.63590955  1.00307859  0.24226360  1
  O  O274  1  0.63046022  0.98218285  0.75600160  1
  O  O275  1  0.36658286  0.00251773  0.25531353  1
  O  O276  1  0.37899395  0.00899074  0.75617008  1
  O  O277  1  0.36989325  0.50807093  0.26017128  1
  O  O278  1  0.37887446  0.51821559  0.76335049  1
  O  O279  1  0.86425211  0.00555592  0.25200131  1
  O  O280  1  0.86099281  -0.00694336  0.76124326  1
  O  O281  1  0.86792645  0.50692201  0.25914018  1
  O  O282  1  0.86320017  0.51261377  0.74625768  1
  O  O283  1  0.12724742  0.39453393  0.36880045  1
  O  O284  1  0.12758543  0.37938734  0.86718196  1
  O  O285  1  0.13098792  0.86688987  0.36802022  1
  O  O286  1  0.11197673  0.88131550  0.87631650  1
  O  O287  1  0.62183000  0.36855763  0.37040201  1
  O  O288  1  0.61349714  0.36559175  0.88611885  1
  O  O289  1  0.61442552  0.86104740  0.37898419  1
  O  O290  1  0.62041042  0.86441907  0.86781127  1
  O  O291  1  0.38370082  0.13382688  0.12595572  1
  O  O292  1  0.39312578  0.11565254  0.62906085  1
  O  O293  1  0.37729980  0.63090089  0.13448266  1
  O  O294  1  0.37707506  0.62819442  0.63321887  1
  O  O295  1  0.87056167  0.12651372  0.13680523  1
  O  O296  1  0.88558736  0.11985831  0.61291189  1
  O  O297  1  0.86863020  0.61303827  0.13497332  1
  O  O298  1  0.88024492  0.62372623  0.64149205  1
  O  O299  1  0.26257118  0.25856110  0.12088984  1
  O  O300  1  0.25291844  0.23945148  0.60448973  1
  O  O301  1  0.25207549  0.76274835  0.12491669  1
  O  O302  1  0.25842368  0.75655572  0.62253168  1
  O  O303  1  0.75584755  0.25001769  0.12869849  1
  O  O304  1  0.73801258  0.26251454  0.61280518  1
  O  O305  1  0.74423679  0.75013005  0.11029576  1
  O  O306  1  0.74613767  0.75511971  0.61168652  1
  O  O307  1  0.24673064  0.23949402  0.38507541  1
  O  O308  1  0.26239234  0.25143485  0.89120795  1
  O  O309  1  0.24566306  0.74058699  0.37845336  1
  O  O310  1  0.24840349  0.74415255  0.87600436  1
  O  O311  1  0.74083884  0.25594818  0.38373391  1
  O  O312  1  0.73433344  0.23900954  0.87672196  1
  O  O313  1  0.74197596  0.74451988  0.38525538  1
  O  O314  1  0.74247321  0.74912542  0.88295059  1
  O  O315  1  0.00404436  0.12763871  -0.00092739  1
  O  O316  1  0.00509324  0.11686150  0.50211014  1
  O  O317  1  0.01222819  0.61978991  -0.01085739  1
  O  O318  1  0.00800617  0.61745923  0.50161466  1
  O  O319  1  0.50647131  0.11822310  0.00411564  1
  O  O320  1  0.50427358  0.11645997  0.50186663  1
  O  O321  1  0.49782102  0.61763604  0.01318313  1
  O  O322  1  0.50909542  0.62922386  0.50789477  1
  O  O323  1  0.51020222  0.37413440  0.49570143  1
  O  O324  1  0.49513236  0.38275653  1.00115788  1
  O  O325  1  0.49269741  0.87877446  0.49566298  1
  O  O326  1  0.49701270  0.88272940  0.99271841  1
  O  O327  1  0.99155428  0.38033141  0.49986951  1
  O  O328  1  1.01782595  0.38753082  0.99986384  1
  O  O329  1  0.99047757  0.88031289  0.50167849  1
  O  O330  1  0.99292683  0.88071941  0.98774730  1
  O  O331  1  0.49872080  0.48699908  0.37446594  1
  O  O332  1  0.49818832  0.49444906  0.88510121  1
  O  O333  1  0.49561374  0.99170855  0.38254610  1
  O  O334  1  0.49150412  0.99768892  0.87795102  1
  O  O335  1  0.99296317  0.50025749  0.38831809  1
  O  O336  1  1.00502088  0.49516793  0.88108322  1
  O  O337  1  0.99747018  1.00264211  0.38571351  1
  O  O338  1  0.98913096  1.00087172  0.87098264  1
  O  O339  1  0.00783028  0.00325691  0.12019218  1
  O  O340  1  -0.00213932  0.00274278  0.60885044  1
  O  O341  1  0.01630049  0.49266292  0.13176513  1
  O  O342  1  0.00970755  0.50258342  0.61653038  1
  O  O343  1  0.50545342  0.00531391  0.12055258  1
  O  O344  1  0.50032845  0.00148471  0.60909147  1
  O  O345  1  0.50499961  0.50570206  0.12181607  1
  O  O346  1  0.50751376  0.50255231  0.61702944  1
  O  O347  1  0.25613251  0.38727767  0.24511218  1
  O  O348  1  0.28541944  0.37906362  0.74352889  1
  O  O349  1  0.24682151  0.88791433  0.24276873  1
  O  O350  1  0.26276093  0.88223196  0.73616859  1
  O  O351  1  0.75140982  0.38932782  0.25755793  1
  O  O352  1  0.76054984  0.39107422  0.74232398  1
  O  O353  1  0.75710205  0.88750944  0.24479486  1
  O  O354  1  0.74464641  0.87744184  0.74210641  1
  O  O355  1  0.25202563  0.11453518  0.25632638  1
  O  O356  1  0.26606722  0.11176832  0.74329023  1
  O  O357  1  0.25920365  0.61425187  0.26520818  1
  O  O358  1  0.25697405  0.62475672  0.76012835  1
  O  O359  1  0.75764363  0.10478126  0.24765700  1
  O  O360  1  0.72882393  0.10699698  0.76340025  1
  O  O361  1  0.75929527  0.61569820  0.25945939  1
  O  O362  1  0.76095098  0.62303833  0.74774972  1
  O  O363  1  0.36480290  0.11862450  0.37326901  1
  O  O364  1  0.36643024  0.11973289  0.86280146  1
  O  O365  1  0.37263371  0.61876264  0.37031557  1
  O  O366  1  0.37055256  0.62581361  0.87139905  1
  O  O367  1  0.87115772  0.11972096  0.36017526  1
  O  O368  1  0.85887235  0.11637163  0.88180546  1
  O  O369  1  0.86884166  0.61367259  0.37849268  1
  O  O370  1  0.87478455  0.62760482  0.85485378  1
  O  O371  1  0.14084728  0.38703139  0.12180882  1
  O  O372  1  0.12066522  0.38274045  0.62560982  1
  O  O373  1  0.13343448  0.88863514  0.13387947  1
  O  O374  1  0.14289057  0.87650326  0.61566517  1
  O  O375  1  0.62056866  0.38535820  0.13522789  1
  O  O376  1  0.63843408  0.38658825  0.62113530  1
  O  O377  1  0.62254889  0.88506609  0.12167486  1
  O  O378  1  0.63560364  0.86693616  0.63234697  1
  O  O379  1  0.12637319  0.25858342  0.23512409  1
  O  O380  1  0.17348833  0.22529011  0.77001234  1
  O  O381  1  0.13916826  0.76744002  0.26314666  1
  O  O382  1  0.11183528  0.74979553  0.75118503  1
  O  O383  1  0.62523111  0.25178484  0.25767124  1
  O  O384  1  0.61776786  0.24469970  0.76216173  1
  O  O385  1  0.63331007  0.73977631  0.26349123  1
  O  O386  1  0.62261356  0.75740907  0.75606401  1
  O  O387  1  0.38487450  0.24961425  0.23550447  1
  O  O388  1  0.39170448  0.23298918  0.74221202  1
  O  O389  1  0.36707684  0.73660029  0.24197418  1
  O  O390  1  0.38070632  0.74032622  0.74629144  1
  O  O391  1  0.85898424  0.23061506  0.24245374  1
  O  O392  1  0.84334860  0.23558754  0.75017507  1
  O  O393  1  0.87089513  0.73100943  0.25029048  1
  O  O394  1  0.88199086  0.74583579  0.74917435  1
  O  O395  1  0.37919209  0.50254695  0.49686404  1
  O  O396  1  0.38264861  0.49624605  1.00282103  1
  O  O397  1  0.38315033  0.99145955  0.49266318  1
  O  O398  1  0.38042642  1.00212769  0.99010751  1
  O  O399  1  0.88380931  0.49847752  0.49852981  1
  O  O400  1  0.90756096  0.50061901  1.00809567  1
  O  O401  1  0.87998653  0.98733120  0.49270034  1
  O  O402  1  0.87141464  0.99152917  0.98733183  1
  O  O403  1  0.12398392  0.00246915  0.01071566  1
  O  O404  1  0.11662318  0.00476964  0.49978480  1
  O  O405  1  0.11849575  0.50986505  0.00773392  1
  O  O406  1  0.11936979  0.50707581  0.51213246  1
  O  O407  1  0.61789326  0.00338160  0.00652748  1
  O  O408  1  0.61739337  0.00595943  0.49010855  1
  O  O409  1  0.61110324  0.50385786  0.00858202  1
  O  O410  1  0.63416188  0.51447166  0.51003318  1
  O  O411  1  0.37160939  0.37134085  0.11928834  1
  O  O412  1  0.39373653  0.38023791  0.61863165  1
  O  O413  1  0.36734034  0.86725446  0.12671010  1
  O  O414  1  0.37220662  0.86908653  0.61532970  1
  O  O415  1  0.87292513  0.35877444  0.11697735  1
  O  O416  1  0.86256196  0.38423116  0.61077759  1
  O  O417  1  0.87774679  0.87808584  0.10892976  1
  O  O418  1  0.86164063  0.87641172  0.61400637  1
  O  O419  1  0.13805005  0.11550954  0.38137295  1
  O  O420  1  0.14764706  0.10892744  0.87919085  1
  O  O421  1  0.13279131  0.62967562  0.38377904  1
  O  O422  1  0.13390296  0.62675877  0.88003710  1
  O  O423  1  0.61905464  0.13488657  0.38656929  1
  O  O424  1  0.62666295  0.12955827  0.88540924  1
  O  O425  1  0.62834329  0.62759110  0.38257318  1
  O  O426  1  0.62152374  0.63988057  0.87502437  1
