# generated using pymatgen
data_V85Zn86O256
_symmetry_space_group_name_H-M   'P 1'
_cell_length_a   16.94995326
_cell_length_b   16.94834008
_cell_length_c   16.94234867
_cell_angle_alpha   89.96805945
_cell_angle_beta   90.08093112
_cell_angle_gamma   89.99054098
_symmetry_Int_Tables_number   1
_chemical_formula_structural   V85Zn86O256
_chemical_formula_sum   'V85 Zn86 O256'
_cell_volume   4867.08334477
_cell_formula_units_Z   1
loop_
 _symmetry_equiv_pos_site_id
 _symmetry_equiv_pos_as_xyz
  1  'x, y, z'
loop_
 _atom_site_type_symbol
 _atom_site_label
 _atom_site_symmetry_multiplicity
 _atom_site_fract_x
 _atom_site_fract_y
 _atom_site_fract_z
 _atom_site_occupancy
  V  V0  1  0.49842937  0.37447738  0.87451427  1
  V  V1  1  0.12909552  0.25369769  0.38400550  1
  V  V2  1  0.87274653  0.73680476  0.62808655  1
  V  V3  1  0.12651194  0.11714200  0.50681406  1
  V  V4  1  0.50002770  0.86534411  0.87331358  1
  V  V5  1  0.37246716  0.12604629  0.74225036  1
  V  V6  1  -0.00106279  0.38399466  0.87336698  1
  V  V7  1  0.12502304  -0.00467327  0.11179811  1
  V  V8  1  0.87535632  0.62150302  0.24863131  1
  V  V9  1  0.62322239  0.50067484  0.12334692  1
  V  V10  1  0.75116986  0.12596871  0.87617955  1
  V  V11  1  0.00201712  0.37447365  0.37685676  1
  V  V12  1  0.62121583  0.25086755  0.37995463  1
  V  V13  1  0.87471702  0.24595274  0.13023592  1
  V  V14  1  0.87977281  0.00085358  0.88729640  1
  V  V15  1  0.62772773  0.61293937  0.50747705  1
  V  V16  1  0.76594562  0.62889562  0.87889503  1
  V  V17  1  0.76235323  -0.02507433  0.27666873  1
  V  V18  1  0.62293299  0.86737846  0.74839920  1
  V  V19  1  0.48581828  0.38315842  0.37612618  1
  V  V20  1  0.12490592  0.37335123  0.25321217  1
  V  V21  1  0.74518000  0.24440987  0.50407202  1
  V  V22  1  0.00058466  0.11257168  0.62784135  1
  V  V23  1  0.87672654  0.49812017  0.37519374  1
  V  V24  1  0.11062104  0.87447397  0.24645107  1
  V  V25  1  0.87320800  0.37375803  0.50389196  1
  V  V26  1  0.61941013  0.86971950  0.24540093  1
  V  V27  1  0.24011465  -0.00883744  0.73907060  1
  V  V28  1  -0.00344868  0.12080532  0.10845638  1
  V  V29  1  0.12946295  0.61934411  0.50406009  1
  V  V30  1  0.74333272  0.12851764  0.36789538  1
  V  V31  1  0.75520660  0.50646993  0.75668312  1
  V  V32  1  0.49816181  0.49926173  0.00000066  1
  V  V33  1  0.49967329  0.24976877  0.25011643  1
  V  V34  1  0.62269890  0.74511841  0.37524749  1
  V  V35  1  0.12989012  0.75281761  0.86420867  1
  V  V36  1  0.37110651  0.24849822  0.11650946  1
  V  V37  1  0.75367078  0.00118350  0.75218210  1
  V  V38  1  0.74545882  0.87115801  0.11404898  1
  V  V39  1  0.74965689  0.37356031  0.12273330  1
  V  V40  1  0.48623960  0.62963376  0.13065315  1
  V  V41  1  0.50306622  0.00130025  0.49993406  1
  V  V42  1  0.37539091  0.87823722  -0.00233650  1
  V  V43  1  0.19612999  0.80703148  0.55532142  1
  V  V44  1  0.50319083  0.12970880  0.61842241  1
  V  V45  1  0.25292912  0.12786773  0.87998875  1
  V  V46  1  0.24838022  0.37123526  0.11834704  1
  V  V47  1  0.25448537  0.75099738  -0.00366410  1
  V  V48  1  0.73985820  0.38197059  0.62728935  1
  V  V49  1  0.86880992  0.74614290  0.11506799  1
  V  V50  1  0.75397757  0.74902679  0.49909685  1
  V  V51  1  0.11957762  0.75087042  0.37287620  1
  V  V52  1  0.49884962  0.87230872  0.37939318  1
  V  V53  1  0.00711626  0.87908016  0.87876412  1
  V  V54  1  0.62558167  0.25198642  0.87549892  1
  V  V55  1  0.37606171  0.12644257  0.25028616  1
  V  V56  1  0.38336683  0.00221045  0.87476646  1
  V  V57  1  0.26141474  0.62384813  0.37632664  1
  V  V58  1  0.62403531  0.37479536  0.24935824  1
  V  V59  1  0.38235402  0.63123701  0.74985262  1
  V  V60  1  0.62285817  0.11623527  -0.00173486  1
  V  V61  1  0.00434969  0.49892496  0.51104354  1
  V  V62  1  0.37073604  0.50047633  0.87148604  1
  V  V63  1  0.50168204  0.12040200  0.12088558  1
  V  V64  1  0.25286314  0.12972137  0.37966513  1
  V  V65  1  0.76118063  0.87732234  0.62356644  1
  V  V66  1  0.13106929  0.38481316  0.73929313  1
  V  V67  1  0.12411723  0.49923084  0.12442956  1
  V  V68  1  0.31441731  0.30275551  0.56942058  1
  V  V69  1  0.74925429  0.49869768  0.24902875  1
  V  V70  1  -0.00402261  0.74870694  0.75090111  1
  V  V71  1  0.87444453  0.37959830  -0.00389421  1
  V  V72  1  0.39505910  0.75756322  0.62453153  1
  V  V73  1  0.92201121  0.07146710  0.30392120  1
  V  V74  1  0.00171968  0.25051257  0.74877731  1
  V  V75  1  0.62581321  0.63477055  -0.00206223  1
  V  V76  1  0.62770121  0.00531118  0.62380898  1
  V  V77  1  0.13044840  0.25392340  0.88196765  1
  V  V78  1  0.48737506  0.49981403  0.50545430  1
  V  V79  1  0.00075162  0.62599706  0.12523368  1
  V  V80  1  0.30971726  0.81919076  0.17243688  1
  V  V81  1  0.26130084  0.50527651  0.25585660  1
  V  V82  1  0.49740527  0.25092914  0.74623741  1
  V  V83  1  0.25348416  0.00154010  0.24258218  1
  V  V84  1  0.74930823  0.62128202  0.37502798  1
  Zn  Zn85  1  0.00477957  0.62055594  0.63223709  1
  Zn  Zn86  1  0.36958894  0.37025912  -0.00554710  1
  Zn  Zn87  1  0.86479129  0.90056038  0.45578107  1
  Zn  Zn88  1  0.62888508  0.74777371  0.87227813  1
  Zn  Zn89  1  0.87377515  0.24927135  0.62943866  1
  Zn  Zn90  1  0.13058169  0.12790726  0.00013641  1
  Zn  Zn91  1  0.25011292  0.62343889  0.87393203  1
  Zn  Zn92  1  0.87393939  0.87086822  -0.00322185  1
  Zn  Zn93  1  0.87743021  0.12701220  0.75280452  1
  Zn  Zn94  1  0.37509526  0.00046053  0.37817329  1
  Zn  Zn95  1  0.51071478  0.62075139  0.63523303  1
  Zn  Zn96  1  -0.00779137  -0.00308238  0.49103291  1
  Zn  Zn97  1  0.62102781  0.38525846  0.74619274  1
  Zn  Zn98  1  -0.00248041  0.50325607  -0.00342304  1
  Zn  Zn99  1  0.48375902  0.74454350  0.25165947  1
  Zn  Zn100  1  -0.00097315  0.24720840  0.25112575  1
  Zn  Zn101  1  -0.00482548  0.75145735  0.25242999  1
  Zn  Zn102  1  0.75079610  0.24950842  0.00022456  1
  Zn  Zn103  1  0.12815182  0.62693065  -0.00092304  1
  Zn  Zn104  1  0.36847244  0.87781997  0.50832564  1
  Zn  Zn105  1  0.25352094  0.50145287  0.73270343  1
  Zn  Zn106  1  0.62925313  0.00014900  0.12745124  1
  Zn  Zn107  1  0.18482662  0.18714928  0.18666571  1
  Zn  Zn108  1  0.18479788  0.18554563  0.69221120  1
  Zn  Zn109  1  0.18342284  0.68364022  0.19200032  1
  Zn  Zn110  1  0.19282253  0.68090719  0.68985959  1
  Zn  Zn111  1  0.68951087  0.18528500  0.19009597  1
  Zn  Zn112  1  0.68603025  0.18938992  0.68960565  1
  Zn  Zn113  1  0.68376401  0.68688419  0.18476656  1
  Zn  Zn114  1  0.69183802  0.68442943  0.69037746  1
  Zn  Zn115  1  0.30910988  0.31255978  0.30931168  1
  Zn  Zn116  1  0.31202055  0.31243204  0.80441483  1
  Zn  Zn117  1  0.30568815  0.81364728  0.33871714  1
  Zn  Zn118  1  0.31434338  0.81343762  0.80659360  1
  Zn  Zn119  1  0.81285429  0.31162726  0.31199297  1
  Zn  Zn120  1  0.81272168  0.31660721  0.81113639  1
  Zn  Zn121  1  0.80769214  0.80242740  0.30185099  1
  Zn  Zn122  1  0.81498491  0.81187634  0.81271409  1
  Zn  Zn123  1  0.19239176  0.43917904  0.55791942  1
  Zn  Zn124  1  0.18498225  0.43754740  0.93665688  1
  Zn  Zn125  1  0.18076381  0.94351608  0.42876151  1
  Zn  Zn126  1  0.19594373  0.93606345  0.92966947  1
  Zn  Zn127  1  0.68536272  0.43385800  0.43741071  1
  Zn  Zn128  1  0.68743214  0.44171772  0.93420651  1
  Zn  Zn129  1  0.68305899  0.93439478  0.44129944  1
  Zn  Zn130  1  0.68535100  0.93768261  0.93451407  1
  Zn  Zn131  1  0.31403792  0.06001842  0.05977984  1
  Zn  Zn132  1  0.31497095  0.06568467  0.56328829  1
  Zn  Zn133  1  0.30968412  0.56003178  0.06043856  1
  Zn  Zn134  1  0.31798124  0.57388429  0.56327784  1
  Zn  Zn135  1  0.80620842  0.06005277  0.06877871  1
  Zn  Zn136  1  0.81885344  0.06543912  0.56131792  1
  Zn  Zn137  1  0.81095922  0.56122922  0.05839110  1
  Zn  Zn138  1  0.81109030  0.55738335  0.56508121  1
  Zn  Zn139  1  0.43646256  0.43576071  0.18514333  1
  Zn  Zn140  1  0.43417499  0.43712832  0.68512070  1
  Zn  Zn141  1  0.44441903  0.94361774  0.19150124  1
  Zn  Zn142  1  0.43810070  0.94067660  0.69087453  1
  Zn  Zn143  1  0.93846921  0.43554287  0.18458373  1
  Zn  Zn144  1  0.93216621  0.43559675  0.69035922  1
  Zn  Zn145  1  0.93918165  0.93399486  0.17277190  1
  Zn  Zn146  1  0.93988128  0.93439170  0.69732379  1
  Zn  Zn147  1  0.08417286  0.06619256  0.30520102  1
  Zn  Zn148  1  0.06572769  0.06323020  0.81507789  1
  Zn  Zn149  1  0.06604888  0.56058021  0.31606284  1
  Zn  Zn150  1  0.06379416  0.56676867  0.81324801  1
  Zn  Zn151  1  0.56744452  0.06015139  0.31212579  1
  Zn  Zn152  1  0.56247552  0.06073789  0.80979269  1
  Zn  Zn153  1  0.55952147  0.56173653  0.31259066  1
  Zn  Zn154  1  0.56654623  0.56064351  0.81293230  1
  Zn  Zn155  1  0.43767134  0.18879780  0.43912390  1
  Zn  Zn156  1  0.43888493  0.18586872  0.93645449  1
  Zn  Zn157  1  0.43854972  0.68771802  0.44587356  1
  Zn  Zn158  1  0.43652228  0.68739202  0.94000407  1
  Zn  Zn159  1  0.94029624  0.19007175  0.44533799  1
  Zn  Zn160  1  0.93694877  0.19548510  0.93598999  1
  Zn  Zn161  1  0.93926297  0.68656333  0.44069219  1
  Zn  Zn162  1  0.94461142  0.69005584  0.93884538  1
  Zn  Zn163  1  0.05896742  0.31086472  0.06180120  1
  Zn  Zn164  1  0.06240430  0.30507555  0.56380876  1
  Zn  Zn165  1  0.06434966  0.81106060  0.05860030  1
  Zn  Zn166  1  0.02635530  0.82507981  0.55569144  1
  Zn  Zn167  1  0.56075496  0.30916914  0.05986286  1
  Zn  Zn168  1  0.55694216  0.31658590  0.55981256  1
  Zn  Zn169  1  0.55364538  0.81079732  0.06147400  1
  Zn  Zn170  1  0.57000303  0.81347729  0.56206544  1
  O  O171  1  0.11656542  0.11797918  0.12201613  1
  O  O172  1  0.11682646  0.13002613  0.61547234  1
  O  O173  1  0.11707869  0.61645550  0.12523760  1
  O  O174  1  0.12348830  0.63682124  0.60749377  1
  O  O175  1  0.61962667  0.12710499  0.11674936  1
  O  O176  1  0.61973289  0.11235576  0.63196082  1
  O  O177  1  0.61964160  0.61662840  0.11696480  1
  O  O178  1  0.62646891  0.63064341  0.61240782  1
  O  O179  1  0.38805837  0.37076958  0.36929393  1
  O  O180  1  0.38040932  0.38058433  0.87422742  1
  O  O181  1  0.38638393  0.87837628  0.38268866  1
  O  O182  1  0.38269650  0.88212976  0.87788136  1
  O  O183  1  0.88007146  0.37841814  0.38229853  1
  O  O184  1  0.88565004  0.36801018  0.88433890  1
  O  O185  1  0.82169275  0.90536220  0.34528409  1
  O  O186  1  0.88040603  0.88379694  0.87706888  1
  O  O187  1  0.25063251  0.00967136  0.36066649  1
  O  O188  1  0.26292216  0.00933611  0.86667116  1
  O  O189  1  0.24819620  0.51329784  0.35971957  1
  O  O190  1  0.26379742  0.49892083  0.87790011  1
  O  O191  1  0.73010416  0.01625917  0.37475906  1
  O  O192  1  0.75583209  0.00527470  0.86835274  1
  O  O193  1  0.75629774  0.50174520  0.36970222  1
  O  O194  1  0.75000726  0.51136154  0.86719258  1
  O  O195  1  0.24302819  0.49403381  0.13362852  1
  O  O196  1  0.24583582  0.51307173  0.62077048  1
  O  O197  1  0.24365396  1.00768134  0.13584162  1
  O  O198  1  0.25561526  1.00563732  0.63964177  1
  O  O199  1  0.74295670  0.49360295  0.12891575  1
  O  O200  1  0.75094856  0.49238148  0.63632286  1
  O  O201  1  0.74835674  0.98660204  0.13873414  1
  O  O202  1  0.74672739  0.99685974  0.63022863  1
  O  O203  1  0.01227925  0.37614107  0.25433980  1
  O  O204  1  0.00778216  0.37093782  0.75498894  1
  O  O205  1  0.00751407  0.87546796  0.24788003  1
  O  O206  1  -0.00101030  0.86159911  0.76366144  1
  O  O207  1  0.50374021  0.37203181  0.25897632  1
  O  O208  1  0.50218945  0.36728231  0.75413860  1
  O  O209  1  0.50395486  0.87060509  0.25852759  1
  O  O210  1  0.51223736  0.88321804  0.75940533  1
  O  O211  1  0.49691082  0.13066517  0.24531322  1
  O  O212  1  0.49547283  0.13052080  0.74132998  1
  O  O213  1  0.50096069  0.62471072  0.23631915  1
  O  O214  1  0.48867417  0.61901851  0.75094538  1
  O  O215  1  0.99263080  0.12365833  0.24522860  1
  O  O216  1  1.00291922  0.13364526  0.74497165  1
  O  O217  1  0.99445661  0.62100975  0.23962472  1
  O  O218  1  1.00552847  0.64059322  0.74819811  1
  O  O219  1  0.37924446  0.25048737  0.01265986  1
  O  O220  1  0.37751507  0.24938536  0.50955073  1
  O  O221  1  0.36357695  0.75791424  -0.00320257  1
  O  O222  1  0.37866360  0.75437794  0.51884591  1
  O  O223  1  0.87346361  0.26097218  0.01049292  1
  O  O224  1  0.86653622  0.26170428  0.50051155  1
  O  O225  1  0.87523784  0.74801449  0.01173779  1
  O  O226  1  0.86564019  0.74745232  0.50709720  1
  O  O227  1  0.12029848  0.23852890  0.48805277  1
  O  O228  1  0.12446528  0.25218565  0.98610893  1
  O  O229  1  0.13193656  0.74747601  0.49151442  1
  O  O230  1  0.13982688  0.75156680  0.99300012  1
  O  O231  1  0.63249175  0.25764978  0.49066230  1
  O  O232  1  0.62540779  0.24180530  0.98796120  1
  O  O233  1  0.63425055  0.74259699  0.49312786  1
  O  O234  1  0.62116442  0.73729182  1.00032870  1
  O  O235  1  0.49353273  0.24208866  0.13095991  1
  O  O236  1  0.51170511  0.24068950  0.63355162  1
  O  O237  1  0.49878524  0.73405266  0.12918916  1
  O  O238  1  0.49767457  0.74788054  0.62491827  1
  O  O239  1  0.99421726  0.23919002  0.12806279  1
  O  O240  1  0.99784561  0.24208693  0.63484966  1
  O  O241  1  0.99296081  0.74097707  0.12685907  1
  O  O242  1  0.98732893  0.75047631  0.63214589  1
  O  O243  1  0.00762849  0.25623698  0.37320805  1
  O  O244  1  0.00950749  0.25930627  0.86794731  1
  O  O245  1  0.01403277  0.74112412  0.37132489  1
  O  O246  1  0.00895189  0.75535815  0.86967448  1
  O  O247  1  0.50528624  0.25972634  0.37228443  1
  O  O248  1  0.50632657  0.25443711  0.86888255  1
  O  O249  1  0.50192647  0.75527108  0.37252301  1
  O  O250  1  0.50162600  0.76215817  0.87617945  1
  O  O251  1  0.24255645  0.11584643  0.48852704  1
  O  O252  1  0.25344389  0.12442368  0.98464498  1
  O  O253  1  0.24437477  0.62005355  0.48279178  1
  O  O254  1  0.25019812  0.63508219  0.99782927  1
  O  O255  1  0.75369721  0.14097587  0.48971994  1
  O  O256  1  0.74132843  0.12791164  0.99453031  1
  O  O257  1  0.74475120  0.62589566  0.49451840  1
  O  O258  1  0.74002626  0.61668474  0.98695530  1
  O  O259  1  0.25065173  0.37954701  0.01469454  1
  O  O260  1  0.24886135  0.35563909  0.50949071  1
  O  O261  1  0.26527472  0.86897475  -0.00278744  1
  O  O262  1  0.24908340  0.87444051  0.49516338  1
  O  O263  1  0.75531112  0.37370584  0.00435130  1
  O  O264  1  0.75563514  0.36936799  0.50637775  1
  O  O265  1  0.74742679  0.87723913  0.01032547  1
  O  O266  1  0.75444134  0.86922374  0.50672133  1
  O  O267  1  0.13093204  0.49260930  0.24120952  1
  O  O268  1  0.12529848  0.48703266  0.75280494  1
  O  O269  1  0.13562037  0.98983641  0.23993702  1
  O  O270  1  0.14127904  1.00596078  0.75276254  1
  O  O271  1  0.62942119  0.49386499  0.24441126  1
  O  O272  1  0.64172505  0.49847617  0.75392277  1
  O  O273  1  0.63498833  0.98158657  0.25398632  1
  O  O274  1  0.63701387  0.99305274  0.74512526  1
  O  O275  1  0.36925031  0.00729299  0.25232982  1
  O  O276  1  0.37189634  0.01038875  0.75672130  1
  O  O277  1  0.35940997  0.49427899  0.24685576  1
  O  O278  1  0.37414966  0.50580436  0.75741929  1
  O  O279  1  0.87008424  0.00716400  0.23997799  1
  O  O280  1  0.86319140  0.00063807  0.75850640  1
  O  O281  1  0.86950526  0.50218986  0.25379355  1
  O  O282  1  0.85602394  0.49308092  0.75151921  1
  O  O283  1  0.12008686  0.36667083  0.36705262  1
  O  O284  1  0.11931900  0.37037714  0.86703411  1
  O  O285  1  0.13490114  0.86396487  0.35852215  1
  O  O286  1  0.11910930  0.86711619  0.87916784  1
  O  O287  1  0.61866704  0.36642193  0.36783013  1
  O  O288  1  0.61787954  0.36646947  0.87535185  1
  O  O289  1  0.61563814  0.86607055  0.36954637  1
  O  O290  1  0.61836404  0.87280257  0.86778154  1
  O  O291  1  0.38202173  0.12975784  0.12832423  1
  O  O292  1  0.38883429  0.12008828  0.63570164  1
  O  O293  1  0.38839363  0.61922576  0.12211844  1
  O  O294  1  0.38487534  0.63937827  0.63173297  1
  O  O295  1  0.88260981  0.13279692  0.11737689  1
  O  O296  1  0.88393359  0.13039929  0.63218718  1
  O  O297  1  0.87963199  0.62735422  0.12760655  1
  O  O298  1  0.87601993  0.63433985  0.62196708  1
  O  O299  1  0.25851950  0.25864855  0.13278402  1
  O  O300  1  0.26122554  0.23974813  0.63033174  1
  O  O301  1  0.24946432  0.75288327  0.12071762  1
  O  O302  1  0.25474772  0.75373375  0.62022868  1
  O  O303  1  0.75638434  0.25509243  0.12430691  1
  O  O304  1  0.75010129  0.25513847  0.61836682  1
  O  O305  1  0.75697415  0.75607972  0.12782955  1
  O  O306  1  0.75583088  0.75791081  0.62069537  1
  O  O307  1  0.24295125  0.23889379  0.36802196  1
  O  O308  1  0.24229085  0.24236695  0.86623487  1
  O  O309  1  0.23450631  0.73212443  0.36516710  1
  O  O310  1  0.24580239  0.75118164  0.87964997  1
  O  O311  1  0.74133286  0.24774160  0.37959822  1
  O  O312  1  0.74166706  0.24464495  0.87409328  1
  O  O313  1  0.74525359  0.73949951  0.37955377  1
  O  O314  1  0.74968522  0.73386986  0.87028558  1
  O  O315  1  0.00462076  0.12897987  0.00619237  1
  O  O316  1  0.00704426  0.12486388  0.51179390  1
  O  O317  1  0.00401358  0.62248393  0.01254301  1
  O  O318  1  0.00807493  0.61398790  0.50158753  1
  O  O319  1  0.50897879  0.13039887  0.00954783  1
  O  O320  1  0.50003408  0.11895003  0.51107118  1
  O  O321  1  0.50540302  0.61850942  0.00904328  1
  O  O322  1  0.51002868  0.61190979  0.49804898  1
  O  O323  1  0.50333716  0.38886105  0.48751131  1
  O  O324  1  0.49690385  0.38277452  0.99461698  1
  O  O325  1  0.50383079  0.88193414  0.49279410  1
  O  O326  1  0.48669858  0.87225699  0.99143142  1
  O  O327  1  0.99248059  0.37843082  0.49852676  1
  O  O328  1  0.99333228  0.37580267  0.99110920  1
  O  O329  1  0.97630120  0.88173782  0.47840810  1
  O  O330  1  0.99535121  0.86896845  0.98442738  1
  O  O331  1  0.50170040  0.48809811  0.37960407  1
  O  O332  1  0.49198338  0.49460669  0.88222454  1
  O  O333  1  0.50301670  0.99297453  0.38331846  1
  O  O334  1  0.48878294  0.99456010  0.87058400  1
  O  O335  1  0.99454990  0.49289552  0.38454166  1
  O  O336  1  1.00532967  0.48818403  0.87658001  1
  O  O337  1  0.98861034  1.01842928  0.35783045  1
  O  O338  1  0.99126447  0.99272508  0.86862360  1
  O  O339  1  0.01068003  0.00948699  0.12481603  1
  O  O340  1  -0.00445944  0.01014194  0.63040271  1
  O  O341  1  0.00828727  0.50620225  0.12429599  1
  O  O342  1  -0.00867517  0.50073428  0.61478241  1
  O  O343  1  0.50825455  0.01608196  0.13152383  1
  O  O344  1  0.50944264  0.00610345  0.62057710  1
  O  O345  1  0.50332951  0.50541359  0.11832334  1
  O  O346  1  0.49888957  0.49952973  0.60994461  1
  O  O347  1  0.23982490  0.38428266  0.24462728  1
  O  O348  1  0.23420002  0.37916968  0.75135053  1
  O  O349  1  0.25328346  0.87803292  0.24093532  1
  O  O350  1  0.25327562  0.89213735  0.75356334  1
  O  O351  1  0.74435981  0.38005869  0.24368416  1
  O  O352  1  0.74567223  0.38165312  0.74362176  1
  O  O353  1  0.73592747  0.87003990  0.23420429  1
  O  O354  1  0.74510624  0.88307035  0.74385575  1
  O  O355  1  0.25446350  0.11861848  0.25552010  1
  O  O356  1  0.26006714  0.12090306  0.75916769  1
  O  O357  1  0.24690864  0.61244515  0.25547702  1
  O  O358  1  0.26564982  0.62113446  0.75468545  1
  O  O359  1  0.74813030  0.11498453  0.26330588  1
  O  O360  1  0.75071215  0.11787877  0.75757610  1
  O  O361  1  0.75363651  0.61731595  0.25417879  1
  O  O362  1  0.75063136  0.61637322  0.76308235  1
  O  O363  1  0.36916012  0.12430726  0.36952825  1
  O  O364  1  0.37306228  0.12020894  0.86691692  1
  O  O365  1  0.36014540  0.63635036  0.37588854  1
  O  O366  1  0.37646301  0.61753005  0.86941719  1
  O  O367  1  0.86864886  0.13535079  0.36586280  1
  O  O368  1  0.87053585  0.11974756  0.87491523  1
  O  O369  1  0.87026126  0.61744927  0.36986548  1
  O  O370  1  0.86457874  0.62494945  0.88583733  1
  O  O371  1  0.12921245  0.37805566  0.13165963  1
  O  O372  1  0.12062133  0.37398258  0.63618860  1
  O  O373  1  0.12045268  0.88328840  0.13135128  1
  O  O374  1  0.12810534  0.85866272  0.60514798  1
  O  O375  1  0.62810966  0.37923247  0.12842957  1
  O  O376  1  0.63663031  0.37064115  0.62497370  1
  O  O377  1  0.62490244  0.87360881  0.12969422  1
  O  O378  1  0.63610816  0.88503759  0.63051414  1
  O  O379  1  0.12270862  0.25703707  0.25863261  1
  O  O380  1  0.11675720  0.26030190  0.75736871  1
  O  O381  1  0.11938054  0.75784046  0.25285483  1
  O  O382  1  0.12334969  0.74809141  0.76019054  1
  O  O383  1  0.61858593  0.25663899  0.25492352  1
  O  O384  1  0.61506908  0.24918198  0.76215851  1
  O  O385  1  0.62187300  0.75728737  0.25649426  1
  O  O386  1  0.63065798  0.76403111  0.74825080  1
  O  O387  1  0.38072612  0.24470545  0.24062854  1
  O  O388  1  0.39002681  0.24061449  0.75623191  1
  O  O389  1  0.36363115  0.76622826  0.24054740  1
  O  O390  1  0.37423916  0.74467077  0.73659332  1
  O  O391  1  0.87816445  0.25630414  0.23534318  1
  O  O392  1  0.88979128  0.25127777  0.75277723  1
  O  O393  1  0.87694162  0.73826601  0.23935468  1
  O  O394  1  0.88230280  0.75129448  0.74089199  1
  O  O395  1  0.38988162  0.50929570  0.49542164  1
  O  O396  1  0.38545918  0.49821312  0.99389150  1
  O  O397  1  0.38971543  0.99801420  0.50076711  1
  O  O398  1  0.37192606  0.99148787  0.98892806  1
  O  O399  1  0.87851592  0.48862149  0.49563525  1
  O  O400  1  0.87869562  0.48406983  1.00750951  1
  O  O401  1  0.87760267  1.00984901  0.48734947  1
  O  O402  1  0.86859451  0.99846292  0.98949584  1
  O  O403  1  0.13666696  0.00048572  0.00971328  1
  O  O404  1  0.11213869  0.01391808  0.48751087  1
  O  O405  1  0.12436738  0.50037827  0.01399455  1
  O  O406  1  0.11459542  0.50616190  0.49901055  1
  O  O407  1  0.62820835  0.01274123  0.00206809  1
  O  O408  1  0.61442323  -0.00286817  0.51129100  1
  O  O409  1  0.61236374  0.50561045  0.00227322  1
  O  O410  1  0.62001233  0.50933500  0.49351489  1
  O  O411  1  0.36645203  0.36552802  0.12421244  1
  O  O412  1  0.36892199  0.36720077  0.62740145  1
  O  O413  1  0.37674826  0.87923671  0.11936103  1
  O  O414  1  0.38331444  0.86276082  0.62685759  1
  O  O415  1  0.86970760  0.36764995  0.11921372  1
  O  O416  1  0.86393093  0.37119131  0.61755295  1
  O  O417  1  0.86487912  0.86431153  0.12119646  1
  O  O418  1  0.86422899  0.87034830  0.63120194  1
  O  O419  1  0.13448883  0.13440000  0.37994438  1
  O  O420  1  0.13488883  0.13461251  0.87696542  1
  O  O421  1  0.13024186  0.62949150  0.38421464  1
  O  O422  1  0.12915478  0.63571950  0.87945651  1
  O  O423  1  0.62847647  0.14205947  0.36995560  1
  O  O424  1  0.62813368  0.12990064  0.88056650  1
  O  O425  1  0.62995460  0.62812657  0.38059638  1
  O  O426  1  0.62812532  0.62796760  0.88453965  1
