# generated using pymatgen
data_V85Zn86O256
_symmetry_space_group_name_H-M   'P 1'
_cell_length_a   16.95331933
_cell_length_b   16.94778759
_cell_length_c   16.94467712
_cell_angle_alpha   90.00016189
_cell_angle_beta   89.97758724
_cell_angle_gamma   89.95240438
_symmetry_Int_Tables_number   1
_chemical_formula_structural   V85Zn86O256
_chemical_formula_sum   'V85 Zn86 O256'
_cell_volume   4868.56384405
_cell_formula_units_Z   1
loop_
 _symmetry_equiv_pos_site_id
 _symmetry_equiv_pos_as_xyz
  1  'x, y, z'
loop_
 _atom_site_type_symbol
 _atom_site_label
 _atom_site_symmetry_multiplicity
 _atom_site_fract_x
 _atom_site_fract_y
 _atom_site_fract_z
 _atom_site_occupancy
  V  V0  1  0.24735791  0.74686075  -0.00021228  1
  V  V1  1  0.25010920  0.61912482  0.87224803  1
  V  V2  1  0.24701469  0.63041037  0.37567106  1
  V  V3  1  0.87072017  0.13372422  0.75361414  1
  V  V4  1  0.63111790  0.87737796  0.23683056  1
  V  V5  1  0.87453034  0.62298110  0.75100512  1
  V  V6  1  0.74688655  0.49421033  0.75169742  1
  V  V7  1  0.62758849  0.24738014  0.37284011  1
  V  V8  1  0.00327640  0.00045979  -0.00242050  1
  V  V9  1  0.49769103  0.49893841  0.50115066  1
  V  V10  1  0.12346611  0.35303781  0.24426104  1
  V  V11  1  0.12425837  0.74846612  0.87465496  1
  V  V12  1  0.49951016  0.01325649  0.01364733  1
  V  V13  1  0.23413948  0.50415792  0.24464474  1
  V  V14  1  0.00776438  0.12942051  0.13425241  1
  V  V15  1  0.00048513  0.61850271  0.12386983  1
  V  V16  1  0.50462731  0.61700379  0.12770788  1
  V  V17  1  0.62307794  0.49315794  0.62940331  1
  V  V18  1  -0.00036926  0.12393351  0.63112736  1
  V  V19  1  0.87430788  0.37514257  0.49368820  1
  V  V20  1  0.75412994  0.11637901  0.37513064  1
  V  V21  1  -0.00064740  0.35637201  0.86012420  1
  V  V22  1  0.12322056  0.88619419  0.74706789  1
  V  V23  1  0.25330967  -0.00138426  0.74488113  1
  V  V24  1  0.37442323  0.87179341  -0.00169768  1
  V  V25  1  0.49864710  0.12436552  0.64089183  1
  V  V26  1  0.50157677  0.00413165  0.49888828  1
  V  V27  1  0.75367133  -0.00089397  0.23482614  1
  V  V28  1  -0.00141950  0.87554758  0.87893227  1
  V  V29  1  0.50192126  0.37628835  0.37754910  1
  V  V30  1  0.50265134  0.87557474  0.37455894  1
  V  V31  1  -0.00113647  0.48500846  0.00080632  1
  V  V32  1  0.00134524  0.35856613  0.37064667  1
  V  V33  1  0.76014801  0.61910080  0.37817070  1
  V  V34  1  0.25004011  -0.00176572  0.25021061  1
  V  V35  1  0.37900717  0.48975454  0.87080291  1
  V  V36  1  0.37086811  0.62046119  0.74992081  1
  V  V37  1  -0.01680982  0.88143704  0.37716433  1
  V  V38  1  0.24990209  0.12925129  0.86823920  1
  V  V39  1  0.37496262  0.50401840  0.37529101  1
  V  V40  1  0.12413222  0.13100436  -0.00543571  1
  V  V41  1  0.13410568  0.48608555  0.63311682  1
  V  V42  1  0.37270961  0.75199471  0.62753024  1
  V  V43  1  0.25079165  0.25147151  -0.00175420  1
  V  V44  1  0.12035949  0.75465585  0.38017073  1
  V  V45  1  0.50143858  0.87481359  0.87871190  1
  V  V46  1  0.37672970  0.00446132  0.87031919  1
  V  V47  1  0.62672257  0.62688479  0.50247271  1
  V  V48  1  0.37420678  0.74448524  0.12549635  1
  V  V49  1  0.87096748  0.87548462  0.00976414  1
  V  V50  1  0.50205583  0.49524657  -0.00166673  1
  V  V51  1  0.63018570  -0.00393410  0.62405933  1
  V  V52  1  -0.00314732  0.75005523  0.24895165  1
  V  V53  1  0.75356095  0.76518776  0.50569828  1
  V  V54  1  0.38011181  0.36861876  0.00231189  1
  V  V55  1  0.49882420  0.62429271  0.62659376  1
  V  V56  1  0.37377942  0.62401901  0.24879731  1
  V  V57  1  0.74959747  0.38088253  0.11681431  1
  V  V58  1  -0.00178499  0.49661887  0.49379670  1
  V  V59  1  0.24580936  0.12567056  0.37657146  1
  V  V60  1  0.62815392  0.75238148  0.37611265  1
  V  V61  1  0.00165428  0.62078812  0.62503394  1
  V  V62  1  0.36960058  0.25321736  0.62179629  1
  V  V63  1  0.62667705  0.74599976  0.87678640  1
  V  V64  1  0.88320951  0.25871517  0.12289819  1
  V  V65  1  0.12745601  0.11420171  0.50491920  1
  V  V66  1  -0.01545453  -0.00362448  0.50436377  1
  V  V67  1  0.50593266  0.27354081  0.75270304  1
  V  V68  1  0.48391845  0.25510831  0.24221776  1
  V  V69  1  0.37816056  0.00487903  0.37321110  1
  V  V70  1  0.63098857  0.87123657  0.74871137  1
  V  V71  1  0.24769840  0.38260557  0.11956961  1
  V  V72  1  0.62866610  0.61660072  0.00428369  1
  V  V73  1  0.74945978  0.37017533  0.62574967  1
  V  V74  1  0.62245272  0.25565651  0.88312978  1
  V  V75  1  -0.00060040  0.75100791  0.75058856  1
  V  V76  1  0.62895725  0.38545634  0.24818915  1
  V  V77  1  0.12361032  0.61026745  0.00121879  1
  V  V78  1  0.87671414  0.49145261  0.87871097  1
  V  V79  1  0.74952869  -0.00091233  0.75332811  1
  V  V80  1  0.24646667  0.87233679  0.12478623  1
  V  V81  1  0.87987582  0.12622625  0.25476171  1
  V  V82  1  0.74933846  0.75167409  0.00918963  1
  V  V83  1  0.87091037  0.76414130  0.62690791  1
  V  V84  1  0.37281940  0.87533957  0.50121437  1
  Zn  Zn85  1  0.76242876  0.49491466  0.25418150  1
  Zn  Zn86  1  0.24162572  0.87882076  0.62234064  1
  Zn  Zn87  1  0.65536929  0.07955555  0.06821920  1
  Zn  Zn88  1  0.13596074  0.34576733  0.74648226  1
  Zn  Zn89  1  0.40313464  0.10486547  0.20264721  1
  Zn  Zn90  1  0.75107511  0.62143756  0.87795768  1
  Zn  Zn91  1  0.50344111  0.74809527  0.24987620  1
  Zn  Zn92  1  0.24558959  0.75211730  0.50327794  1
  Zn  Zn93  1  0.50044831  0.74881786  0.75256212  1
  Zn  Zn94  1  0.74066288  0.12241597  0.88627409  1
  Zn  Zn95  1  0.87901441  0.61841478  0.25347350  1
  Zn  Zn96  1  0.35300408  0.37333753  0.50347646  1
  Zn  Zn97  1  0.12628440  0.00083042  0.12515259  1
  Zn  Zn98  1  0.87206874  0.75049018  0.12898448  1
  Zn  Zn99  1  0.12436308  0.62493400  0.50421238  1
  Zn  Zn100  1  0.86927120  0.00100367  0.87872035  1
  Zn  Zn101  1  0.74680838  0.24319502  0.00474038  1
  Zn  Zn102  1  0.87671687  0.25040628  0.62763377  1
  Zn  Zn103  1  0.17465222  0.28325497  0.42929281  1
  Zn  Zn104  1  0.62604089  0.12547018  0.49846923  1
  Zn  Zn105  1  0.75066390  0.24741873  0.49849482  1
  Zn  Zn106  1  0.12212355  0.87537171  0.25181597  1
  Zn  Zn107  1  0.22312288  0.17772190  0.17219543  1
  Zn  Zn108  1  0.18937957  0.17551726  0.67963081  1
  Zn  Zn109  1  0.17975605  0.68770237  0.18752012  1
  Zn  Zn110  1  0.18635360  0.68854477  0.68898126  1
  Zn  Zn111  1  0.69525656  0.20194585  0.19443663  1
  Zn  Zn112  1  0.68145444  0.18580327  0.69269969  1
  Zn  Zn113  1  0.68767876  0.68372032  0.19054759  1
  Zn  Zn114  1  0.68980016  0.68446677  0.68775010  1
  Zn  Zn115  1  0.30654777  0.32553385  0.32519076  1
  Zn  Zn116  1  0.31644511  0.30718688  0.80229593  1
  Zn  Zn117  1  0.31397738  0.81232815  0.31251017  1
  Zn  Zn118  1  0.31154666  0.81139127  0.81160731  1
  Zn  Zn119  1  0.81603684  0.30945417  0.31064846  1
  Zn  Zn120  1  0.80568665  0.31261832  0.81839707  1
  Zn  Zn121  1  0.80907356  0.80997873  0.31110090  1
  Zn  Zn122  1  0.81195862  0.81175513  0.82016422  1
  Zn  Zn123  1  0.18066717  0.44936036  0.43340748  1
  Zn  Zn124  1  0.20512920  0.41393032  0.89615753  1
  Zn  Zn125  1  0.18434184  0.93930783  0.43913231  1
  Zn  Zn126  1  0.18562569  0.94077209  0.93373127  1
  Zn  Zn127  1  0.68533257  0.43786722  0.44193898  1
  Zn  Zn128  1  0.68414285  0.43181296  0.93431743  1
  Zn  Zn129  1  0.68935899  0.94080028  0.43225476  1
  Zn  Zn130  1  0.68446363  0.93654564  0.94188795  1
  Zn  Zn131  1  0.31185756  0.05933130  0.05488454  1
  Zn  Zn132  1  0.31669701  0.06636396  0.56393896  1
  Zn  Zn133  1  0.31345234  0.55786210  0.05936221  1
  Zn  Zn134  1  0.30917285  0.56282613  0.56106561  1
  Zn  Zn135  1  0.82470546  0.06795958  0.06426254  1
  Zn  Zn136  1  0.81057032  0.06227209  0.56458886  1
  Zn  Zn137  1  0.81757227  0.56098991  0.06465619  1
  Zn  Zn138  1  0.81412249  0.56163835  0.56193560  1
  Zn  Zn139  1  0.43360418  0.43688072  0.18805046  1
  Zn  Zn140  1  0.42855491  0.43660522  0.68355545  1
  Zn  Zn141  1  0.43759251  0.92737723  0.18904246  1
  Zn  Zn142  1  0.44164676  0.93587513  0.68934033  1
  Zn  Zn143  1  0.94073717  0.43910058  0.19367643  1
  Zn  Zn144  1  0.93688714  0.43612967  0.68571229  1
  Zn  Zn145  1  0.93911666  0.94191152  0.18757829  1
  Zn  Zn146  1  0.93932302  0.94472274  0.69218196  1
  Zn  Zn147  1  0.06672677  0.05977339  0.31529595  1
  Zn  Zn148  1  0.05838367  0.17205629  0.81038145  1
  Zn  Zn149  1  0.05765822  0.56351581  0.31622429  1
  Zn  Zn150  1  0.06116855  0.55666729  0.81328842  1
  Zn  Zn151  1  0.58601111  0.08789158  0.26210717  1
  Zn  Zn152  1  0.56699284  0.06215640  0.81987595  1
  Zn  Zn153  1  0.56744887  0.56430132  0.31400462  1
  Zn  Zn154  1  0.56109779  0.56039297  0.81314264  1
  Zn  Zn155  1  0.43866266  0.18810653  0.43664597  1
  Zn  Zn156  1  0.43869659  0.18893362  0.92999944  1
  Zn  Zn157  1  0.43828730  0.68940964  0.43864992  1
  Zn  Zn158  1  0.43922274  0.68371982  0.93789668  1
  Zn  Zn159  1  0.93688128  0.18690697  0.44271872  1
  Zn  Zn160  1  0.92965946  0.18388165  0.94241367  1
  Zn  Zn161  1  0.93681668  0.69284188  0.44482964  1
  Zn  Zn162  1  0.93584767  0.68491801  0.93883112  1
  Zn  Zn163  1  0.06790706  0.31221713  0.06198867  1
  Zn  Zn164  1  0.05995752  0.30620348  0.56767699  1
  Zn  Zn165  1  0.06256628  0.80808072  0.06245248  1
  Zn  Zn166  1  0.05741506  0.81519630  0.56397357  1
  Zn  Zn167  1  0.56447341  0.31208623  0.06728151  1
  Zn  Zn168  1  0.56094372  0.31001319  0.56085136  1
  Zn  Zn169  1  0.55984554  0.80647954  0.06108528  1
  Zn  Zn170  1  0.56064423  0.81327573  0.56334746  1
  O  O171  1  0.12276086  0.12610892  0.11395159  1
  O  O172  1  0.11576964  0.11270500  0.61317256  1
  O  O173  1  0.11202433  0.62912458  0.11391314  1
  O  O174  1  0.11140220  0.62424200  0.62607796  1
  O  O175  1  0.61878556  0.12882195  0.15887436  1
  O  O176  1  0.61341824  0.11665090  0.62267417  1
  O  O177  1  0.61660716  0.62665803  0.11765839  1
  O  O178  1  0.61939657  0.61649542  0.62181657  1
  O  O179  1  0.39246747  0.38751078  0.37427623  1
  O  O180  1  0.37607006  0.38658893  0.88182831  1
  O  O181  1  0.37977138  0.88178617  0.38239696  1
  O  O182  1  0.38307361  0.87735047  0.87984609  1
  O  O183  1  0.88457462  0.37002095  0.38233755  1
  O  O184  1  0.88619848  0.38035190  0.87105303  1
  O  O185  1  0.88546261  0.87035934  0.37522521  1
  O  O186  1  0.88318314  0.87649811  0.88652237  1
  O  O187  1  0.25855721  -0.00084787  0.36759206  1
  O  O188  1  0.25925282  0.00519519  0.86964179  1
  O  O189  1  0.25077069  0.51721224  0.36552486  1
  O  O190  1  0.26290406  0.51550938  0.88449175  1
  O  O191  1  0.74720585  0.01254013  0.36468202  1
  O  O192  1  0.74563747  0.00132974  0.86774199  1
  O  O193  1  0.74404084  0.51713944  0.38061341  1
  O  O194  1  0.75729309  0.49749180  0.86834871  1
  O  O195  1  0.24826260  0.49342804  0.13029973  1
  O  O196  1  0.23221681  0.50180755  0.61947875  1
  O  O197  1  0.25080892  0.98652593  0.13108365  1
  O  O198  1  0.26200082  0.99861804  0.64090250  1
  O  O199  1  0.75938266  0.48433042  0.12805265  1
  O  O200  1  0.74298333  0.49249061  0.63074493  1
  O  O201  1  0.74809945  1.00691073  0.13362863  1
  O  O202  1  0.73533492  1.00147744  0.63115545  1
  O  O203  1  0.01621696  0.37293305  0.25513291  1
  O  O204  1  -0.00056388  0.37050256  0.75872041  1
  O  O205  1  -0.00151362  0.87010004  0.26150299  1
  O  O206  1  0.00618529  0.87381416  0.75917700  1
  O  O207  1  0.50785049  0.37541889  0.25705466  1
  O  O208  1  0.50337082  0.37163618  0.74519471  1
  O  O209  1  0.51242467  0.87154344  0.25651622  1
  O  O210  1  0.51036055  0.87369296  0.76353983  1
  O  O211  1  0.48651267  0.14758952  0.26227372  1
  O  O212  1  0.49938023  0.11804504  0.74023792  1
  O  O213  1  0.49650093  0.62462266  0.24341560  1
  O  O214  1  0.48853178  0.62676294  0.74490408  1
  O  O215  1  0.99882862  0.11808160  0.24058688  1
  O  O216  1  0.98415833  0.11086502  0.74271631  1
  O  O217  1  1.00208368  0.63235007  0.24285550  1
  O  O218  1  0.99274550  0.62851453  0.74538267  1
  O  O219  1  0.37379088  0.26400229  -0.00697618  1
  O  O220  1  0.38921619  0.25471486  0.51662392  1
  O  O221  1  0.36771513  0.75180848  0.00439458  1
  O  O222  1  0.37430717  0.76069438  0.50653084  1
  O  O223  1  0.87035685  0.24441814  0.01971287  1
  O  O224  1  0.87044494  0.26106225  0.50524193  1
  O  O225  1  0.86607428  0.75617187  -0.00001587  1
  O  O226  1  0.86609108  0.74913376  0.51479087  1
  O  O227  1  0.11734473  0.22567735  0.50540673  1
  O  O228  1  0.13667840  0.24329126  0.99816034  1
  O  O229  1  0.12393891  0.74821719  0.49412358  1
  O  O230  1  0.12956314  0.74046937  0.99230089  1
  O  O231  1  0.62503921  0.24783975  0.48549414  1
  O  O232  1  0.61911042  0.25109549  0.98845196  1
  O  O233  1  0.63050897  0.74612626  0.49646561  1
  O  O234  1  0.63060647  0.73945796  0.99655119  1
  O  O235  1  0.49630027  0.26024797  0.14309346  1
  O  O236  1  0.50278105  0.24085788  0.63645272  1
  O  O237  1  0.49231056  0.73563283  0.12480547  1
  O  O238  1  0.48860929  0.74317071  0.62589776  1
  O  O239  1  0.99227176  0.24462016  0.12143723  1
  O  O240  1  0.99415329  0.22832676  0.62060375  1
  O  O241  1  0.99930568  0.74378368  0.13505356  1
  O  O242  1  0.99141109  0.74133005  0.63144418  1
  O  O243  1  0.00150470  0.25920809  0.37883107  1
  O  O244  1  -0.00693268  0.25206417  0.87372426  1
  O  O245  1  0.00337606  0.75905042  0.37297250  1
  O  O246  1  0.00316165  0.75453400  0.86995553  1
  O  O247  1  0.50548197  0.26116905  0.37131176  1
  O  O248  1  0.50506700  0.25093657  0.85959805  1
  O  O249  1  0.51038736  0.75562306  0.37536309  1
  O  O250  1  0.50749063  0.75675639  0.87707188  1
  O  O251  1  0.23689856  0.11132198  0.49422416  1
  O  O252  1  0.24287845  0.13244141  0.99067999  1
  O  O253  1  0.24714228  0.63006071  0.48859547  1
  O  O254  1  0.24185994  0.62793662  0.99543020  1
  O  O255  1  0.74626741  0.12538232  0.49097572  1
  O  O256  1  0.74337555  0.12294609  1.00642783  1
  O  O257  1  0.74542413  0.63114166  0.49360511  1
  O  O258  1  0.74284765  0.62714573  1.00018901  1
  O  O259  1  0.25589242  0.37094764  -0.00220780  1
  O  O260  1  0.25367592  0.36466977  0.44873735  1
  O  O261  1  0.25389529  0.86914808  0.00559757  1
  O  O262  1  0.25938975  0.87528026  0.50292113  1
  O  O263  1  0.74643423  0.37296594  0.01446336  1
  O  O264  1  0.75710018  0.37511281  0.50693309  1
  O  O265  1  0.75832165  0.86534044  -0.00310185  1
  O  O266  1  0.74513927  0.86422458  0.49730041  1
  O  O267  1  0.13344759  0.50013945  0.25371095  1
  O  O268  1  0.11962713  0.50166729  0.73253133  1
  O  O269  1  0.13398682  0.99227760  0.24627129  1
  O  O270  1  0.13802003  0.98659230  0.75724512  1
  O  O271  1  0.63201998  0.48875256  0.25601179  1
  O  O272  1  0.63424712  0.50620854  0.74148258  1
  O  O273  1  0.63433720  0.98286467  0.25391025  1
  O  O274  1  0.63171336  0.99205447  0.74566967  1
  O  O275  1  0.37214744  -0.00056758  0.25748778  1
  O  O276  1  0.37021589  -0.01083237  0.76356387  1
  O  O277  1  0.36384104  0.50641645  0.25659169  1
  O  O278  1  0.37834831  0.50862977  0.75773603  1
  O  O279  1  0.86796889  0.01265335  0.24403954  1
  O  O280  1  0.85859902  0.00106026  0.75206460  1
  O  O281  1  0.87612397  0.50537988  0.25472893  1
  O  O282  1  0.86998184  0.50521225  0.75670914  1
  O  O283  1  0.12010747  0.36840820  0.36100453  1
  O  O284  1  0.09856247  0.37257784  0.87587492  1
  O  O285  1  0.11923491  0.86393850  0.37518708  1
  O  O286  1  0.11766622  0.86798719  0.87117663  1
  O  O287  1  0.61811125  0.37241759  0.37114154  1
  O  O288  1  0.62731308  0.35730899  0.87020386  1
  O  O289  1  0.62281338  0.86476204  0.37101128  1
  O  O290  1  0.61786185  0.86688713  0.87206559  1
  O  O291  1  0.32954249  0.13794932  0.13106464  1
  O  O292  1  0.39402058  0.13303796  0.61877542  1
  O  O293  1  0.37995867  0.62644941  0.12961365  1
  O  O294  1  0.37642892  0.63016011  0.63135520  1
  O  O295  1  0.88997542  0.13432542  0.13297060  1
  O  O296  1  0.87884850  0.12433342  0.63433845  1
  O  O297  1  0.88932982  0.63020388  0.12403110  1
  O  O298  1  0.88424045  0.62502147  0.63620370  1
  O  O299  1  0.24758124  0.27058760  0.10654526  1
  O  O300  1  0.27194944  0.23553020  0.62625714  1
  O  O301  1  0.25307608  0.75307269  0.12098144  1
  O  O302  1  0.26196885  0.75160648  0.62442729  1
  O  O303  1  0.76230451  0.26268728  0.12534678  1
  O  O304  1  0.74260945  0.26274471  0.62511641  1
  O  O305  1  0.75134354  0.74308155  0.11347291  1
  O  O306  1  0.75887280  0.74466556  0.61804263  1
  O  O307  1  0.25702014  0.22757906  0.36551881  1
  O  O308  1  0.26211027  0.23641900  0.88372671  1
  O  O309  1  0.24151773  0.74364416  0.37383977  1
  O  O310  1  0.24656231  0.73881244  0.88032655  1
  O  O311  1  0.74247948  0.24074425  0.37318797  1
  O  O312  1  0.73785620  0.24742950  0.88308513  1
  O  O313  1  0.74422588  0.74348469  0.38454296  1
  O  O314  1  0.74247382  0.74425618  0.88642663  1
  O  O315  1  0.00710699  0.11923122  0.00659066  1
  O  O316  1  0.00280281  0.11044548  0.50334349  1
  O  O317  1  0.00624753  0.61784160  0.00453560  1
  O  O318  1  -0.00214734  0.61572814  0.50842931  1
  O  O319  1  0.49226440  0.11162292  -0.00057318  1
  O  O320  1  0.50403335  0.11222058  0.50205152  1
  O  O321  1  0.50690340  0.61553505  0.00748089  1
  O  O322  1  0.50441662  0.61919123  0.50660231  1
  O  O323  1  0.50369180  0.38532493  0.49225365  1
  O  O324  1  0.49532589  0.38764820  1.00957431  1
  O  O325  1  0.49282218  0.88402313  0.49661577  1
  O  O326  1  0.49477005  0.87779497  0.99259794  1
  O  O327  1  0.99479242  0.37727051  0.49406628  1
  O  O328  1  1.00098851  0.38295083  0.99696856  1
  O  O329  1  1.00022440  0.88585345  0.49022162  1
  O  O330  1  0.99607110  0.88000164  0.99825584  1
  O  O331  1  0.49773850  0.49810366  0.38152701  1
  O  O332  1  0.49065673  0.50637918  0.88613249  1
  O  O333  1  0.49238720  0.99274732  0.38416644  1
  O  O334  1  0.49443833  0.99291343  0.88290359  1
  O  O335  1  1.00937316  0.48976091  0.39002860  1
  O  O336  1  0.99172007  0.49179880  0.88035557  1
  O  O337  1  0.99965761  0.98598525  0.38082473  1
  O  O338  1  0.99750408  0.99248646  0.89226972  1
  O  O339  1  0.00416400  0.00932293  0.11597716  1
  O  O340  1  -0.00554411  0.00442002  0.61116353  1
  O  O341  1  -0.00362786  0.50615832  0.11322504  1
  O  O342  1  0.00563715  0.50452107  0.61712184  1
  O  O343  1  0.48165324  0.00310023  0.11409117  1
  O  O344  1  0.50580028  0.00772202  0.62061568  1
  O  O345  1  0.49444649  0.51090822  0.11814079  1
  O  O346  1  0.50521294  0.50406260  0.62163537  1
  O  O347  1  0.23987022  0.38404968  0.24230554  1
  O  O348  1  0.23515573  0.37995894  0.78939871  1
  O  O349  1  0.25098889  0.88119196  0.24270021  1
  O  O350  1  0.24222665  0.88024682  0.75066431  1
  O  O351  1  0.74393305  0.37448974  0.24434452  1
  O  O352  1  0.75551761  0.38701413  0.74174185  1
  O  O353  1  0.74116506  0.88189044  0.25125274  1
  O  O354  1  0.73706648  0.87853114  0.75787288  1
  O  O355  1  0.24193430  0.10507569  0.26166282  1
  O  O356  1  0.24808063  0.11257136  0.76021085  1
  O  O357  1  0.25132420  0.62196895  0.25347477  1
  O  O358  1  0.26154148  0.63006690  0.75784055  1
  O  O359  1  0.76146574  0.11861395  0.25554047  1
  O  O360  1  0.75409423  0.11408741  0.74926135  1
  O  O361  1  0.75090588  0.62573572  0.26758079  1
  O  O362  1  0.75845875  0.61271968  0.75126995  1
  O  O363  1  0.36753689  0.10945959  0.38639654  1
  O  O364  1  0.36592696  0.11349603  0.87875911  1
  O  O365  1  0.36678966  0.62475677  0.36956758  1
  O  O366  1  0.36991064  0.62003629  0.86785292  1
  O  O367  1  0.86849032  0.13245717  0.36573322  1
  O  O368  1  0.86702918  0.12012064  0.86872093  1
  O  O369  1  0.86184730  0.63125983  0.38040450  1
  O  O370  1  0.87511058  0.61617184  0.86377985  1
  O  O371  1  0.13045814  0.37656486  0.13686719  1
  O  O372  1  0.12195556  0.38095998  0.62985968  1
  O  O373  1  0.13756522  0.87121063  0.12600446  1
  O  O374  1  0.12485174  0.86806577  0.63969244  1
  O  O375  1  0.64095855  0.37119700  0.13410763  1
  O  O376  1  0.63121522  0.38739535  0.61767271  1
  O  O377  1  0.62027999  0.86688427  0.13892096  1
  O  O378  1  0.61492529  0.88309988  0.63772046  1
  O  O379  1  0.13810190  0.25666428  0.23960519  1
  O  O380  1  0.11985006  0.23477613  0.74212974  1
  O  O381  1  0.11174034  0.75295289  0.25903758  1
  O  O382  1  0.11768411  0.75535774  0.75764149  1
  O  O383  1  0.61608084  0.26585264  0.26259158  1
  O  O384  1  0.60998534  0.25158646  0.75387806  1
  O  O385  1  0.62792969  0.75940427  0.25920708  1
  O  O386  1  0.62444349  0.75433845  0.75604281  1
  O  O387  1  0.38595589  0.26966489  0.25561917  1
  O  O388  1  0.39361034  0.25414003  0.73683086  1
  O  O389  1  0.37829664  0.74230922  0.24453538  1
  O  O390  1  0.37818649  0.74388470  0.74289361  1
  O  O391  1  0.87391466  0.23692635  0.23693033  1
  O  O392  1  0.86410058  0.23671234  0.74907600  1
  O  O393  1  0.88560249  0.74494111  0.25086570  1
  O  O394  1  0.87800394  0.74124610  0.74866578  1
  O  O395  1  0.37892402  0.49768556  0.49395363  1
  O  O396  1  0.38366483  0.49332001  0.99146630  1
  O  O397  1  0.38196883  0.99115761  0.49719341  1
  O  O398  1  0.38145042  0.99089194  0.98995594  1
  O  O399  1  0.88372737  0.48632981  0.50648393  1
  O  O400  1  0.88395295  0.50533722  0.98583285  1
  O  O401  1  0.88550530  1.00167777  0.49833126  1
  O  O402  1  0.88353365  0.99180578  1.00106297  1
  O  O403  1  0.11954276  0.00667454  0.00335025  1
  O  O404  1  0.11064269  0.00772098  0.49557867  1
  O  O405  1  0.11618781  0.50960379  -0.00863967  1
  O  O406  1  0.11557751  0.50235821  0.51210306  1
  O  O407  1  0.60569059  -0.00369578  0.00479070  1
  O  O408  1  0.61757911  -0.00244180  0.50747611  1
  O  O409  1  0.61887686  0.50902898  -0.00598957  1
  O  O410  1  0.61869095  0.50833879  0.50916383  1
  O  O411  1  0.36224542  0.38549426  0.11257939  1
  O  O412  1  0.37160196  0.36192068  0.61994405  1
  O  O413  1  0.36537770  0.86471449  0.11994873  1
  O  O414  1  0.37690400  0.86734205  0.61868447  1
  O  O415  1  0.87005906  0.36317263  0.13308286  1
  O  O416  1  0.86594154  0.37184809  0.61911288  1
  O  O417  1  0.88168950  0.87105181  0.11340738  1
  O  O418  1  0.87931963  0.86247379  0.63682415  1
  O  O419  1  0.13339975  0.11934928  0.38704684  1
  O  O420  1  0.13338370  0.12159296  0.88703082  1
  O  O421  1  0.12920767  0.63722699  0.37721432  1
  O  O422  1  0.13237413  0.62682733  0.87837111  1
  O  O423  1  0.63390358  0.13367892  0.36638139  1
  O  O424  1  0.62581072  0.14424980  0.86691018  1
  O  O425  1  0.63149999  0.63751608  0.38102484  1
  O  O426  1  0.62524038  0.63038944  0.88394284  1
