# generated using pymatgen
data_V85Zn86O256
_symmetry_space_group_name_H-M   'P 1'
_cell_length_a   16.93641537
_cell_length_b   16.93566084
_cell_length_c   16.93125485
_cell_angle_alpha   89.96577020
_cell_angle_beta   90.06381540
_cell_angle_gamma   89.88625039
_symmetry_Int_Tables_number   1
_chemical_formula_structural   V85Zn86O256
_chemical_formula_sum   'V85 Zn86 O256'
_cell_volume   4856.36798554
_cell_formula_units_Z   1
loop_
 _symmetry_equiv_pos_site_id
 _symmetry_equiv_pos_as_xyz
  1  'x, y, z'
loop_
 _atom_site_type_symbol
 _atom_site_label
 _atom_site_symmetry_multiplicity
 _atom_site_fract_x
 _atom_site_fract_y
 _atom_site_fract_z
 _atom_site_occupancy
  V  V0  1  0.12256219  0.37393940  0.24974910  1
  V  V1  1  0.12198296  -0.00156955  0.62567637  1
  V  V2  1  0.25054610  0.25434882  0.51821236  1
  V  V3  1  0.75415172  0.00375461  0.76631490  1
  V  V4  1  0.62202473  0.37124611  0.26287590  1
  V  V5  1  0.75471014  0.37413622  0.62519548  1
  V  V6  1  0.49690702  0.25004246  0.74474344  1
  V  V7  1  0.00863415  0.00013902  0.00394589  1
  V  V8  1  0.25645800  0.62561317  0.38155174  1
  V  V9  1  0.62665111  0.37250139  0.75160059  1
  V  V10  1  0.12122055  0.24802116  0.37069192  1
  V  V11  1  0.50171031  0.62312799  0.62654644  1
  V  V12  1  0.87410245  0.11996110  0.24943468  1
  V  V13  1  0.50511654  0.74632099  0.75763400  1
  V  V14  1  0.50105409  0.25435513  0.26902804  1
  V  V15  1  0.49999006  0.49691178  0.47930974  1
  V  V16  1  0.56045067  0.06960085  0.06627197  1
  V  V17  1  0.50321658  0.75218210  0.24777482  1
  V  V18  1  0.62585862  0.89043855  0.24612976  1
  V  V19  1  0.49513679  0.87894413  0.88337972  1
  V  V20  1  0.87637502  0.12627452  0.76303851  1
  V  V21  1  0.74181732  0.36769859  0.11568315  1
  V  V22  1  0.62777885  0.23399931  0.87632931  1
  V  V23  1  0.87157830  0.75122593  0.12260761  1
  V  V24  1  0.75078469  0.87599532  0.62443216  1
  V  V25  1  0.25366403  -0.00033025  0.75301216  1
  V  V26  1  -0.00246341  0.88028781  0.87374098  1
  V  V27  1  0.74753089  0.74652073  -0.01452471  1
  V  V28  1  0.49846157  0.36763176  0.87514741  1
  V  V29  1  0.75194765  0.23177023  -0.00440771  1
  V  V30  1  0.12184841  0.50106147  0.12512759  1
  V  V31  1  -0.00007109  0.75655048  0.25902869  1
  V  V32  1  0.88057106  0.25547482  0.12783219  1
  V  V33  1  0.24605238  0.00136801  0.24501344  1
  V  V34  1  0.12469541  0.49100746  0.62292989  1
  V  V35  1  -0.00509682  -0.00669525  0.49182878  1
  V  V36  1  0.12230770  0.12161345  0.50011620  1
  V  V37  1  0.37870141  0.12508729  0.24929410  1
  V  V38  1  0.00588127  0.12405810  0.13004613  1
  V  V39  1  0.62611095  0.87160174  0.75786357  1
  V  V40  1  0.75206638  0.62600727  0.37125027  1
  V  V41  1  0.37260700  0.36897975  0.00076189  1
  V  V42  1  0.62878264  0.62513887  -0.01419875  1
  V  V43  1  0.25368422  0.75077200  -0.00662667  1
  V  V44  1  0.37700584  0.75574560  0.11855289  1
  V  V45  1  0.11405696  0.25337375  0.87355623  1
  V  V46  1  -0.01835124  0.38158272  0.87406990  1
  V  V47  1  -0.00548489  0.12954828  0.62702441  1
  V  V48  1  0.62645036  0.49351765  0.12272950  1
  V  V49  1  0.12347110  0.87796379  0.25269129  1
  V  V50  1  0.24925984  0.12497607  0.37696860  1
  V  V51  1  0.00118289  0.49928121  0.49535217  1
  V  V52  1  0.74760428  0.11874471  0.37042412  1
  V  V53  1  0.37679243  0.87332795  0.50080380  1
  V  V54  1  0.75035323  0.74980602  0.50093498  1
  V  V55  1  0.87254751  0.88328075  -0.00365789  1
  V  V56  1  0.50104509  0.87462158  0.37441526  1
  V  V57  1  0.87626752  0.74891496  0.62917102  1
  V  V58  1  0.36695153  0.50135247  0.87671977  1
  V  V59  1  -0.00160251  0.62230585  0.62780297  1
  V  V60  1  0.75038142  0.25127548  0.49251308  1
  V  V61  1  0.87540235  0.62698543  0.24679798  1
  V  V62  1  0.12527415  0.87222298  0.75244958  1
  V  V63  1  0.24744517  0.48677779  0.74819743  1
  V  V64  1  0.37585386  0.74582578  0.62524003  1
  V  V65  1  0.75673081  0.50557944  0.76762983  1
  V  V66  1  0.36390680  0.62379690  0.75365375  1
  V  V67  1  0.50076967  0.00023556  0.50110367  1
  V  V68  1  0.13151691  0.62505218  -0.00858192  1
  V  V69  1  0.24850409  0.12764887  0.87938418  1
  V  V70  1  0.62816989  0.62692831  0.49971517  1
  V  V71  1  0.24960137  0.87873597  0.11985884  1
  V  V72  1  0.37270760  0.13075233  0.74266609  1
  V  V73  1  0.62335321  0.13281731  0.49599259  1
  V  V74  1  0.00495239  0.63248652  0.12303815  1
  V  V75  1  -0.00151022  0.37029451  0.36937698  1
  V  V76  1  0.25782920  0.50209020  0.25108134  1
  V  V77  1  0.25176178  0.87291875  0.62514412  1
  V  V78  1  0.74830033  0.49779646  0.24716546  1
  V  V79  1  0.49930175  0.49473704  -0.00001154  1
  V  V80  1  0.62839538  0.50131323  0.62639810  1
  V  V81  1  0.74490621  0.88605790  0.12634606  1
  V  V82  1  0.50161909  0.62430622  0.12214232  1
  V  V83  1  0.62666475  0.00339144  0.62567319  1
  V  V84  1  0.37686179  0.25029199  0.12904149  1
  Zn  Zn85  1  0.38077085  0.37063266  0.49976260  1
  Zn  Zn86  1  0.12485195  0.62576880  0.49760694  1
  Zn  Zn87  1  0.87676991  0.24867144  0.62684300  1
  Zn  Zn88  1  0.87637325  0.37296573  0.49656984  1
  Zn  Zn89  1  0.87849607  0.49675818  0.36812211  1
  Zn  Zn90  1  0.87267745  -0.00973980  0.36453566  1
  Zn  Zn91  1  -0.00610578  0.49968072  -0.00810102  1
  Zn  Zn92  1  0.24819636  0.74953336  0.49901280  1
  Zn  Zn93  1  0.62634408  0.75183196  0.37153510  1
  Zn  Zn94  1  0.37401107  -0.00218658  0.37492800  1
  Zn  Zn95  1  0.49593957  0.13186025  0.62165455  1
  Zn  Zn96  1  0.24639776  0.24879537  0.00397267  1
  Zn  Zn97  1  0.00151751  0.74744827  0.75340688  1
  Zn  Zn98  1  0.11701548  0.36739403  0.74730366  1
  Zn  Zn99  1  0.13049181  0.74606398  0.87144000  1
  Zn  Zn100  1  0.12412221  0.75260212  0.37902881  1
  Zn  Zn101  1  0.12513190  0.12477236  0.00494600  1
  Zn  Zn102  1  0.87655891  0.62305763  0.76965576  1
  Zn  Zn103  1  0.37483046  -0.00448034  0.89038220  1
  Zn  Zn104  1  0.37778091  0.62221435  0.24971672  1
  Zn  Zn105  1  0.24758451  0.37568431  0.12548259  1
  Zn  Zn106  1  0.87952633  0.86970399  0.49240064  1
  Zn  Zn107  1  0.18987828  0.19069696  0.18871760  1
  Zn  Zn108  1  0.17855793  0.18292817  0.69298451  1
  Zn  Zn109  1  0.18962730  0.69029320  0.18823381  1
  Zn  Zn110  1  0.18629129  0.68328973  0.68368413  1
  Zn  Zn111  1  0.68391033  0.18651607  0.19000038  1
  Zn  Zn112  1  0.69062693  0.18642866  0.68672888  1
  Zn  Zn113  1  0.68655208  0.68889135  0.17858178  1
  Zn  Zn114  1  0.69021970  0.68662017  0.69263608  1
  Zn  Zn115  1  0.31269431  0.31470032  0.31977010  1
  Zn  Zn116  1  0.31074695  0.30778380  0.81383658  1
  Zn  Zn117  1  0.31445237  0.80984912  0.31046068  1
  Zn  Zn118  1  0.31707212  0.81243243  0.81311396  1
  Zn  Zn119  1  0.81154058  0.30954093  0.30754927  1
  Zn  Zn120  1  0.81124497  0.30737259  0.81146229  1
  Zn  Zn121  1  0.81113874  0.81575097  0.31092713  1
  Zn  Zn122  1  0.81544322  0.81542780  0.81157801  1
  Zn  Zn123  1  0.21862738  0.42314824  0.42509098  1
  Zn  Zn124  1  0.18497535  0.43592588  0.93758209  1
  Zn  Zn125  1  0.18715302  0.93648344  0.43572870  1
  Zn  Zn126  1  0.18795660  0.93774981  0.93792381  1
  Zn  Zn127  1  0.69022703  0.44148406  0.43862821  1
  Zn  Zn128  1  0.68400990  0.42797900  0.93880860  1
  Zn  Zn129  1  0.68744381  0.93766496  0.43671236  1
  Zn  Zn130  1  0.67872845  0.94159649  0.94451386  1
  Zn  Zn131  1  0.31775093  0.05986880  0.06391249  1
  Zn  Zn132  1  0.31090021  0.06083931  0.56315588  1
  Zn  Zn133  1  0.31195561  0.56385279  0.06559041  1
  Zn  Zn134  1  0.32872959  0.52751730  0.57639328  1
  Zn  Zn135  1  0.81781777  0.06330549  0.06323569  1
  Zn  Zn136  1  0.81201965  0.06368997  0.56199713  1
  Zn  Zn137  1  0.82206388  0.55944660  -0.04716600  1
  Zn  Zn138  1  0.81769494  0.56020961  0.56288832  1
  Zn  Zn139  1  0.44072130  0.43139773  0.18820783  1
  Zn  Zn140  1  0.43722649  0.43182445  0.68312696  1
  Zn  Zn141  1  0.43626611  0.94093667  0.18236012  1
  Zn  Zn142  1  0.43927175  0.93762407  0.69084936  1
  Zn  Zn143  1  0.89750956  0.47131229  0.13193958  1
  Zn  Zn144  1  0.93840769  0.43482999  0.69197674  1
  Zn  Zn145  1  0.93719428  0.93923479  0.18506667  1
  Zn  Zn146  1  0.93575981  0.94052059  0.68545946  1
  Zn  Zn147  1  0.06124134  0.06279966  0.30841560  1
  Zn  Zn148  1  0.06097472  0.06250616  0.81485698  1
  Zn  Zn149  1  0.06885598  0.56463545  0.31312061  1
  Zn  Zn150  1  0.06061426  0.55883208  0.81108812  1
  Zn  Zn151  1  0.55987902  0.06635149  0.31396845  1
  Zn  Zn152  1  0.56030742  0.06025186  0.81100720  1
  Zn  Zn153  1  0.56823137  0.56771341  0.30673999  1
  Zn  Zn154  1  0.55774184  0.55511347  0.81101002  1
  Zn  Zn155  1  0.43022970  0.18826432  0.44132506  1
  Zn  Zn156  1  0.42556022  0.15397956  0.95581723  1
  Zn  Zn157  1  0.43706767  0.68358148  0.43662140  1
  Zn  Zn158  1  0.43934292  0.68601628  0.93711959  1
  Zn  Zn159  1  0.93470268  0.18578643  0.43739732  1
  Zn  Zn160  1  0.93700209  0.18980875  0.94354854  1
  Zn  Zn161  1  0.93568395  0.68536258  0.43884049  1
  Zn  Zn162  1  0.94320766  0.69625351  0.93855050  1
  Zn  Zn163  1  0.05981144  0.31458741  0.05648808  1
  Zn  Zn164  1  0.06405982  0.31104251  0.55625722  1
  Zn  Zn165  1  0.06753836  0.81466107  0.06420757  1
  Zn  Zn166  1  0.06369604  0.80994085  0.56343044  1
  Zn  Zn167  1  0.55051649  0.27182973  0.05410319  1
  Zn  Zn168  1  0.56418040  0.31666231  0.56019531  1
  Zn  Zn169  1  0.56820776  0.81208253  0.06041282  1
  Zn  Zn170  1  0.56405781  0.81198253  0.56725128  1
  O  O171  1  0.10978222  0.13624042  0.12661025  1
  O  O172  1  0.11561183  0.11537680  0.62205116  1
  O  O173  1  0.12112823  0.62164385  0.11988584  1
  O  O174  1  0.11074028  0.61712465  0.62406687  1
  O  O175  1  0.62878956  0.11203306  0.12755894  1
  O  O176  1  0.62410183  0.11739694  0.61727062  1
  O  O177  1  0.61932928  0.61288645  0.11802622  1
  O  O178  1  0.62463557  0.61875229  0.62051211  1
  O  O179  1  0.32860642  0.38868899  0.39961972  1
  O  O180  1  0.37863864  0.37802432  0.88185106  1
  O  O181  1  0.38186307  0.87448042  0.38290181  1
  O  O182  1  0.38901883  0.87783688  0.87331361  1
  O  O183  1  0.88428416  0.37546645  0.37084733  1
  O  O184  1  0.88297259  0.37005264  0.87442675  1
  O  O185  1  0.86939074  0.87851560  0.37961997  1
  O  O186  1  0.88468360  0.87300315  0.88394248  1
  O  O187  1  0.25071976  0.01087282  0.36965280  1
  O  O188  1  0.25277142  0.00646748  0.86923814  1
  O  O189  1  0.23883215  0.51787369  0.36154303  1
  O  O190  1  0.26064144  0.49605051  0.86883584  1
  O  O191  1  0.75367717  0.01509298  0.38434078  1
  O  O192  1  0.74692946  -0.00534813  0.86409706  1
  O  O193  1  0.75372002  0.51053810  0.36715072  1
  O  O194  1  0.75087127  0.49530820  0.87057029  1
  O  O195  1  0.23737713  0.50037388  0.13184560  1
  O  O196  1  0.23262477  0.51217022  0.63648780  1
  O  O197  1  0.25534010  0.99263505  0.13263806  1
  O  O198  1  0.24298064  0.99267207  0.63269923  1
  O  O199  1  0.73487349  0.48846756  0.12964953  1
  O  O200  1  0.74213152  0.49412348  0.62634661  1
  O  O201  1  0.75654402  0.98391661  0.12124363  1
  O  O202  1  0.73983462  0.99421369  0.62568852  1
  O  O203  1  0.01546922  0.38074892  0.26441989  1
  O  O204  1  -0.00056862  0.37360174  0.76612540  1
  O  O205  1  0.01046263  0.86911996  0.24164292  1
  O  O206  1  0.00773382  0.87763507  0.75571804  1
  O  O207  1  0.50614338  0.36507846  0.25520308  1
  O  O208  1  0.50407143  0.36968371  0.75382120  1
  O  O209  1  0.50580170  0.87073640  0.25214486  1
  O  O210  1  0.50816983  0.86485864  0.75334485  1
  O  O211  1  0.48949718  0.13966587  0.25970477  1
  O  O212  1  0.48992387  0.13209804  0.74832021  1
  O  O213  1  0.50085802  0.63412288  0.24109967  1
  O  O214  1  0.49527748  0.63007217  0.74614474  1
  O  O215  1  0.99036866  0.12363853  0.24201671  1
  O  O216  1  0.98455716  0.11295864  0.74246301  1
  O  O217  1  0.99912511  0.63487670  0.23992115  1
  O  O218  1  0.99590181  0.62642120  0.74266721  1
  O  O219  1  0.37310976  0.25299821  0.01067723  1
  O  O220  1  0.35652214  0.25107967  0.50348632  1
  O  O221  1  0.37035248  0.74428454  0.01064789  1
  O  O222  1  0.37689890  0.75662809  0.50808543  1
  O  O223  1  0.86082544  0.24588513  0.01216182  1
  O  O224  1  0.86544159  0.25170649  0.50534992  1
  O  O225  1  0.86949318  0.76281301  0.00722523  1
  O  O226  1  0.86890977  0.74876042  0.51177991  1
  O  O227  1  0.12968914  0.23781002  0.49162362  1
  O  O228  1  0.12722818  0.24691823  0.98873197  1
  O  O229  1  0.12966295  0.74602081  0.49862319  1
  O  O230  1  0.13620144  0.74296054  1.00005994  1
  O  O231  1  0.63075489  0.23978776  0.50443873  1
  O  O232  1  0.64227644  0.25713078  0.98896886  1
  O  O233  1  0.63254268  0.74306125  0.50055389  1
  O  O234  1  0.63540669  0.73677235  1.00452037  1
  O  O235  1  0.48179835  0.25752623  0.14403766  1
  O  O236  1  0.50846933  0.25192301  0.63926196  1
  O  O237  1  0.49522165  0.74728215  0.12715640  1
  O  O238  1  0.49547400  0.74293469  0.63520265  1
  O  O239  1  0.98453430  0.24654517  0.11672834  1
  O  O240  1  1.00073570  0.23372920  0.61865734  1
  O  O241  1  0.99463467  0.74894970  0.13062731  1
  O  O242  1  0.99209219  0.74222445  0.62714906  1
  O  O243  1  0.00968193  0.25668385  0.38118943  1
  O  O244  1  0.00948343  0.25595389  0.87995889  1
  O  O245  1  -0.00172884  0.74606626  0.36175403  1
  O  O246  1  0.00897543  0.76678871  0.87398365  1
  O  O247  1  0.49174269  0.25429231  0.36827227  1
  O  O248  1  0.50914411  0.25421863  0.86254350  1
  O  O249  1  0.50160240  0.75516869  0.36454051  1
  O  O250  1  0.49497232  0.75797358  0.86277148  1
  O  O251  1  0.24246517  0.12583884  0.49365336  1
  O  O252  1  0.24460801  0.12485368  0.99156688  1
  O  O253  1  0.25316066  0.62127525  0.48569598  1
  O  O254  1  0.24202250  0.63539500  1.00667595  1
  O  O255  1  0.74272419  0.13308542  0.49596224  1
  O  O256  1  0.75165806  0.13297532  0.99953493  1
  O  O257  1  0.74771716  0.62767499  0.49208281  1
  O  O258  1  0.74013708  0.63329967  0.99758476  1
  O  O259  1  0.26244009  0.37448122  0.00097815  1
  O  O260  1  0.22622640  0.35244903  0.51635682  1
  O  O261  1  0.24619429  0.86776664  0.00894221  1
  O  O262  1  0.25887544  0.87525375  0.50695547  1
  O  O263  1  0.74853124  0.36950385  0.01339049  1
  O  O264  1  0.75071381  0.36928953  0.50667107  1
  O  O265  1  0.75338528  0.87180294  0.00738180  1
  O  O266  1  0.74652049  0.86647409  0.50910133  1
  O  O267  1  0.13176026  0.49478206  0.24222076  1
  O  O268  1  0.13260773  0.49682777  0.74445927  1
  O  O269  1  0.13779348  0.99508517  0.25224365  1
  O  O270  1  0.13570196  0.99403165  0.74739983  1
  O  O271  1  0.62793182  0.49191431  0.24137497  1
  O  O272  1  0.63626102  0.49415267  0.74526100  1
  O  O273  1  0.62141482  0.98931354  0.25475521  1
  O  O274  1  0.63586475  0.99613503  0.74369380  1
  O  O275  1  0.36543460  0.00876629  0.25290732  1
  O  O276  1  0.36289367  0.00470426  0.75120158  1
  O  O277  1  0.36136875  0.49849637  0.24087625  1
  O  O278  1  0.36841459  0.50488442  0.75822272  1
  O  O279  1  0.87473301  0.01374296  0.24732451  1
  O  O280  1  0.86029172  0.00603623  0.74738246  1
  O  O281  1  0.86471342  0.51073976  0.23889027  1
  O  O282  1  0.85776043  0.50144125  0.74619337  1
  O  O283  1  0.12354678  0.36588971  0.36986029  1
  O  O284  1  0.12452770  0.36183102  0.87229216  1
  O  O285  1  0.13235396  0.87105313  0.35878091  1
  O  O286  1  0.12235405  0.87561508  0.86286503  1
  O  O287  1  0.63492234  0.37792674  0.36158417  1
  O  O288  1  0.61681679  0.36844834  0.86748899  1
  O  O289  1  0.61986060  0.87218672  0.36609071  1
  O  O290  1  0.61737908  0.87893134  0.86248408  1
  O  O291  1  0.36506422  0.13566348  0.14381565  1
  O  O292  1  0.37590485  0.11885415  0.63806809  1
  O  O293  1  0.38485353  0.63243936  0.12671829  1
  O  O294  1  0.38320750  0.62424231  0.63492753  1
  O  O295  1  0.88171824  0.13427219  0.13040274  1
  O  O296  1  0.88117448  0.12331433  0.63264290  1
  O  O297  1  0.88628674  0.64225616  0.12964212  1
  O  O298  1  0.88436315  0.63089928  0.62725514  1
  O  O299  1  0.26015929  0.25604053  0.12597592  1
  O  O300  1  0.24355070  0.23525555  0.61554586  1
  O  O301  1  0.25955349  0.75737450  0.11849144  1
  O  O302  1  0.25894852  0.75431633  0.62461751  1
  O  O303  1  0.75233331  0.25060036  0.11544834  1
  O  O304  1  0.74853593  0.25939535  0.61534031  1
  O  O305  1  0.75843556  0.75673597  0.11563925  1
  O  O306  1  0.75663499  0.75444542  0.62291221  1
  O  O307  1  0.24025021  0.23628225  0.38224649  1
  O  O308  1  0.24032116  0.24216936  0.87863005  1
  O  O309  1  0.25009241  0.73832017  0.37468296  1
  O  O310  1  0.25228555  0.75486697  0.88899483  1
  O  O311  1  0.75451019  0.24234567  0.38729052  1
  O  O312  1  0.74488937  0.25158290  0.88814243  1
  O  O313  1  0.74951451  0.73857857  0.37883211  1
  O  O314  1  0.74985188  0.75983883  0.88660707  1
  O  O315  1  -0.00084907  0.11617729  0.00846272  1
  O  O316  1  0.00343323  0.11457536  0.50652188  1
  O  O317  1  0.01231025  0.63197148  0.01302718  1
  O  O318  1  -0.00043924  0.61649931  0.50697977  1
  O  O319  1  0.52015744  0.15736532  0.01843524  1
  O  O320  1  0.50550543  0.12148655  0.50149731  1
  O  O321  1  0.50573726  0.61653148  0.00541397  1
  O  O322  1  0.51336072  0.62170560  0.50450233  1
  O  O323  1  0.50194550  0.39213521  0.49938289  1
  O  O324  1  0.48876072  0.37196467  0.99557736  1
  O  O325  1  0.49691897  0.87825943  0.49621502  1
  O  O326  1  0.50692487  0.86767869  0.98158753  1
  O  O327  1  1.00032210  0.38077303  0.48669447  1
  O  O328  1  1.00420287  0.37854109  0.98057577  1
  O  O329  1  1.00077856  0.89007135  0.50683750  1
  O  O330  1  0.99455570  0.88064015  0.99660778  1
  O  O331  1  0.51217915  0.50176735  0.38097184  1
  O  O332  1  0.48885921  0.48798188  0.88016372  1
  O  O333  1  0.49715338  0.99247639  0.38292241  1
  O  O334  1  0.49650666  0.98211798  0.86262651  1
  O  O335  1  1.00069983  0.49462791  0.38017858  1
  O  O336  1  0.99818678  0.48706631  0.87449587  1
  O  O337  1  0.99914157  1.00501858  0.38937540  1
  O  O338  1  1.00469364  0.98808674  0.88411483  1
  O  O339  1  -0.00296214  0.01132565  0.11742467  1
  O  O340  1  0.00449101  0.00736310  0.61716401  1
  O  O341  1  0.01295275  0.51423436  0.12839818  1
  O  O342  1  0.00175545  0.50559714  0.61979546  1
  O  O343  1  0.49735579  0.01548298  0.12571271  1
  O  O344  1  0.51324568  0.00035431  0.62299084  1
  O  O345  1  0.50832468  0.50128507  0.11976282  1
  O  O346  1  0.51764417  0.50652237  0.62743357  1
  O  O347  1  0.23776799  0.38435189  0.24938496  1
  O  O348  1  0.24901709  0.38451247  0.75020936  1
  O  O349  1  0.24783842  0.88364820  0.24406411  1
  O  O350  1  0.24569263  0.88064797  0.74701343  1
  O  O351  1  0.74080096  0.37590240  0.24042708  1
  O  O352  1  0.74667845  0.38349391  0.74441361  1
  O  O353  1  0.73967867  0.86804896  0.23484727  1
  O  O354  1  0.74521895  0.88478506  0.74489601  1
  O  O355  1  0.25324526  0.11917501  0.25792227  1
  O  O356  1  0.25303920  0.11655094  0.75530898  1
  O  O357  1  0.25295819  0.61883995  0.25436766  1
  O  O358  1  0.26110018  0.61961683  0.74988402  1
  O  O359  1  0.75640187  0.13235634  0.26170153  1
  O  O360  1  0.75906381  0.11075739  0.74727989  1
  O  O361  1  0.75157598  0.62261310  0.25436178  1
  O  O362  1  0.74948804  0.60818936  0.75200104  1
  O  O363  1  0.36462456  0.12374170  0.36812543  1
  O  O364  1  0.35918413  0.13078247  0.86009254  1
  O  O365  1  0.36210289  0.63005228  0.36703165  1
  O  O366  1  0.38328094  0.61254818  0.86620675  1
  O  O367  1  0.86809144  0.12319693  0.36550547  1
  O  O368  1  0.88173167  0.12648579  0.86200985  1
  O  O369  1  0.86850031  0.62212667  0.36525702  1
  O  O370  1  0.87637864  0.62889714  0.88221502  1
  O  O371  1  0.12195501  0.38267156  0.13155279  1
  O  O372  1  0.11093927  0.38702060  0.62975087  1
  O  O373  1  0.14116000  0.87041499  0.13650541  1
  O  O374  1  0.12934839  0.87869595  0.63645591  1
  O  O375  1  0.62702941  0.37789835  0.13174429  1
  O  O376  1  0.63555305  0.38280795  0.63032172  1
  O  O377  1  0.63699888  0.87445658  0.12903531  1
  O  O378  1  0.63067398  0.88173737  0.63600009  1
  O  O379  1  0.13004511  0.25832053  0.26184501  1
  O  O380  1  0.12541668  0.24920782  0.76736661  1
  O  O381  1  0.11568483  0.75878855  0.24901232  1
  O  O382  1  0.12584314  0.75819715  0.75092578  1
  O  O383  1  0.60821049  0.25539687  0.24942337  1
  O  O384  1  0.62388317  0.25449809  0.75633445  1
  O  O385  1  0.61310169  0.75612593  0.24485685  1
  O  O386  1  0.61738957  0.75829032  0.74602709  1
  O  O387  1  0.37918335  0.24816270  0.25168609  1
  O  O388  1  0.38381639  0.24422004  0.74986952  1
  O  O389  1  0.38805686  0.75140660  0.23761495  1
  O  O390  1  0.38166252  0.74093985  0.74524991  1
  O  O391  1  0.86944256  0.23931623  0.23387908  1
  O  O392  1  0.86504494  0.23033109  0.74457997  1
  O  O393  1  0.88118664  0.74803863  0.24158271  1
  O  O394  1  0.87518213  0.74756341  0.73909106  1
  O  O395  1  0.40223426  0.52160049  0.48823713  1
  O  O396  1  0.37882888  0.49272516  0.99498143  1
  O  O397  1  0.38244231  0.99057779  0.50162832  1
  O  O398  1  0.39730088  1.04466696  0.98936890  1
  O  O399  1  0.88833065  0.49540266  0.49659977  1
  O  O400  1  0.88469866  0.50336698  1.02537264  1
  O  O401  1  0.88860342  0.99926169  0.50147562  1
  O  O402  1  0.88449368  0.98775835  1.00413402  1
  O  O403  1  0.11294293  0.00078328  0.00014624  1
  O  O404  1  0.11634525  0.00243270  0.50414795  1
  O  O405  1  0.12388550  0.50822311  0.00737752  1
  O  O406  1  0.11301356  0.50168003  0.50763180  1
  O  O407  1  0.60916290  0.00882111  0.00033785  1
  O  O408  1  0.61974114  0.00779481  0.50751582  1
  O  O409  1  0.61858160  0.50120303  0.00573090  1
  O  O410  1  0.62100870  0.50739625  0.50741159  1
  O  O411  1  0.37191309  0.37036996  0.11656918  1
  O  O412  1  0.36401359  0.41764139  0.60305162  1
  O  O413  1  0.36494748  0.86720647  0.12743852  1
  O  O414  1  0.37240858  0.86828845  0.62146034  1
  O  O415  1  0.86094295  0.35923948  0.13376631  1
  O  O416  1  0.86401916  0.37319518  0.62480718  1
  O  O417  1  0.86588026  0.86786629  0.12061458  1
  O  O418  1  0.86803337  0.86687054  0.62248764  1
  O  O419  1  0.12889526  0.12997950  0.37774839  1
  O  O420  1  0.13128891  0.13333143  0.87542318  1
  O  O421  1  0.13685025  0.63262974  0.37563541  1
  O  O422  1  0.11985960  0.62533954  0.88789694  1
  O  O423  1  0.63234038  0.12253861  0.38571609  1
  O  O424  1  0.62437309  0.13483691  0.86799017  1
  O  O425  1  0.63566488  0.62879141  0.37965343  1
  O  O426  1  0.61616661  0.61725801  0.88704522  1
