# generated using pymatgen
data_V85Zn86O256
_symmetry_space_group_name_H-M   'P 1'
_cell_length_a   16.96035362
_cell_length_b   16.94879277
_cell_length_c   16.94764130
_cell_angle_alpha   89.95353450
_cell_angle_beta   90.02352902
_cell_angle_gamma   89.91412500
_symmetry_Int_Tables_number   1
_chemical_formula_structural   V85Zn86O256
_chemical_formula_sum   'V85 Zn86 O256'
_cell_volume   4871.71943227
_cell_formula_units_Z   1
loop_
 _symmetry_equiv_pos_site_id
 _symmetry_equiv_pos_as_xyz
  1  'x, y, z'
loop_
 _atom_site_type_symbol
 _atom_site_label
 _atom_site_symmetry_multiplicity
 _atom_site_fract_x
 _atom_site_fract_y
 _atom_site_fract_z
 _atom_site_occupancy
  V  V0  1  -0.00112850  0.37221050  0.37917196  1
  V  V1  1  0.12228843  0.50098214  0.12403791  1
  V  V2  1  0.50403070  0.37324106  0.87377928  1
  V  V3  1  0.87781586  0.63456729  0.25174099  1
  V  V4  1  0.32695597  0.19093610  0.68327035  1
  V  V5  1  0.37501721  0.49128943  0.37982641  1
  V  V6  1  0.87303133  0.00399334  0.37526028  1
  V  V7  1  0.37408734  0.89196045  0.49396494  1
  V  V8  1  0.37322969  0.01118951  0.87337389  1
  V  V9  1  0.00193757  -0.00101248  0.49856620  1
  V  V10  1  0.37323505  0.24436036  0.12971997  1
  V  V11  1  0.12575358  0.37100969  0.75371881  1
  V  V12  1  0.62987126  0.62524546  -0.00657224  1
  V  V13  1  0.75046865  0.74690386  0.50076041  1
  V  V14  1  0.25823282  0.00130950  0.25814465  1
  V  V15  1  0.01730525  0.75816481  0.75611543  1
  V  V16  1  0.50097090  0.49995339  -0.00034189  1
  V  V17  1  -0.00005622  0.25057869  0.25170994  1
  V  V18  1  0.75229875  -0.00166944  0.74530044  1
  V  V19  1  -0.00252598  0.25145163  0.75030980  1
  V  V20  1  0.87659512  0.50272753  0.37599924  1
  V  V21  1  0.12818938  0.12982837  -0.01273727  1
  V  V22  1  0.37240196  0.61947297  0.24928617  1
  V  V23  1  -0.00971588  0.12899085  0.62082394  1
  V  V24  1  0.62186912  0.00010059  0.11593153  1
  V  V25  1  0.74921526  0.00336862  0.25232188  1
  V  V26  1  0.74753854  0.87311769  0.63082416  1
  V  V27  1  0.75136549  0.74738206  -0.00304145  1
  V  V28  1  0.25006142  0.49813215  0.25056554  1
  V  V29  1  0.12206348  0.13526197  0.49523168  1
  V  V30  1  0.12455749  0.62916223  -0.00513635  1
  V  V31  1  0.00436250  0.12813838  0.12636121  1
  V  V32  1  0.24795761  0.50050528  0.75055533  1
  V  V33  1  0.25182329  0.37104228  0.62249405  1
  V  V34  1  0.87894647  0.75150799  0.62856755  1
  V  V35  1  0.26125698  0.12322547  0.37923593  1
  V  V36  1  0.50583711  0.87915760  0.88212629  1
  V  V37  1  -0.00193874  0.37703249  0.87465781  1
  V  V38  1  0.11925957  0.86806878  0.24931189  1
  V  V39  1  0.62826192  0.50100837  0.12651582  1
  V  V40  1  0.87073238  0.36863021  0.51880427  1
  V  V41  1  0.24606456  0.62718841  0.38945366  1
  V  V42  1  0.24387039  0.87592842  0.62754693  1
  V  V43  1  0.50022986  0.73975558  0.24899498  1
  V  V44  1  0.61765861  0.12837147  -0.00055879  1
  V  V45  1  0.01155840  0.62999008  0.62498682  1
  V  V46  1  0.63068006  0.75206518  0.86307627  1
  V  V47  1  0.75071387  0.12789331  0.88110666  1
  V  V48  1  0.86921729  0.13383842  0.74587004  1
  V  V49  1  0.24742842  0.62838304  0.87506817  1
  V  V50  1  0.49382338  0.12181887  0.13170928  1
  V  V51  1  0.49941774  0.49392185  0.50786701  1
  V  V52  1  0.38065474  0.88233071  0.00182116  1
  V  V53  1  0.01726998  0.87692340  0.87429769  1
  V  V54  1  0.12167871  0.74685896  0.38647295  1
  V  V55  1  0.62558871  0.74454875  0.37253994  1
  V  V56  1  0.37554104  0.50226932  0.87501415  1
  V  V57  1  0.12406971  0.37522478  0.25038790  1
  V  V58  1  0.57461888  0.93293443  0.69275311  1
  V  V59  1  0.36997081  0.74554125  0.60756291  1
  V  V60  1  0.75135627  0.37503590  0.11673384  1
  V  V61  1  0.61174021  0.88263370  0.25344150  1
  V  V62  1  0.37386099  0.37398409  0.00066186  1
  V  V63  1  0.00619645  0.50481402  0.50305765  1
  V  V64  1  0.87615843  0.87612728  -0.00181926  1
  V  V65  1  0.87285992  0.25195508  0.11508076  1
  V  V66  1  0.00262598  0.63533481  0.13046854  1
  V  V67  1  0.24890596  0.75377309  -0.00676891  1
  V  V68  1  0.37474552  0.35877192  0.50563727  1
  V  V69  1  0.24805453  0.37156511  0.12451363  1
  V  V70  1  0.24693482  0.24724978  -0.01236088  1
  V  V71  1  0.62892485  0.25380957  0.88139979  1
  V  V72  1  0.87456401  0.87560717  0.49968973  1
  V  V73  1  0.50343572  0.24418466  0.73983680  1
  V  V74  1  0.25315765  0.87615335  0.12920824  1
  V  V75  1  0.87271708  0.12727340  0.25098943  1
  V  V76  1  0.37678792  0.74881038  0.12395313  1
  V  V77  1  0.62224241  0.09976130  0.50285362  1
  V  V78  1  0.00103594  0.00228708  0.00069819  1
  V  V79  1  0.37620312  0.63240590  0.75244994  1
  V  V80  1  0.74950527  0.87650613  0.12530665  1
  V  V81  1  0.87463114  0.63103401  0.76334721  1
  V  V82  1  0.62841086  0.38029227  0.73109423  1
  V  V83  1  0.62435675  0.61853551  0.50628422  1
  V  V84  1  0.73764733  0.24842906  0.50503806  1
  Zn  Zn85  1  0.62994965  0.36113095  0.26462785  1
  Zn  Zn86  1  0.69355788  0.18262364  0.34479094  1
  Zn  Zn87  1  0.49532573  0.87593478  0.38561650  1
  Zn  Zn88  1  0.86493811  0.50562402  0.87998063  1
  Zn  Zn89  1  0.49970899  0.62143987  0.62922228  1
  Zn  Zn90  1  0.75338623  0.49843993  0.24958457  1
  Zn  Zn91  1  0.87550331  0.00111992  0.87301188  1
  Zn  Zn92  1  0.12045290  -0.00323923  0.63278901  1
  Zn  Zn93  1  0.24636408  0.00517764  0.75804247  1
  Zn  Zn94  1  -0.00226698  0.50249263  -0.00363272  1
  Zn  Zn95  1  -0.00472924  0.86850634  0.36855110  1
  Zn  Zn96  1  0.87269340  0.37722634  -0.00612382  1
  Zn  Zn97  1  0.12850549  0.50301148  0.62205767  1
  Zn  Zn98  1  0.50197502  0.11360247  0.62593182  1
  Zn  Zn99  1  0.74799758  0.49562689  0.74678368  1
  Zn  Zn100  1  0.75154162  0.62404501  0.37410541  1
  Zn  Zn101  1  0.50579896  0.74942636  0.74699130  1
  Zn  Zn102  1  0.87873862  0.75374562  0.12929496  1
  Zn  Zn103  1  0.51425403  0.24754414  0.26901891  1
  Zn  Zn104  1  0.49892386  0.61808591  0.12207570  1
  Zn  Zn105  1  0.12738187  0.00240993  0.12989526  1
  Zn  Zn106  1  0.13700480  0.25215285  0.37493915  1
  Zn  Zn107  1  0.19080395  0.18748817  0.19098913  1
  Zn  Zn108  1  0.16301404  0.17388736  0.69596222  1
  Zn  Zn109  1  0.19005629  0.68816788  0.18855045  1
  Zn  Zn110  1  0.19216995  0.69135023  0.68535201  1
  Zn  Zn111  1  0.68787359  0.19043129  0.17806877  1
  Zn  Zn112  1  0.68480440  0.18904257  0.68213834  1
  Zn  Zn113  1  0.69104005  0.68342620  0.18454411  1
  Zn  Zn114  1  0.70474683  0.65671598  0.67574234  1
  Zn  Zn115  1  0.35400439  0.28190709  0.34024747  1
  Zn  Zn116  1  0.31331367  0.31630233  0.81480292  1
  Zn  Zn117  1  0.30965702  0.80943789  0.31547595  1
  Zn  Zn118  1  0.31356391  0.81675473  0.81368625  1
  Zn  Zn119  1  0.81336778  0.31746024  0.31113743  1
  Zn  Zn120  1  0.80874842  0.31573581  0.80947633  1
  Zn  Zn121  1  0.80737502  0.81509497  0.31222710  1
  Zn  Zn122  1  0.81773819  0.81260608  0.81414642  1
  Zn  Zn123  1  0.19007063  0.43497714  0.43884394  1
  Zn  Zn124  1  0.18405294  0.43738365  0.93642874  1
  Zn  Zn125  1  0.18734255  0.93386046  0.43963400  1
  Zn  Zn126  1  0.19245770  0.94501849  0.94302958  1
  Zn  Zn127  1  0.69075881  0.43431359  0.44341550  1
  Zn  Zn128  1  0.69328510  0.44177325  0.93386931  1
  Zn  Zn129  1  0.69001483  0.93066091  0.43456274  1
  Zn  Zn130  1  0.68997371  0.93824332  0.93389596  1
  Zn  Zn131  1  0.30947225  0.06034703  0.06355459  1
  Zn  Zn132  1  0.30618598  0.05717430  0.55618906  1
  Zn  Zn133  1  0.31015335  0.56171924  0.06188707  1
  Zn  Zn134  1  0.31411068  0.55693851  0.56538439  1
  Zn  Zn135  1  0.81312268  0.06427145  0.06178754  1
  Zn  Zn136  1  0.80433268  0.06686045  0.56107884  1
  Zn  Zn137  1  0.81607080  0.56362478  0.06107166  1
  Zn  Zn138  1  0.81773112  0.56073128  0.56754110  1
  Zn  Zn139  1  0.44265793  0.42743244  0.19251454  1
  Zn  Zn140  1  0.43629758  0.43564363  0.68806057  1
  Zn  Zn141  1  0.44709027  0.94134931  0.20320495  1
  Zn  Zn142  1  0.41135904  0.93302333  0.69076013  1
  Zn  Zn143  1  0.93706520  0.44117738  0.18779150  1
  Zn  Zn144  1  0.93986369  0.44606350  0.69151973  1
  Zn  Zn145  1  0.93871116  0.93862467  0.18582854  1
  Zn  Zn146  1  0.93707479  0.93937465  0.68923758  1
  Zn  Zn147  1  0.06565975  0.05789448  0.31378802  1
  Zn  Zn148  1  0.05932603  0.06176824  0.81129330  1
  Zn  Zn149  1  0.06175566  0.56456573  0.31332622  1
  Zn  Zn150  1  0.06121670  0.56244305  0.81115035  1
  Zn  Zn151  1  0.55809960  0.05894614  0.31200447  1
  Zn  Zn152  1  0.55645292  0.06639811  0.81965771  1
  Zn  Zn153  1  0.57918220  0.52926217  0.33345913  1
  Zn  Zn154  1  0.56511489  0.56245800  0.81342267  1
  Zn  Zn155  1  0.44619181  0.17607282  0.44508105  1
  Zn  Zn156  1  0.44220579  0.19128157  0.94369103  1
  Zn  Zn157  1  0.44056156  0.67863740  0.43195831  1
  Zn  Zn158  1  0.44223853  0.69217583  0.93570222  1
  Zn  Zn159  1  0.92927744  0.19061065  0.43683766  1
  Zn  Zn160  1  0.93973777  0.18944408  0.93265593  1
  Zn  Zn161  1  0.94198971  0.68816604  0.43908569  1
  Zn  Zn162  1  0.94544824  0.69536219  0.94073064  1
  Zn  Zn163  1  0.06151602  0.31133003  0.05992225  1
  Zn  Zn164  1  0.06033817  0.31319792  0.56725010  1
  Zn  Zn165  1  0.06650957  0.81376794  0.06280848  1
  Zn  Zn166  1  0.06265497  0.81410267  0.55996435  1
  Zn  Zn167  1  0.55784360  0.31616703  0.07734707  1
  Zn  Zn168  1  0.55859537  0.30972557  0.55592100  1
  Zn  Zn169  1  0.56285992  0.80947768  0.06426794  1
  Zn  Zn170  1  0.55409830  0.80197718  0.55763472  1
  O  O171  1  0.11261851  0.12621532  0.12303323  1
  O  O172  1  0.10764412  0.12080304  0.61207700  1
  O  O173  1  0.12188085  0.61980025  0.11956439  1
  O  O174  1  0.11598903  0.62642167  0.62854153  1
  O  O175  1  0.61997882  0.12038024  0.11566329  1
  O  O176  1  0.62367454  0.12526957  0.60855145  1
  O  O177  1  0.62395548  0.62158335  0.10886476  1
  O  O178  1  0.61394850  0.64494114  0.60750235  1
  O  O179  1  0.35243950  0.38687449  0.39144816  1
  O  O180  1  0.38701068  0.37980130  0.87926473  1
  O  O181  1  0.37185232  0.86899620  0.39076065  1
  O  O182  1  0.38469861  0.87923257  0.88422120  1
  O  O183  1  0.88724711  0.38464503  0.37926062  1
  O  O184  1  0.88407742  0.37628837  0.87215771  1
  O  O185  1  0.87538107  0.88410506  0.37881659  1
  O  O186  1  0.88491593  0.87780721  0.88811490  1
  O  O187  1  0.24208289  0.00574998  0.36489594  1
  O  O188  1  0.26734337  -0.00148776  0.87745998  1
  O  O189  1  0.25092918  0.50953888  0.37006796  1
  O  O190  1  0.25694270  0.50556568  0.87102473  1
  O  O191  1  0.75730842  -0.00699524  0.36129489  1
  O  O192  1  0.75123453  0.00844428  0.86298465  1
  O  O193  1  0.76942575  0.50301219  0.37856509  1
  O  O194  1  0.75269472  0.49975614  0.86104648  1
  O  O195  1  0.23877225  0.49540552  0.12823715  1
  O  O196  1  0.24775979  0.49002086  0.63319069  1
  O  O197  1  0.24703938  0.99469984  0.13702696  1
  O  O198  1  0.25114725  0.98665432  0.62863167  1
  O  O199  1  0.74530176  0.49414698  0.12381299  1
  O  O200  1  0.74256087  0.54784453  0.64716736  1
  O  O201  1  0.74815540  0.99593289  0.13185706  1
  O  O202  1  0.75291780  0.99334736  0.63742025  1
  O  O203  1  0.00446979  0.37290506  0.25918394  1
  O  O204  1  0.00539768  0.37072304  0.75273614  1
  O  O205  1  0.01452021  0.87875207  0.24938526  1
  O  O206  1  -0.00049636  0.86819960  0.75947974  1
  O  O207  1  0.52036876  0.35269286  0.21895141  1
  O  O208  1  0.50551268  0.36629990  0.75650021  1
  O  O209  1  0.50727696  0.84226182  0.21749434  1
  O  O210  1  0.50696501  0.87590449  0.75138569  1
  O  O211  1  0.50444247  0.12991248  0.23491202  1
  O  O212  1  0.50661182  0.13772027  0.74584754  1
  O  O213  1  0.49111601  0.63116428  0.24642337  1
  O  O214  1  0.49012650  0.62580429  0.74995394  1
  O  O215  1  0.99529016  0.12741825  0.24253117  1
  O  O216  1  0.98955619  0.13245239  0.74354868  1
  O  O217  1  0.99345639  0.62299251  0.24128976  1
  O  O218  1  0.99969492  0.64130318  0.74627214  1
  O  O219  1  0.36557710  0.25583438  0.00410038  1
  O  O220  1  0.37650189  0.25966894  0.50444034  1
  O  O221  1  0.36943269  0.75710310  0.00566040  1
  O  O222  1  0.37398695  0.74086841  0.50771639  1
  O  O223  1  0.88323131  0.25168377  0.01222168  1
  O  O224  1  0.87766852  0.26642417  0.50569641  1
  O  O225  1  0.86954255  0.75875561  0.00254852  1
  O  O226  1  0.87324951  0.75518020  0.50822217  1
  O  O227  1  0.11689325  0.23873770  0.49697446  1
  O  O228  1  0.13069723  0.23748933  1.00380484  1
  O  O229  1  0.12694290  0.75307320  0.48536546  1
  O  O230  1  0.13726738  0.74124177  1.00677622  1
  O  O231  1  0.63604723  0.25591626  0.49159456  1
  O  O232  1  0.61920810  0.24367939  0.99064138  1
  O  O233  1  0.62825091  0.74425083  0.48909614  1
  O  O234  1  0.63293993  0.74384431  0.99411251  1
  O  O235  1  0.48605784  0.23458580  0.11131071  1
  O  O236  1  0.50210973  0.24912948  0.63765716  1
  O  O237  1  0.48661674  0.73676213  0.11974723  1
  O  O238  1  0.48080674  0.74735553  0.62985416  1
  O  O239  1  0.99500758  0.24478164  0.13141557  1
  O  O240  1  0.99936964  0.24144186  0.63638185  1
  O  O241  1  1.00038218  0.73936133  0.12172348  1
  O  O242  1  0.99852749  0.75083900  0.63405493  1
  O  O243  1  -0.00259350  0.25937453  0.36911987  1
  O  O244  1  -0.00540111  0.25943605  0.85977864  1
  O  O245  1  0.01613069  0.74949271  0.37494245  1
  O  O246  1  0.00401470  0.76162386  0.86425318  1
  O  O247  1  0.46138234  0.25299837  0.36736015  1
  O  O248  1  0.50749077  0.25600414  0.86780850  1
  O  O249  1  0.50548860  0.75033168  0.36356516  1
  O  O250  1  0.50848104  0.76289701  0.86919234  1
  O  O251  1  0.23503439  0.11562860  0.48749584  1
  O  O252  1  0.23490144  0.13051921  1.00461822  1
  O  O253  1  0.24894120  0.61668906  0.48754126  1
  O  O254  1  0.24470194  0.63329995  0.99493602  1
  O  O255  1  0.73531444  0.13420529  0.49764614  1
  O  O256  1  0.74342369  0.12106221  0.98622680  1
  O  O257  1  0.74305299  0.63111340  0.49779484  1
  O  O258  1  0.74445103  0.63699445  1.00289217  1
  O  O259  1  0.25135104  0.36810473  0.00448368  1
  O  O260  1  0.25168637  0.37464423  0.51659577  1
  O  O261  1  0.25613316  0.86906457  0.00860293  1
  O  O262  1  0.26245368  0.88015935  0.51053929  1
  O  O263  1  0.75404804  0.37732457  0.01134095  1
  O  O264  1  0.76363297  0.36809587  0.50132253  1
  O  O265  1  0.76013179  0.87362920  0.00489158  1
  O  O266  1  0.75650028  0.86729860  0.50907655  1
  O  O267  1  0.12837791  0.49609704  0.24318493  1
  O  O268  1  0.13220613  0.49297885  0.74736560  1
  O  O269  1  0.13213724  0.98536086  0.25019429  1
  O  O270  1  0.13465050  1.01954892  0.74384965  1
  O  O271  1  0.62843624  0.51855174  0.22808290  1
  O  O272  1  0.61712820  0.48172124  0.75130735  1
  O  O273  1  0.63894642  1.00388001  0.23408879  1
  O  O274  1  0.62999045  0.99677006  0.75282524  1
  O  O275  1  0.35678825  -0.00694935  0.25046034  1
  O  O276  1  0.36939174  0.00270541  0.76803461  1
  O  O277  1  0.37114980  0.49718198  0.25819974  1
  O  O278  1  0.36919867  0.51062979  0.75570396  1
  O  O279  1  0.86894673  0.00452685  0.25433549  1
  O  O280  1  0.86824832  0.01261742  0.75218595  1
  O  O281  1  0.87821779  0.51079500  0.26027553  1
  O  O282  1  0.87953454  0.52368999  0.75057382  1
  O  O283  1  0.11477929  0.37263764  0.37293833  1
  O  O284  1  0.11805487  0.37910840  0.86118215  1
  O  O285  1  0.12577292  0.86192353  0.36774692  1
  O  O286  1  0.11604928  0.88221425  0.88509150  1
  O  O287  1  0.62193510  0.42410771  0.35774107  1
  O  O288  1  0.61513766  0.36902086  0.87599775  1
  O  O289  1  0.62493852  0.85777580  0.37112799  1
  O  O290  1  0.61732171  0.86681673  0.88139033  1
  O  O291  1  0.38378538  0.12929427  0.11546551  1
  O  O292  1  0.37742043  0.12644986  0.62063166  1
  O  O293  1  0.37232080  0.62985876  0.13154010  1
  O  O294  1  0.36947757  0.63422903  0.63315447  1
  O  O295  1  0.88470795  0.13237067  0.12793572  1
  O  O296  1  0.88265108  0.12061205  0.62989555  1
  O  O297  1  0.88588595  0.62720623  0.13355779  1
  O  O298  1  0.89011877  0.64041516  0.63521311  1
  O  O299  1  0.25304465  0.25330006  0.11584050  1
  O  O300  1  0.25615647  0.25052722  0.63698439  1
  O  O301  1  0.26155855  0.75337223  0.11766682  1
  O  O302  1  0.26153615  0.75983673  0.62567161  1
  O  O303  1  0.76213250  0.25913842  0.12513963  1
  O  O304  1  0.75127232  0.24595324  0.60538590  1
  O  O305  1  0.75081377  0.75948772  0.11449916  1
  O  O306  1  0.76194303  0.75246075  0.62114879  1
  O  O307  1  0.25291203  0.22815628  0.36650967  1
  O  O308  1  0.25274481  0.25387722  0.88804726  1
  O  O309  1  0.24174036  0.73364923  0.37202839  1
  O  O310  1  0.25460830  0.74879823  0.88741837  1
  O  O311  1  0.76930414  0.25018944  0.39409261  1
  O  O312  1  0.73720536  0.24260812  0.86903840  1
  O  O313  1  0.74235009  0.74707118  0.38171720  1
  O  O314  1  0.74406294  0.76257581  0.88916624  1
  O  O315  1  0.00738373  0.12176874  0.00520611  1
  O  O316  1  -0.00042074  0.11984827  0.50402822  1
  O  O317  1  0.01077199  0.62604927  0.00755705  1
  O  O318  1  -0.00436927  0.61738425  0.51235946  1
  O  O319  1  0.51393216  0.12106587  0.00474401  1
  O  O320  1  0.51527406  0.11598267  0.50866452  1
  O  O321  1  0.50676365  0.61559644  -0.00312820  1
  O  O322  1  0.50623364  0.61523761  0.50154761  1
  O  O323  1  0.48748225  0.38228049  0.50411631  1
  O  O324  1  0.49531202  0.38019772  0.99325700  1
  O  O325  1  0.48048820  0.86883251  0.49982942  1
  O  O326  1  0.49217912  0.86940789  0.99377309  1
  O  O327  1  0.99072375  0.38017829  0.49663217  1
  O  O328  1  1.00282121  0.37496439  0.98523517  1
  O  O329  1  0.99199635  0.88309613  0.49751377  1
  O  O330  1  0.99694125  0.88343697  0.99777568  1
  O  O331  1  0.47926104  0.50715182  0.38818419  1
  O  O332  1  0.49531492  0.49171274  0.87988536  1
  O  O333  1  0.51747053  0.95453475  0.30676358  1
  O  O334  1  0.49147953  0.98695060  0.87229275  1
  O  O335  1  0.99462960  0.49577976  0.38349048  1
  O  O336  1  0.99833334  0.48867313  0.87358123  1
  O  O337  1  0.99115905  0.99527492  0.38181637  1
  O  O338  1  0.99752769  0.99660054  0.88623539  1
  O  O339  1  0.00112725  0.00903639  0.11492755  1
  O  O340  1  -0.00255974  0.00603254  0.61491793  1
  O  O341  1  0.01202928  0.50821939  0.12397733  1
  O  O342  1  0.00334622  0.51277770  0.62053924  1
  O  O343  1  0.51080841  0.00698903  0.12783309  1
  O  O344  1  0.50631318  -0.01067529  0.64260606  1
  O  O345  1  0.50770242  0.49890280  0.11508096  1
  O  O346  1  0.49029938  0.50411303  0.61284854  1
  O  O347  1  0.23888147  0.38319303  0.24032105  1
  O  O348  1  0.24401301  0.37776631  0.74424724  1
  O  O349  1  0.24347203  0.88141718  0.24846554  1
  O  O350  1  0.26012868  0.87709970  0.73220620  1
  O  O351  1  0.74934675  0.38003276  0.23669674  1
  O  O352  1  0.73260930  0.37322261  0.74468818  1
  O  O353  1  0.73895861  0.88291252  0.24351944  1
  O  O354  1  0.75771887  0.88416420  0.74417861  1
  O  O355  1  0.24300115  0.10938667  0.26124786  1
  O  O356  1  0.26398757  0.13416222  0.73954385  1
  O  O357  1  0.25494935  0.61521668  0.25355133  1
  O  O358  1  0.25475848  0.62232978  0.75736292  1
  O  O359  1  0.75623751  0.11899183  0.25078949  1
  O  O360  1  0.75286477  0.12103455  0.75473166  1
  O  O361  1  0.76200728  0.62065559  0.25217416  1
  O  O362  1  0.77665553  0.65191256  0.76617915  1
  O  O363  1  0.35899658  0.11427823  0.38834714  1
  O  O364  1  0.38541242  0.10848290  0.88753911  1
  O  O365  1  0.36087688  0.61730646  0.36928112  1
  O  O366  1  0.36950468  0.62343701  0.86995621  1
  O  O367  1  0.87925443  0.11128609  0.36878191  1
  O  O368  1  0.86597959  0.12571764  0.86736406  1
  O  O369  1  0.87930636  0.62012910  0.36895857  1
  O  O370  1  0.89224698  0.62792971  0.86523644  1
  O  O371  1  0.12623433  0.38368240  0.12704889  1
  O  O372  1  0.13198478  0.37492286  0.63621790  1
  O  O373  1  0.13320560  0.87523250  0.13500545  1
  O  O374  1  0.14012711  0.87594263  0.61781415  1
  O  O375  1  0.63795400  0.38659258  0.11873323  1
  O  O376  1  0.61923638  0.37387177  0.63332326  1
  O  O377  1  0.62974350  0.88425333  0.12686654  1
  O  O378  1  0.62482041  0.86878689  0.62839817  1
  O  O379  1  0.11757562  0.25747364  0.25123616  1
  O  O380  1  0.11164873  0.25833146  0.75009277  1
  O  O381  1  0.13375215  0.76336966  0.25607587  1
  O  O382  1  0.11580044  0.75272471  0.74808571  1
  O  O383  1  0.63439838  0.24297151  0.26375737  1
  O  O384  1  0.61776664  0.25987629  0.75628664  1
  O  O385  1  0.61951876  0.74832036  0.25623007  1
  O  O386  1  0.62947185  0.73895852  0.76271977  1
  O  O387  1  0.36668659  0.25180972  0.22904741  1
  O  O388  1  0.38441602  0.24852268  0.75030207  1
  O  O389  1  0.37882260  0.74312607  0.24255805  1
  O  O390  1  0.37439078  0.73936986  0.74833562  1
  O  O391  1  0.88208533  0.24494898  0.24188073  1
  O  O392  1  0.87625410  0.23951550  0.74971218  1
  O  O393  1  0.87106026  0.73979218  0.25015136  1
  O  O394  1  0.89065794  0.74971095  0.74496196  1
  O  O395  1  0.37873037  0.49242134  0.49597770  1
  O  O396  1  0.37899924  0.49446670  0.99406789  1
  O  O397  1  0.38028187  0.99027701  0.49863050  1
  O  O398  1  0.37075742  0.98646202  0.99578998  1
  O  O399  1  0.88402733  0.49317893  0.49697192  1
  O  O400  1  0.88127605  0.49743215  0.99692507  1
  O  O401  1  0.87823881  0.99747898  0.49217245  1
  O  O402  1  0.88399353  0.99506690  0.99890166  1
  O  O403  1  0.11942469  0.01330846  0.00584357  1
  O  O404  1  0.11007796  0.00478576  0.49796788  1
  O  O405  1  0.12498006  0.50976010  0.00839192  1
  O  O406  1  0.10984511  0.49233910  0.50191449  1
  O  O407  1  0.63422804  0.00818867  0.01029312  1
  O  O408  1  0.63307387  0.00090538  0.50456125  1
  O  O409  1  0.62205673  0.50792651  0.00413792  1
  O  O410  1  0.61493439  0.50837706  0.50041815  1
  O  O411  1  0.36670591  0.36936882  0.11619166  1
  O  O412  1  0.36383946  0.37621391  0.62002402  1
  O  O413  1  0.37262429  0.86710361  0.11983839  1
  O  O414  1  0.36736550  0.86348397  0.61189585  1
  O  O415  1  0.87180013  0.36785098  0.12406174  1
  O  O416  1  0.87740919  0.38326562  0.61651460  1
  O  O417  1  0.87200308  0.87467624  0.11518469  1
  O  O418  1  0.87242409  0.86592522  0.62192573  1
  O  O419  1  0.12737134  0.12783601  0.38179904  1
  O  O420  1  0.11839109  0.12696862  0.88951754  1
  O  O421  1  0.13465275  0.63537816  0.37009567  1
  O  O422  1  0.13032044  0.62063180  0.88735772  1
  O  O423  1  0.61751570  0.11296560  0.39155524  1
  O  O424  1  0.62965329  0.13233006  0.88149146  1
  O  O425  1  0.62530028  0.63067418  0.38333851  1
  O  O426  1  0.62077740  0.63451880  0.88626901  1
