# generated using pymatgen
data_V85Zn86O256
_symmetry_space_group_name_H-M   'P 1'
_cell_length_a   16.92689185
_cell_length_b   16.91647036
_cell_length_c   16.92723437
_cell_angle_alpha   90.06330029
_cell_angle_beta   89.99754747
_cell_angle_gamma   89.97572284
_symmetry_Int_Tables_number   1
_chemical_formula_structural   V85Zn86O256
_chemical_formula_sum   'V85 Zn86 O256'
_cell_volume   4846.99614301
_cell_formula_units_Z   1
loop_
 _symmetry_equiv_pos_site_id
 _symmetry_equiv_pos_as_xyz
  1  'x, y, z'
loop_
 _atom_site_type_symbol
 _atom_site_label
 _atom_site_symmetry_multiplicity
 _atom_site_fract_x
 _atom_site_fract_y
 _atom_site_fract_z
 _atom_site_occupancy
  V  V0  1  0.62479178  0.75866127  0.87943496  1
  V  V1  1  0.86557632  0.87899607  0.50687125  1
  V  V2  1  0.87585946  0.37382132  0.50099536  1
  V  V3  1  -0.00201938  0.37490632  0.37229265  1
  V  V4  1  0.87560607  0.75264321  0.62715266  1
  V  V5  1  0.88012688  0.62570103  0.74893109  1
  V  V6  1  0.49098064  0.74635962  0.25079300  1
  V  V7  1  0.89274022  0.12683534  0.74620484  1
  V  V8  1  0.25388471  0.24308355  0.00124739  1
  V  V9  1  0.62919547  0.87953282  0.73582949  1
  V  V10  1  0.24638695  0.75711657  0.50702939  1
  V  V11  1  0.74895961  0.75690479  0.00324545  1
  V  V12  1  0.12428739  0.75298419  0.37462727  1
  V  V13  1  -0.00101031  0.49792458  0.00022703  1
  V  V14  1  0.74520751  0.62644906  0.87915617  1
  V  V15  1  0.62290375  0.37561926  0.23898857  1
  V  V16  1  0.50016466  0.37231715  0.37053240  1
  V  V17  1  0.75165244  -0.00258608  0.73595906  1
  V  V18  1  0.74204664  0.74709872  0.51267539  1
  V  V19  1  0.12640892  0.00100274  0.62425450  1
  V  V20  1  0.00283968  0.87836220  0.88418057  1
  V  V21  1  0.12708895  0.75093004  0.88429539  1
  V  V22  1  0.49273636  0.62525886  0.13123566  1
  V  V23  1  0.37525606  0.37990604  0.49820957  1
  V  V24  1  0.23492553  -0.00534030  0.24140387  1
  V  V25  1  -0.00237191  0.87772583  0.37725701  1
  V  V26  1  0.12576843  0.62329602  -0.00068378  1
  V  V27  1  0.12156239  0.37032903  0.24700049  1
  V  V28  1  0.74217333  0.62246603  0.38484430  1
  V  V29  1  0.12008492  0.11074171  0.00620642  1
  V  V30  1  0.25043766  0.49746959  0.74985941  1
  V  V31  1  0.87431240  0.50079259  0.87600160  1
  V  V32  1  0.37836168  0.13919448  0.24445340  1
  V  V33  1  0.50571692  0.50430148  -0.00104203  1
  V  V34  1  0.24835268  0.24811580  0.49825670  1
  V  V35  1  0.74916211  0.25238699  0.00068000  1
  V  V36  1  0.25359947  0.36626386  0.12479685  1
  V  V37  1  0.86489712  0.00382085  0.36614459  1
  V  V38  1  0.62411007  0.25120535  0.37385116  1
  V  V39  1  0.37824045  0.85544365  0.00260135  1
  V  V40  1  0.50179519  0.75812402  0.75509641  1
  V  V41  1  0.62936701  0.12289869  0.50028991  1
  V  V42  1  0.13510400  0.87293870  0.74479268  1
  V  V43  1  0.25202664  0.62645900  0.88153254  1
  V  V44  1  -0.00364554  0.62473148  0.12832586  1
  V  V45  1  0.50195467  0.00125748  0.50270244  1
  V  V46  1  0.63943121  -0.00926899  0.13217847  1
  V  V47  1  0.62209149  0.11582698  -0.00168939  1
  V  V48  1  0.50657980  0.12680838  0.62787332  1
  V  V49  1  0.37728030  0.36725881  0.00089430  1
  V  V50  1  0.74799929  0.12485371  0.35297989  1
  V  V51  1  0.75221191  0.12370947  0.86829995  1
  V  V52  1  0.37409324  0.00250241  0.36620538  1
  V  V53  1  0.12223883  0.50736058  0.62726288  1
  V  V54  1  0.11479398  0.12675474  0.50360074  1
  V  V55  1  -0.00387038  0.23789883  0.24582839  1
  V  V56  1  0.87207537  0.37434673  0.00597204  1
  V  V57  1  0.49953178  0.87611103  0.37335568  1
  V  V58  1  0.62865949  0.51217770  0.12193902  1
  V  V59  1  0.38085647  0.24940714  0.62661360  1
  V  V60  1  -0.00362869  0.75201756  0.25439546  1
  V  V61  1  0.75134279  0.37261204  0.62659152  1
  V  V62  1  0.25179251  0.11629847  0.87345661  1
  V  V63  1  0.37071124  0.76283992  0.62839579  1
  V  V64  1  -0.00024926  0.50810008  0.50325030  1
  V  V65  1  -0.00081558  0.36886264  0.86942040  1
  V  V66  1  0.00345143  0.75056943  0.74587560  1
  V  V67  1  0.87338382  0.75741203  0.12588160  1
  V  V68  1  0.12360648  0.24597801  0.86902089  1
  V  V69  1  0.50042824  0.37125542  0.87102201  1
  V  V70  1  0.37871125  0.62617870  0.74722740  1
  V  V71  1  0.37685695  0.49692663  0.87436347  1
  V  V72  1  0.74857109  0.49976510  0.24725819  1
  V  V73  1  0.25067527  0.37673658  0.62606960  1
  V  V74  1  0.62054179  0.74705938  0.38303818  1
  V  V75  1  0.87408255  0.50025533  0.37569844  1
  V  V76  1  0.12451332  0.50002064  0.12591514  1
  V  V77  1  0.87114655  0.23944996  0.12625224  1
  V  V78  1  0.89199387  0.24852594  0.62945192  1
  V  V79  1  0.50791021  0.50734110  0.50184693  1
  V  V80  1  0.61999139  0.24795026  0.86952690  1
  V  V81  1  0.87897869  -0.00054549  0.87905739  1
  V  V82  1  0.62158162  0.37325753  0.74684815  1
  V  V83  1  0.37790077  0.12499457  0.74990235  1
  V  V84  1  0.25468180  0.50264322  0.25400895  1
  Zn  Zn85  1  0.12180917  0.24688842  0.37407838  1
  Zn  Zn86  1  0.87776500  0.88382710  0.00857370  1
  Zn  Zn87  1  0.50004105  0.13185902  0.13063987  1
  Zn  Zn88  1  0.63405707  0.87866846  0.25036514  1
  Zn  Zn89  1  0.63114857  0.50697622  0.62291771  1
  Zn  Zn90  1  0.36987121  0.88247869  0.50483093  1
  Zn  Zn91  1  -0.00335885  0.10759860  0.12404773  1
  Zn  Zn92  1  -0.00740168  0.00544061  0.50688726  1
  Zn  Zn93  1  0.74991049  0.50115282  0.74970800  1
  Zn  Zn94  1  0.49939619  -0.00983335  0.00194368  1
  Zn  Zn95  1  0.25898711  -0.00763299  0.74070788  1
  Zn  Zn96  1  0.24700250  0.12187150  0.37452061  1
  Zn  Zn97  1  0.38962576  -0.01202334  0.87611080  1
  Zn  Zn98  1  0.38140618  0.50826298  0.36849334  1
  Zn  Zn99  1  0.25472964  0.86298689  0.12251773  1
  Zn  Zn100  1  0.87187357  0.62309288  0.25256378  1
  Zn  Zn101  1  0.50760691  0.63212375  0.62039821  1
  Zn  Zn102  1  0.75498985  0.24759410  0.49933978  1
  Zn  Zn103  1  0.12068919  0.36880752  0.74659710  1
  Zn  Zn104  1  0.25132311  0.62967316  0.37565363  1
  Zn  Zn105  1  0.12304234  0.62961646  0.50382642  1
  Zn  Zn106  1  0.31999511  0.68138585  0.19291609  1
  Zn  Zn107  1  0.19016664  0.18089152  0.18827357  1
  Zn  Zn108  1  0.18953866  0.18370147  0.68538503  1
  Zn  Zn109  1  0.13979877  0.74552243  0.14723541  1
  Zn  Zn110  1  0.19106632  0.68651823  0.69044833  1
  Zn  Zn111  1  0.66045259  0.19992370  0.17409867  1
  Zn  Zn112  1  0.69258320  0.18958061  0.68603013  1
  Zn  Zn113  1  0.70060691  0.71528957  0.20739943  1
  Zn  Zn114  1  0.68758556  0.68589908  0.69175558  1
  Zn  Zn115  1  0.31029400  0.31593490  0.31588176  1
  Zn  Zn116  1  0.31206995  0.30656201  0.81197019  1
  Zn  Zn117  1  0.30961801  0.81927164  0.31603474  1
  Zn  Zn118  1  0.31454648  0.81149541  0.82223220  1
  Zn  Zn119  1  0.80800158  0.31170512  0.30857985  1
  Zn  Zn120  1  0.81322985  0.31044104  0.81110359  1
  Zn  Zn121  1  0.81054407  0.81382481  0.31870315  1
  Zn  Zn122  1  0.81136789  0.81577094  0.81407201  1
  Zn  Zn123  1  0.18301052  0.43542624  0.43733818  1
  Zn  Zn124  1  0.18722599  0.43403863  0.93711843  1
  Zn  Zn125  1  0.18673599  0.93785755  0.43677338  1
  Zn  Zn126  1  0.19997744  0.93218876  0.93826320  1
  Zn  Zn127  1  0.68767802  0.43441034  0.43785715  1
  Zn  Zn128  1  0.68772816  0.43723586  0.93654266  1
  Zn  Zn129  1  0.68665375  0.93683842  0.44017838  1
  Zn  Zn130  1  0.69017033  0.93610494  0.93307542  1
  Zn  Zn131  1  0.31836856  0.05524188  0.06621313  1
  Zn  Zn132  1  0.31030922  0.06183288  0.56035024  1
  Zn  Zn133  1  0.31334660  0.55396623  0.06071494  1
  Zn  Zn134  1  0.31272404  0.56953783  0.56054802  1
  Zn  Zn135  1  0.80458974  0.06237016  0.06211390  1
  Zn  Zn136  1  0.81445459  0.06850542  0.56138267  1
  Zn  Zn137  1  0.80972197  0.56737707  0.06195435  1
  Zn  Zn138  1  0.81391880  0.56400303  0.56671030  1
  Zn  Zn139  1  0.43817816  0.43292117  0.18354463  1
  Zn  Zn140  1  0.44035517  0.43713641  0.68625608  1
  Zn  Zn141  1  0.44474281  0.93984824  0.17786918  1
  Zn  Zn142  1  0.44519841  0.94099098  0.68953222  1
  Zn  Zn143  1  0.93388656  0.43409131  0.18632130  1
  Zn  Zn144  1  0.93769084  0.43818695  0.68781737  1
  Zn  Zn145  1  0.93345203  0.93799107  0.19334057  1
  Zn  Zn146  1  0.94350126  0.93763071  0.69091203  1
  Zn  Zn147  1  0.05934079  0.06134434  0.31915116  1
  Zn  Zn148  1  0.06756512  0.05808778  0.81285941  1
  Zn  Zn149  1  0.06606627  0.56529449  0.31371831  1
  Zn  Zn150  1  0.06141154  0.56053189  0.81167468  1
  Zn  Zn151  1  0.56190085  0.06184472  0.30765557  1
  Zn  Zn152  1  0.56420982  0.05738382  0.80958069  1
  Zn  Zn153  1  0.56208888  0.56430614  0.31341281  1
  Zn  Zn154  1  0.56583598  0.56380268  0.80904797  1
  Zn  Zn155  1  0.43770219  0.18688974  0.43428298  1
  Zn  Zn156  1  0.44017102  0.17812954  0.93545525  1
  Zn  Zn157  1  0.42662076  0.68742585  0.43662968  1
  Zn  Zn158  1  0.44287205  0.68606254  0.93713541  1
  Zn  Zn159  1  0.93407057  0.18738918  0.43402921  1
  Zn  Zn160  1  0.93893218  0.18547339  0.93716250  1
  Zn  Zn161  1  0.93162878  0.68723487  0.44028321  1
  Zn  Zn162  1  0.93826021  0.69048191  0.93844164  1
  Zn  Zn163  1  0.06231869  0.30482983  0.05913359  1
  Zn  Zn164  1  0.06418472  0.31928610  0.56142722  1
  Zn  Zn165  1  0.07178919  0.93021323  0.07605744  1
  Zn  Zn166  1  0.05946132  0.81799191  0.56290118  1
  Zn  Zn167  1  0.56150831  0.30952090  0.06052921  1
  Zn  Zn168  1  0.56291198  0.31281667  0.55872667  1
  Zn  Zn169  1  0.55915550  0.81016520  0.06372485  1
  Zn  Zn170  1  0.55703042  0.81368396  0.56409068  1
  O  O171  1  0.12392142  0.12746676  0.10824781  1
  O  O172  1  0.12630308  0.11363714  0.61943567  1
  O  O173  1  0.11068744  0.62508846  0.11723733  1
  O  O174  1  0.12787518  0.61156060  0.62700779  1
  O  O175  1  0.64208581  0.10693731  0.10808629  1
  O  O176  1  0.61726537  0.13621888  0.61484836  1
  O  O177  1  0.61279334  0.61306415  0.12943529  1
  O  O178  1  0.61936109  0.61901281  0.63624179  1
  O  O179  1  0.38238501  0.37908532  0.38237293  1
  O  O180  1  0.38110627  0.37618424  0.87836382  1
  O  O181  1  0.38685149  0.88369180  0.37882855  1
  O  O182  1  0.37639986  0.87342419  0.89011288  1
  O  O183  1  0.87776717  0.38111096  0.37965913  1
  O  O184  1  0.88150489  0.37835392  0.88210429  1
  O  O185  1  0.87301659  0.88502662  0.38502437  1
  O  O186  1  0.88566853  0.88345827  0.87202994  1
  O  O187  1  0.25875378  -0.00003076  0.36884814  1
  O  O188  1  0.25240886  0.01099171  0.86847340  1
  O  O189  1  0.24559001  0.49429806  0.36007841  1
  O  O190  1  0.25577811  0.50295396  0.86849455  1
  O  O191  1  0.75672810  0.00811512  0.37819640  1
  O  O192  1  0.75752313  0.00758143  0.86447515  1
  O  O193  1  0.75302655  0.50591395  0.37272707  1
  O  O194  1  0.75582517  0.50826220  0.87350925  1
  O  O195  1  0.24341719  0.48699138  0.13256130  1
  O  O196  1  0.24594230  0.49674755  0.63011438  1
  O  O197  1  0.24829297  1.00137075  0.13985437  1
  O  O198  1  0.23584763  0.99993109  0.62395743  1
  O  O199  1  0.74260187  0.50793989  0.13454107  1
  O  O200  1  0.75181853  0.48684698  0.62739407  1
  O  O201  1  0.74016866  0.99010261  0.12076562  1
  O  O202  1  0.75479086  1.00533180  0.63681286  1
  O  O203  1  0.00907759  0.36906459  0.24987262  1
  O  O204  1  0.00052522  0.37939036  0.76549580  1
  O  O205  1  -0.01195836  0.86586139  0.26871977  1
  O  O206  1  0.01262128  0.86698081  0.75870507  1
  O  O207  1  0.50833607  0.38263843  0.26080256  1
  O  O208  1  0.50807646  0.37683749  0.75805858  1
  O  O209  1  0.50404230  0.86655506  0.25861952  1
  O  O210  1  0.51475831  0.87071838  0.74977300  1
  O  O211  1  0.48251060  0.12617407  0.25531974  1
  O  O212  1  0.49671706  0.12278286  0.73430335  1
  O  O213  1  0.49729779  0.62840408  0.24293497  1
  O  O214  1  0.48799299  0.63089970  0.75247623  1
  O  O215  1  1.00216209  0.13501544  0.24762910  1
  O  O216  1  0.99156939  0.12275059  0.75434921  1
  O  O217  1  0.99593487  0.62740620  0.24387051  1
  O  O218  1  0.98875699  0.63421334  0.75806276  1
  O  O219  1  0.36211517  0.25005813  -0.00639207  1
  O  O220  1  0.36892444  0.26011191  0.50413012  1
  O  O221  1  0.37912578  0.75427406  0.00007381  1
  O  O222  1  0.36748489  0.75472367  0.51286772  1
  O  O223  1  0.86919261  0.25494352  0.00291110  1
  O  O224  1  0.87702849  0.25654503  0.50897597  1
  O  O225  1  0.87133657  0.75270097  0.00921435  1
  O  O226  1  0.86695359  0.75549275  0.51022972  1
  O  O227  1  0.13164658  0.24497541  0.50285767  1
  O  O228  1  0.13659277  0.24212883  0.98975580  1
  O  O229  1  0.12818851  0.75054700  0.49676171  1
  O  O230  1  0.11948652  0.73730419  0.98516739  1
  O  O231  1  0.62806983  0.24535082  0.48841653  1
  O  O232  1  0.63566381  0.24630059  0.98667786  1
  O  O233  1  0.62885448  0.75402944  0.49484196  1
  O  O234  1  0.63374648  0.75294270  0.99143511  1
  O  O235  1  0.55097674  0.23530213  0.14052290  1
  O  O236  1  0.48789956  0.24361615  0.61581068  1
  O  O237  1  0.50630756  0.73683762  0.13839886  1
  O  O238  1  0.49186723  0.75027740  0.63803659  1
  O  O239  1  0.99045754  0.24574079  0.12989992  1
  O  O240  1  0.99107855  0.26162650  0.62823682  1
  O  O241  1  0.99161314  0.73993641  0.13778589  1
  O  O242  1  0.99451362  0.75301395  0.63839793  1
  O  O243  1  -0.00373618  0.25706562  0.36344673  1
  O  O244  1  0.00987724  0.25750873  0.88117118  1
  O  O245  1  -0.00068189  0.75567504  0.37373494  1
  O  O246  1  0.00749550  0.75613452  0.86573568  1
  O  O247  1  0.50868081  0.26221408  0.38038958  1
  O  O248  1  0.51338258  0.25275502  0.87678182  1
  O  O249  1  0.50302522  0.75778212  0.37932975  1
  O  O250  1  0.51022374  0.74340452  0.86252700  1
  O  O251  1  0.24082636  0.13453241  0.49961058  1
  O  O252  1  0.24354472  0.12753445  0.99406635  1
  O  O253  1  0.24515933  0.64018960  0.49957250  1
  O  O254  1  0.24396070  0.61222807  0.98849322  1
  O  O255  1  0.73714009  0.12595260  0.49619466  1
  O  O256  1  0.74432696  0.13121771  0.98428319  1
  O  O257  1  0.75334810  0.63338764  0.49681515  1
  O  O258  1  0.75648680  0.63364648  0.98409161  1
  O  O259  1  0.25424378  0.36562906  0.00628276  1
  O  O260  1  0.25636240  0.37107527  0.50543582  1
  O  O261  1  0.26932468  0.87407902  0.00228997  1
  O  O262  1  0.25226262  0.86283491  0.49632027  1
  O  O263  1  0.76036113  0.36470825  -0.00966469  1
  O  O264  1  0.75842541  0.37369129  0.50771454  1
  O  O265  1  0.75782259  0.86061709  -0.00720032  1
  O  O266  1  0.75852896  0.86518934  0.49884967  1
  O  O267  1  0.13050904  0.49043444  0.24406334  1
  O  O268  1  0.13045988  0.49623693  0.74403349  1
  O  O269  1  0.13621208  1.00471244  0.25585907  1
  O  O270  1  0.12987809  0.99179026  0.74039368  1
  O  O271  1  0.63044050  0.49600269  0.24411133  1
  O  O272  1  0.62846918  0.48526149  0.75012328  1
  O  O273  1  0.62861860  0.99807895  0.23880606  1
  O  O274  1  0.63452209  0.98756485  0.75062240  1
  O  O275  1  0.37588781  0.00476662  0.25968049  1
  O  O276  1  0.37665551  0.01091367  0.75180992  1
  O  O277  1  0.35734178  0.48518449  0.25016261  1
  O  O278  1  0.37309408  0.50715253  0.75445782  1
  O  O279  1  0.86760712  -0.00382841  0.26742319  1
  O  O280  1  0.87019758  0.00648498  0.75534175  1
  O  O281  1  0.86610010  0.49901915  0.25565520  1
  O  O282  1  0.87530824  0.50964878  0.75583540  1
  O  O283  1  0.11643367  0.37062787  0.36480722  1
  O  O284  1  0.11748942  0.36462731  0.87513306  1
  O  O285  1  0.11025596  0.86491616  0.38382982  1
  O  O286  1  0.12270712  0.86694967  0.87110245  1
  O  O287  1  0.61762971  0.37054059  0.37034589  1
  O  O288  1  0.62132355  0.36707521  0.86753100  1
  O  O289  1  0.61496149  0.86771870  0.37587581  1
  O  O290  1  0.63092196  0.86233758  0.86440427  1
  O  O291  1  0.37720492  0.12692659  0.13982791  1
  O  O292  1  0.38111689  0.13157645  0.62816003  1
  O  O293  1  0.38664798  0.61249343  0.12627191  1
  O  O294  1  0.37853624  0.63520491  0.63469649  1
  O  O295  1  0.87656329  0.13594358  0.11532636  1
  O  O296  1  0.87500791  0.13638961  0.63287634  1
  O  O297  1  0.88679395  0.62707626  0.12538783  1
  O  O298  1  0.87310796  0.63881569  0.63552931  1
  O  O299  1  0.24302890  0.25877921  0.11693342  1
  O  O300  1  0.25903598  0.25441260  0.61551184  1
  O  O301  1  0.25140817  0.74615823  0.13729731  1
  O  O302  1  0.25821262  0.74865563  0.62115534  1
  O  O303  1  0.75432190  0.24704936  0.10830748  1
  O  O304  1  0.75908003  0.26130868  0.62205196  1
  O  O305  1  0.76325977  0.72879711  0.11056479  1
  O  O306  1  0.75674812  0.74786827  0.61821863  1
  O  O307  1  0.24620372  0.25282575  0.38939606  1
  O  O308  1  0.24393425  0.23915714  0.88163492  1
  O  O309  1  0.23806863  0.75329348  0.38056617  1
  O  O310  1  0.24038151  0.73514227  0.86870705  1
  O  O311  1  0.74644496  0.24136960  0.37925222  1
  O  O312  1  0.74510980  0.24231883  0.87914065  1
  O  O313  1  0.74082103  0.74069329  0.39155848  1
  O  O314  1  0.74534568  0.74463451  0.88103234  1
  O  O315  1  0.01766908  0.12658388  -0.00189011  1
  O  O316  1  0.01083931  0.12699784  0.49747428  1
  O  O317  1  0.00363935  0.61667773  0.00527837  1
  O  O318  1  -0.00071108  0.61183056  0.49800375  1
  O  O319  1  0.51858599  0.13567031  0.00569417  1
  O  O320  1  0.50889314  0.12168682  0.50478806  1
  O  O321  1  0.49744216  0.60937000  0.00637445  1
  O  O322  1  0.49301472  0.60961014  0.50007297  1
  O  O323  1  0.49222839  0.38217410  0.49282014  1
  O  O324  1  0.49767525  0.37890914  0.99299650  1
  O  O325  1  0.49744433  0.88594751  0.49451698  1
  O  O326  1  0.48756848  0.87249847  1.00242031  1
  O  O327  1  0.99477943  0.38424171  0.49203997  1
  O  O328  1  0.99377371  0.37848797  0.99189954  1
  O  O329  1  0.98326350  0.87443576  0.49199386  1
  O  O330  1  0.99911978  0.87482378  0.98604678  1
  O  O331  1  0.50030099  0.49186517  0.38561026  1
  O  O332  1  0.49800850  0.49469111  0.88133449  1
  O  O333  1  0.49560465  0.99446187  0.38065419  1
  O  O334  1  0.49854666  1.02127426  0.88858116  1
  O  O335  1  0.99493406  0.49516654  0.38020690  1
  O  O336  1  0.99425971  0.49310126  0.88244711  1
  O  O337  1  0.98504677  0.99446857  0.38035111  1
  O  O338  1  0.99233879  0.99024395  0.86737987  1
  O  O339  1  -0.00623391  -0.00486026  0.12152903  1
  O  O340  1  0.01688253  -0.00496238  0.62272272  1
  O  O341  1  0.00466835  0.50423093  0.12134484  1
  O  O342  1  0.00976070  0.49242289  0.61581468  1
  O  O343  1  0.51655353  0.01160061  0.12112681  1
  O  O344  1  0.49594102  0.01134232  0.61122175  1
  O  O345  1  0.50633473  0.50247206  0.11758013  1
  O  O346  1  0.50008216  0.49826718  0.60960137  1
  O  O347  1  0.23810943  0.37552618  0.24314510  1
  O  O348  1  0.25094491  0.38032473  0.74388961  1
  O  O349  1  0.25398172  0.89240956  0.24988091  1
  O  O350  1  0.23878645  0.87289699  0.75711765  1
  O  O351  1  0.73906811  0.39157593  0.25685564  1
  O  O352  1  0.74457117  0.37639881  0.74261922  1
  O  O353  1  0.73282161  0.82358419  0.24258547  1
  O  O354  1  0.74010375  0.88260683  0.75074408  1
  O  O355  1  0.25973590  0.11487765  0.25325989  1
  O  O356  1  0.26010691  0.12253135  0.75588698  1
  O  O357  1  0.24639869  0.60438244  0.24873812  1
  O  O358  1  0.26180353  0.61851643  0.75855080  1
  O  O359  1  0.73905997  0.13581457  0.25575295  1
  O  O360  1  0.75455626  0.11894200  0.75705460  1
  O  O361  1  0.74888661  0.61630698  0.26309544  1
  O  O362  1  0.76457258  0.62705100  0.76115301  1
  O  O363  1  0.37055889  0.11945192  0.36867834  1
  O  O364  1  0.36653510  0.13108832  0.86266653  1
  O  O365  1  0.36483514  0.61896783  0.37522458  1
  O  O366  1  0.36867729  0.61863986  0.87041744  1
  O  O367  1  0.86336635  0.11280220  0.37941926  1
  O  O368  1  0.87049485  0.12049852  0.86696718  1
  O  O369  1  0.86263000  0.61651378  0.37689716  1
  O  O370  1  0.87093596  0.62000664  0.87002391  1
  O  O371  1  0.12934825  0.37740924  0.12945853  1
  O  O372  1  0.13413006  0.38485878  0.62730320  1
  O  O373  1  0.13778034  0.85594111  0.11877571  1
  O  O374  1  0.12409543  0.88341802  0.63345481  1
  O  O375  1  0.62120553  0.38781786  0.13656280  1
  O  O376  1  0.63229867  0.37376314  0.63096107  1
  O  O377  1  0.61989598  0.88794576  0.12565737  1
  O  O378  1  0.62605043  0.87247317  0.63692043  1
  O  O379  1  0.11676620  0.25457121  0.24836770  1
  O  O380  1  0.13282019  0.24885117  0.76400392  1
  O  O381  1  0.10390519  0.74664530  0.26177890  1
  O  O382  1  0.11939646  0.75340444  0.75528433  1
  O  O383  1  0.63844505  0.26596009  0.26748024  1
  O  O384  1  0.63227340  0.26145127  0.75724374  1
  O  O385  1  0.60579001  0.73930515  0.27332699  1
  O  O386  1  0.62022593  0.76175445  0.75409570  1
  O  O387  1  0.36670298  0.23793254  0.25444695  1
  O  O388  1  0.37217963  0.23881566  0.73762677  1
  O  O389  1  0.38605208  0.74959846  0.26203948  1
  O  O390  1  0.38174659  0.74599724  0.74798017  1
  O  O391  1  0.88179341  0.25946890  0.23595290  1
  O  O392  1  0.87262050  0.23912087  0.74222500  1
  O  O393  1  0.88203132  0.74296691  0.24690064  1
  O  O394  1  0.88207614  0.74752071  0.74633795  1
  O  O395  1  0.37977313  0.48887548  0.50181679  1
  O  O396  1  0.38375636  0.48838631  0.99178785  1
  O  O397  1  0.38263211  1.00375556  0.48795125  1
  O  O398  1  0.38037625  0.99984005  0.99392893  1
  O  O399  1  0.88204197  0.49429211  0.49773369  1
  O  O400  1  0.87755022  0.49184487  0.99677353  1
  O  O401  1  0.87308062  0.99283899  0.49675007  1
  O  O402  1  0.86724658  1.00123645  0.98300088  1
  O  O403  1  0.12853357  0.00786021  -0.00461407  1
  O  O404  1  0.12249062  0.00751691  0.50784735  1
  O  O405  1  0.12005504  0.50337745  0.00618647  1
  O  O406  1  0.11739982  0.50123344  0.50758477  1
  O  O407  1  0.62818002  0.00397876  0.00185649  1
  O  O408  1  0.61472629  0.01049664  0.49363192  1
  O  O409  1  0.61773586  0.49306956  0.00881771  1
  O  O410  1  0.61069569  0.49358747  0.50191283  1
  O  O411  1  0.36512120  0.37413095  0.11571058  1
  O  O412  1  0.37150678  0.36781968  0.61918736  1
  O  O413  1  0.37427228  0.87857084  0.11148642  1
  O  O414  1  0.37875541  0.86681176  0.62795523  1
  O  O415  1  0.87839140  0.36589291  0.11033810  1
  O  O416  1  0.86943426  0.36934141  0.62261592  1
  O  O417  1  0.87596888  0.86050049  0.12645268  1
  O  O418  1  0.87945397  0.86370219  0.62142117  1
  O  O419  1  0.12704526  0.12812675  0.38674384  1
  O  O420  1  0.13272421  0.12789005  0.88202276  1
  O  O421  1  0.12674897  0.63891066  0.37966376  1
  O  O422  1  0.13274466  0.62752437  0.87756053  1
  O  O423  1  0.62912424  0.13278715  0.37829402  1
  O  O424  1  0.63483763  0.13196699  0.87443573  1
  O  O425  1  0.63389742  0.62881405  0.38090286  1
  O  O426  1  0.63704715  0.63850518  0.86295422  1
