# generated using pymatgen
data_V85Zn86O256
_symmetry_space_group_name_H-M   'P 1'
_cell_length_a   16.93585869
_cell_length_b   16.93498890
_cell_length_c   16.94793490
_cell_angle_alpha   90.02019278
_cell_angle_beta   89.96840494
_cell_angle_gamma   89.98062278
_symmetry_Int_Tables_number   1
_chemical_formula_structural   V85Zn86O256
_chemical_formula_sum   'V85 Zn86 O256'
_cell_volume   4860.81180545
_cell_formula_units_Z   1
loop_
 _symmetry_equiv_pos_site_id
 _symmetry_equiv_pos_as_xyz
  1  'x, y, z'
loop_
 _atom_site_type_symbol
 _atom_site_label
 _atom_site_symmetry_multiplicity
 _atom_site_fract_x
 _atom_site_fract_y
 _atom_site_fract_z
 _atom_site_occupancy
  V  V0  1  0.87673853  0.87152011  -0.00011119  1
  V  V1  1  0.75170192  0.12722297  0.37400356  1
  V  V2  1  0.24245883  0.74156078  0.50395273  1
  V  V3  1  0.74823124  0.63158319  0.38477638  1
  V  V4  1  -0.00255287  0.74555169  0.74959502  1
  V  V5  1  0.87266723  0.37511379  -0.00039816  1
  V  V6  1  0.01463050  0.62145608  0.11956891  1
  V  V7  1  0.61745710  0.12582871  0.50437836  1
  V  V8  1  -0.00226777  0.37891300  0.87274661  1
  V  V9  1  0.37724273  0.49993633  0.87139406  1
  V  V10  1  0.87664352  0.24751365  0.13827289  1
  V  V11  1  0.50451747  0.12480701  0.12263994  1
  V  V12  1  0.87623710  0.49999555  0.37044705  1
  V  V13  1  0.87357479  0.62753583  0.24783451  1
  V  V14  1  0.00478122  0.50195369  0.49257336  1
  V  V15  1  0.12939002  0.49989896  0.61288035  1
  V  V16  1  0.00099482  0.00596303  -0.00050831  1
  V  V17  1  0.37719418  0.50969328  0.38196415  1
  V  V18  1  0.13023793  0.37297608  0.74198966  1
  V  V19  1  -0.00153814  -0.00168057  0.50163557  1
  V  V20  1  0.74632929  0.25217709  0.50451998  1
  V  V21  1  0.25173605  0.49699595  0.74202729  1
  V  V22  1  0.75171933  0.87219293  0.12509404  1
  V  V23  1  0.36514606  0.37157558  0.00217308  1
  V  V24  1  0.68580447  0.07714778  -0.06035899  1
  V  V25  1  0.75004153  0.37831261  0.12624512  1
  V  V26  1  0.37650873  0.11828955  0.25504822  1
  V  V27  1  0.49559072  0.75060047  0.74533795  1
  V  V28  1  0.50331641  0.37671394  0.87535729  1
  V  V29  1  0.37008508  0.87641283  0.00507582  1
  V  V30  1  0.37575664  0.38001063  0.50543365  1
  V  V31  1  0.12506827  0.87209754  0.74982651  1
  V  V32  1  0.74739750  0.87833172  0.62836775  1
  V  V33  1  0.62875661  0.00575926  0.12542287  1
  V  V34  1  0.49991924  0.25180836  0.24920916  1
  V  V35  1  -0.00078642  0.12459363  0.62656083  1
  V  V36  1  0.63215537  0.38836398  0.74534196  1
  V  V37  1  0.87159378  0.25092563  0.62707073  1
  V  V38  1  0.62056919  0.64309084  0.00305621  1
  V  V39  1  0.50229015  0.24840523  0.74546399  1
  V  V40  1  0.50270960  0.50298541  0.00817965  1
  V  V41  1  0.22992178  0.62677139  0.37482559  1
  V  V42  1  0.62779392  0.74906388  0.38647361  1
  V  V43  1  0.13124488  0.12665781  0.50170566  1
  V  V44  1  0.19794023  0.17891140  0.32535764  1
  V  V45  1  0.74830782  0.64241793  0.88343516  1
  V  V46  1  0.62923056  0.24953881  0.87868243  1
  V  V47  1  0.38375193  0.62583077  0.24623235  1
  V  V48  1  0.81522682  0.56895745  0.71112168  1
  V  V49  1  0.37497785  0.12573062  0.74284134  1
  V  V50  1  0.12523324  0.74250717  0.88478408  1
  V  V51  1  0.86080347  0.11888897  0.75676997  1
  V  V52  1  0.36168232  0.00071410  0.37739947  1
  V  V53  1  0.24684523  0.25474923  0.50573318  1
  V  V54  1  0.12847170  0.25075442  0.88079845  1
  V  V55  1  0.12513840  -0.00336626  0.62620126  1
  V  V56  1  0.49721719  0.86077081  0.87757627  1
  V  V57  1  0.25915668  0.86875342  0.62528894  1
  V  V58  1  0.37421981  0.00076214  0.87305370  1
  V  V59  1  0.86924396  0.74904579  0.62652742  1
  V  V60  1  0.37557444  0.25225030  0.62384132  1
  V  V61  1  0.62132050  0.37859573  0.24806701  1
  V  V62  1  0.75584475  0.00511828  0.25013456  1
  V  V63  1  -0.00258819  0.12729471  0.14423951  1
  V  V64  1  0.87456521  0.74779815  0.12298273  1
  V  V65  1  0.50024272  0.87780781  0.37497581  1
  V  V66  1  0.51669645  0.62662644  0.61936017  1
  V  V67  1  0.86735780  0.87103047  0.50082801  1
  V  V68  1  0.74930796  0.24840130  -0.00102427  1
  V  V69  1  0.50187375  0.00529751  -0.00425783  1
  V  V70  1  0.62616475  0.87559547  0.75443913  1
  V  V71  1  0.13299366  0.00315885  0.13127358  1
  V  V72  1  0.25095036  0.12825237  0.87913402  1
  V  V73  1  0.37446654  0.62724331  0.73821204  1
  V  V74  1  0.51806872  0.50286327  0.50482319  1
  V  V75  1  0.00002147  0.86460432  0.37583311  1
  V  V76  1  0.00360169  0.62244792  0.62767508  1
  V  V77  1  0.62018891  0.00307437  0.62762521  1
  V  V78  1  0.86581927  0.50397295  0.87731151  1
  V  V79  1  0.00028763  0.24643344  0.75007689  1
  V  V80  1  0.13431931  0.87298781  0.25794941  1
  V  V81  1  -0.00028204  0.87651417  0.87606395  1
  V  V82  1  0.00033531  0.35986476  0.36842272  1
  V  V83  1  0.36743367  0.24862643  0.12007481  1
  V  V84  1  0.87259912  -0.00029886  0.37542100  1
  Zn  Zn85  1  0.24468844  0.62055102  0.87878014  1
  Zn  Zn86  1  0.74604406  0.50386493  0.25043361  1
  Zn  Zn87  1  0.15603299  0.46030708  0.11269752  1
  Zn  Zn88  1  0.24601459  0.74490249  0.00941084  1
  Zn  Zn89  1  0.00488300  0.74718269  0.25296206  1
  Zn  Zn90  1  0.62333597  0.25089790  0.37516069  1
  Zn  Zn91  1  0.87355707  0.37421184  0.49981200  1
  Zn  Zn92  1  0.62215287  0.50980538  0.12596064  1
  Zn  Zn93  1  0.50765871  0.74475255  0.24804620  1
  Zn  Zn94  1  0.62594816  0.87297759  0.25028167  1
  Zn  Zn95  1  0.25025465  -0.00134544  0.74961863  1
  Zn  Zn96  1  0.37703147  0.75057250  0.12961722  1
  Zn  Zn97  1  0.01299912  0.50725456  -0.00313348  1
  Zn  Zn98  1  0.12533938  0.36950596  0.25205005  1
  Zn  Zn99  1  0.12688126  0.12517348  0.00008089  1
  Zn  Zn100  1  0.86141091  0.00079025  0.87458281  1
  Zn  Zn101  1  0.50211944  0.37872401  0.37661598  1
  Zn  Zn102  1  0.37560992  0.87061646  0.50120896  1
  Zn  Zn103  1  0.25141728  0.87592801  0.13129531  1
  Zn  Zn104  1  0.49567522  0.00285681  0.50131145  1
  Zn  Zn105  1  0.74788342  0.39278373  0.62548886  1
  Zn  Zn106  1  0.25053262  0.49459653  0.24273641  1
  Zn  Zn107  1  0.16179115  0.23158851  0.15124556  1
  Zn  Zn108  1  0.19117724  0.18760637  0.68729348  1
  Zn  Zn109  1  0.19459057  0.69190579  0.19393883  1
  Zn  Zn110  1  0.18671908  0.68513987  0.68780784  1
  Zn  Zn111  1  0.68908718  0.18950487  0.18833644  1
  Zn  Zn112  1  0.68434299  0.18940130  0.68825948  1
  Zn  Zn113  1  0.68696141  0.69088229  0.18976402  1
  Zn  Zn114  1  0.68252504  0.69919482  0.68920422  1
  Zn  Zn115  1  0.32196511  0.31637455  0.31335437  1
  Zn  Zn116  1  0.31212869  0.31417980  0.81258947  1
  Zn  Zn117  1  0.31211383  0.80643356  0.32235228  1
  Zn  Zn118  1  0.31171290  0.81031316  0.81447459  1
  Zn  Zn119  1  0.81059418  0.31491182  0.31444315  1
  Zn  Zn120  1  0.81005731  0.31133995  0.81166434  1
  Zn  Zn121  1  0.81083656  0.81172038  0.30993242  1
  Zn  Zn122  1  0.81359096  0.81435682  0.80930706  1
  Zn  Zn123  1  0.20270110  0.41965783  0.40632822  1
  Zn  Zn124  1  0.18808251  0.43772482  0.93117148  1
  Zn  Zn125  1  0.18673324  0.93320080  0.44156131  1
  Zn  Zn126  1  0.18730252  0.93836612  0.93786679  1
  Zn  Zn127  1  0.69142741  0.43587040  0.43296753  1
  Zn  Zn128  1  0.68640659  0.44166765  0.93726791  1
  Zn  Zn129  1  0.68497426  0.93700895  0.44022103  1
  Zn  Zn130  1  0.68481547  0.90869544  0.94137342  1
  Zn  Zn131  1  0.31462395  0.06608341  0.06335439  1
  Zn  Zn132  1  0.31094542  0.05984710  0.56288631  1
  Zn  Zn133  1  0.30674281  0.56233821  0.06069891  1
  Zn  Zn134  1  0.31281008  0.56637816  0.56043099  1
  Zn  Zn135  1  0.82250218  0.05951114  0.06767367  1
  Zn  Zn136  1  0.80705294  0.06217292  0.56485656  1
  Zn  Zn137  1  0.81035703  0.56341214  0.05886606  1
  Zn  Zn138  1  0.81620584  0.56458109  0.54743400  1
  Zn  Zn139  1  0.42546658  0.43992348  0.18533874  1
  Zn  Zn140  1  0.44392485  0.43875540  0.68348424  1
  Zn  Zn141  1  0.44046357  0.93625055  0.19027532  1
  Zn  Zn142  1  0.43998089  0.93929328  0.68703650  1
  Zn  Zn143  1  0.94138212  0.43855248  0.18796914  1
  Zn  Zn144  1  0.94287508  0.43255840  0.68403818  1
  Zn  Zn145  1  0.94131371  0.93905387  0.19011882  1
  Zn  Zn146  1  0.93582065  0.93794049  0.69018219  1
  Zn  Zn147  1  0.06135227  0.05169109  0.31585260  1
  Zn  Zn148  1  0.06078261  0.06174775  0.81298143  1
  Zn  Zn149  1  0.06374393  0.55112532  0.29490274  1
  Zn  Zn150  1  0.06130550  0.56041075  0.80864620  1
  Zn  Zn151  1  0.56384312  0.06079464  0.31493600  1
  Zn  Zn152  1  0.55617689  0.05955599  0.80538921  1
  Zn  Zn153  1  0.56419235  0.56340572  0.31758809  1
  Zn  Zn154  1  0.56466447  0.56972031  0.81683244  1
  Zn  Zn155  1  0.43647715  0.18909564  0.43506075  1
  Zn  Zn156  1  0.43893960  0.18827895  0.93433178  1
  Zn  Zn157  1  0.43641069  0.69366488  0.44230904  1
  Zn  Zn158  1  0.41789506  0.67670593  0.94650582  1
  Zn  Zn159  1  0.93371945  0.18331035  0.44201143  1
  Zn  Zn160  1  0.93463225  0.18899518  0.93734545  1
  Zn  Zn161  1  0.93709773  0.68489215  0.44187043  1
  Zn  Zn162  1  0.93696681  0.68632803  0.93888564  1
  Zn  Zn163  1  0.05291515  0.31463009  0.05817331  1
  Zn  Zn164  1  0.06032808  0.31544582  0.55731221  1
  Zn  Zn165  1  0.06178792  0.81476154  0.06906386  1
  Zn  Zn166  1  0.06268442  0.80867046  0.56078882  1
  Zn  Zn167  1  0.56030075  0.31388777  0.06223617  1
  Zn  Zn168  1  0.56197831  0.31593131  0.56556585  1
  Zn  Zn169  1  0.55564371  0.81570853  0.06858945  1
  Zn  Zn170  1  0.55975397  0.81259761  0.56214361  1
  O  O171  1  0.11091782  0.12592031  0.12132067  1
  O  O172  1  0.12039284  0.11840531  0.62070733  1
  O  O173  1  0.11287151  0.63289963  0.13124680  1
  O  O174  1  0.11567472  0.61274506  0.62893235  1
  O  O175  1  0.62265213  0.11393232  0.12751448  1
  O  O176  1  0.63057406  0.11527864  0.61895259  1
  O  O177  1  0.63351626  0.62682916  0.10788316  1
  O  O178  1  0.61544941  0.62872236  0.62682891  1
  O  O179  1  0.38145071  0.38765615  0.38891629  1
  O  O180  1  0.38576899  0.38176855  0.87490626  1
  O  O181  1  0.38223448  0.88387584  0.37393792  1
  O  O182  1  0.37919022  0.88276458  0.88006698  1
  O  O183  1  0.88082119  0.38457053  0.37531082  1
  O  O184  1  0.88010143  0.38235525  0.87517112  1
  O  O185  1  0.87825183  0.87756953  0.38367034  1
  O  O186  1  0.87934585  0.87851734  0.88254026  1
  O  O187  1  0.26206968  -0.00295140  0.38120264  1
  O  O188  1  0.25614765  0.00677860  0.87018660  1
  O  O189  1  0.26058907  0.51841854  0.38774583  1
  O  O190  1  0.25951926  0.50092148  0.86143878  1
  O  O191  1  0.75191190  0.00565218  0.36880489  1
  O  O192  1  0.74177974  0.00278756  0.89135796  1
  O  O193  1  0.75920496  0.50952824  0.37304555  1
  O  O194  1  0.76110116  0.50635873  0.87452546  1
  O  O195  1  0.26685929  0.48711264  0.12798224  1
  O  O196  1  0.24347976  0.50524094  0.63333013  1
  O  O197  1  0.23519946  1.00566744  0.12193974  1
  O  O198  1  0.24140917  0.98948880  0.62805246  1
  O  O199  1  0.75052254  0.48739709  0.12565375  1
  O  O200  1  0.76719774  0.50983059  0.63554123  1
  O  O201  1  0.74790981  0.99717172  0.13192412  1
  O  O202  1  0.73963960  0.98671582  0.62258533  1
  O  O203  1  -0.00110353  0.37366328  0.26402150  1
  O  O204  1  0.00576763  0.36868486  0.75843964  1
  O  O205  1  0.00535510  0.87419439  0.26160647  1
  O  O206  1  0.00632980  0.86857045  0.75485978  1
  O  O207  1  0.50469606  0.36957257  0.24767684  1
  O  O208  1  0.50817983  0.36713128  0.75547885  1
  O  O209  1  0.50514687  0.87871391  0.26493199  1
  O  O210  1  0.50049629  0.86797882  0.75696366  1
  O  O211  1  0.49587501  0.13194264  0.24573294  1
  O  O212  1  0.49087979  0.14037813  0.75496147  1
  O  O213  1  0.48736445  0.62285311  0.25514107  1
  O  O214  1  0.49877805  0.63204505  0.74069091  1
  O  O215  1  1.00047954  0.12027566  0.24237568  1
  O  O216  1  0.99439287  0.12941049  0.74321409  1
  O  O217  1  0.98912664  0.62624022  0.23955895  1
  O  O218  1  1.00074087  0.62890532  0.73710640  1
  O  O219  1  0.38709082  0.25901154  0.00770314  1
  O  O220  1  0.37224667  0.25574159  0.50707085  1
  O  O221  1  0.38339318  0.77136608  0.00145288  1
  O  O222  1  0.35366176  0.75508498  0.49219175  1
  O  O223  1  0.86837563  0.25624617  0.00667389  1
  O  O224  1  0.86559322  0.24903292  0.51162678  1
  O  O225  1  0.88199137  0.76360323  0.00736646  1
  O  O226  1  0.88091428  0.75752467  0.51588320  1
  O  O227  1  0.13493951  0.24269783  0.50793564  1
  O  O228  1  0.11860503  0.24720067  0.98347201  1
  O  O229  1  0.14157087  0.75711557  0.49774500  1
  O  O230  1  0.12457909  0.75652729  0.98766553  1
  O  O231  1  0.63081072  0.24622811  0.50054759  1
  O  O232  1  0.62714565  0.25269296  0.98661133  1
  O  O233  1  0.62503655  0.75371847  0.48590206  1
  O  O234  1  0.61776014  0.74213113  0.99960253  1
  O  O235  1  0.49771688  0.24305336  0.13365473  1
  O  O236  1  0.48859618  0.25381521  0.63331534  1
  O  O237  1  0.48978164  0.76176767  0.13734321  1
  O  O238  1  0.49998755  0.73900506  0.63121113  1
  O  O239  1  0.99082028  0.23510960  0.12212034  1
  O  O240  1  0.99097458  0.24537750  0.62901999  1
  O  O241  1  0.99002750  0.74132677  0.12710948  1
  O  O242  1  0.99462993  0.73973873  0.62773169  1
  O  O243  1  -0.01230872  0.26180543  0.38090045  1
  O  O244  1  0.00442649  0.25707494  0.86748876  1
  O  O245  1  -0.00485730  0.76139232  0.37741430  1
  O  O246  1  0.00787677  0.75422193  0.87126907  1
  O  O247  1  0.50028366  0.25422892  0.36096756  1
  O  O248  1  0.50622145  0.26050074  0.86844299  1
  O  O249  1  0.51159920  0.75621388  0.37393933  1
  O  O250  1  0.48933624  0.75894634  0.87034301  1
  O  O251  1  0.23831487  0.13379384  0.50785133  1
  O  O252  1  0.25028523  0.12096908  0.98348519  1
  O  O253  1  0.24696656  0.63380478  0.49332442  1
  O  O254  1  0.29262064  0.64027830  0.98247045  1
  O  O255  1  0.74053837  0.13306157  0.49647284  1
  O  O256  1  0.75134364  0.12867089  1.00467177  1
  O  O257  1  0.75537838  0.63300334  0.48429268  1
  O  O258  1  0.73853487  0.62670593  0.99045479  1
  O  O259  1  0.26751647  0.37095081  -0.01559739  1
  O  O260  1  0.25875593  0.36203842  0.49349814  1
  O  O261  1  0.25863484  0.87432270  0.00169619  1
  O  O262  1  0.25027804  0.86664590  0.51071770  1
  O  O263  1  0.75296463  0.37072318  0.00702922  1
  O  O264  1  0.75211448  0.36795053  0.50546097  1
  O  O265  1  0.76193914  0.87716475  0.01571417  1
  O  O266  1  0.76205524  0.87780130  0.50690884  1
  O  O267  1  0.12971479  0.48794036  0.23056219  1
  O  O268  1  0.13271980  0.49204405  0.74266701  1
  O  O269  1  0.12048444  0.98771041  0.24266967  1
  O  O270  1  0.12379823  0.98617082  0.74679701  1
  O  O271  1  0.62471907  0.49415983  0.24498105  1
  O  O272  1  0.62055572  0.48600698  0.75684893  1
  O  O273  1  0.63637413  0.99808308  0.24190375  1
  O  O274  1  0.61795303  0.98727345  0.74216698  1
  O  O275  1  0.38007267  0.01252933  0.25692005  1
  O  O276  1  0.37666722  0.01050310  0.75378752  1
  O  O277  1  0.37505553  0.50881505  0.26439045  1
  O  O278  1  0.36884607  0.50050266  0.75032880  1
  O  O279  1  0.86334202  -0.00336608  0.25637350  1
  O  O280  1  0.87508442  0.01342994  0.75273607  1
  O  O281  1  0.87417259  0.50742547  0.25826485  1
  O  O282  1  0.88135757  0.50193519  0.75786959  1
  O  O283  1  0.10184602  0.37141384  0.38016709  1
  O  O284  1  0.11748379  0.36863442  0.86262951  1
  O  O285  1  0.11465190  0.88385751  0.36555114  1
  O  O286  1  0.11970005  0.86760773  0.86750583  1
  O  O287  1  0.62413131  0.37331792  0.36052729  1
  O  O288  1  0.62071039  0.36875404  0.86735149  1
  O  O289  1  0.62052562  0.86715009  0.37544541  1
  O  O290  1  0.61042952  0.87617188  0.86643317  1
  O  O291  1  0.38648225  0.12600193  0.13339006  1
  O  O292  1  0.37077410  0.13164600  0.63636522  1
  O  O293  1  0.37239536  0.62362345  0.14530672  1
  O  O294  1  0.38343906  0.62130065  0.63578920  1
  O  O295  1  0.88903438  0.13109441  0.12565122  1
  O  O296  1  0.87734410  0.13257514  0.63295885  1
  O  O297  1  0.87370906  0.63305157  0.12945492  1
  O  O298  1  0.87450951  0.62903638  0.63347005  1
  O  O299  1  0.26965971  0.23189043  0.11913141  1
  O  O300  1  0.26387497  0.24996756  0.61894026  1
  O  O301  1  0.25863226  0.75602959  0.12467523  1
  O  O302  1  0.24561874  0.75393826  0.61584125  1
  O  O303  1  0.75420913  0.25927542  0.11881807  1
  O  O304  1  0.75465069  0.24967970  0.61658299  1
  O  O305  1  0.76391007  0.75986657  0.13080163  1
  O  O306  1  0.75716027  0.76312992  0.62895767  1
  O  O307  1  0.25704851  0.23960713  0.38591036  1
  O  O308  1  0.24001338  0.24181897  0.86594456  1
  O  O309  1  0.24426811  0.73349492  0.38332795  1
  O  O310  1  0.23267569  0.74950005  0.87431226  1
  O  O311  1  0.74996223  0.24456179  0.38702584  1
  O  O312  1  0.74156527  0.25125945  0.88328063  1
  O  O313  1  0.73871357  0.74637454  0.37125854  1
  O  O314  1  0.75492344  0.74127004  0.87741344  1
  O  O315  1  -0.00123801  0.11309401  -0.00082963  1
  O  O316  1  0.01045233  0.12072866  0.50647204  1
  O  O317  1  -0.00138971  0.62594645  0.01486264  1
  O  O318  1  -0.00514465  0.61103990  0.51098207  1
  O  O319  1  0.49659047  0.11240934  0.00217379  1
  O  O320  1  0.51429742  0.12825207  0.49591453  1
  O  O321  1  0.51270880  0.61773964  -0.01059889  1
  O  O322  1  0.49786663  0.62110270  0.51350794  1
  O  O323  1  0.49501191  0.38519874  0.50112574  1
  O  O324  1  0.49839778  0.38293577  0.98955895  1
  O  O325  1  0.49597233  0.87553026  0.48928967  1
  O  O326  1  0.49745783  0.88814570  0.99236997  1
  O  O327  1  0.99337706  0.38627960  0.49305670  1
  O  O328  1  0.99052557  0.37480948  0.98442252  1
  O  O329  1  0.99078425  0.87881162  0.49623331  1
  O  O330  1  0.99548088  0.88503658  0.99869889  1
  O  O331  1  0.49492778  0.50224390  0.38865627  1
  O  O332  1  0.49719353  0.48991103  0.87643200  1
  O  O333  1  0.49623061  0.99275672  0.37964705  1
  O  O334  1  0.49297539  0.99426967  0.88021316  1
  O  O335  1  0.99420334  0.49854501  0.37839602  1
  O  O336  1  0.99155713  0.49443458  0.87524772  1
  O  O337  1  0.99025756  0.99111827  0.38398096  1
  O  O338  1  1.00005989  0.99243947  0.88373112  1
  O  O339  1  0.00505991  0.01228331  0.12049696  1
  O  O340  1  0.00473562  0.00382305  0.62049769  1
  O  O341  1  -0.00488582  0.51657925  0.12177485  1
  O  O342  1  0.00594607  0.50432080  0.61733270  1
  O  O343  1  0.51174726  0.00271739  0.11631560  1
  O  O344  1  0.51423515  -0.00507901  0.61986863  1
  O  O345  1  0.49788921  0.49664982  0.11065240  1
  O  O346  1  0.50119327  0.51550263  0.61900825  1
  O  O347  1  0.23797628  0.38646560  0.29310982  1
  O  O348  1  0.24102028  0.38303219  0.75110453  1
  O  O349  1  0.23746496  0.87295129  0.25694063  1
  O  O350  1  0.24160413  0.87229031  0.74339385  1
  O  O351  1  0.74091639  0.37690207  0.24264091  1
  O  O352  1  0.73609369  0.37286468  0.74809218  1
  O  O353  1  0.75099746  0.88434908  0.23890239  1
  O  O354  1  0.73787350  0.87250672  0.74407761  1
  O  O355  1  0.25952262  0.12961171  0.26188559  1
  O  O356  1  0.25832400  0.12263134  0.75773660  1
  O  O357  1  0.25776894  0.62193804  0.26626101  1
  O  O358  1  0.25884440  0.61811762  0.75305736  1
  O  O359  1  0.74576016  0.11859510  0.26110133  1
  O  O360  1  0.76250822  0.12827918  0.74852573  1
  O  O361  1  0.76206752  0.62458100  0.25494722  1
  O  O362  1  0.74564616  0.63045624  0.76177396  1
  O  O363  1  0.38205674  0.11467730  0.36692541  1
  O  O364  1  0.36934905  0.12357091  0.86434891  1
  O  O365  1  0.37537751  0.61733365  0.37401487  1
  O  O366  1  0.38732695  0.60690361  0.85652764  1
  O  O367  1  0.85968064  0.11623256  0.38512513  1
  O  O368  1  0.87660803  0.12284896  0.86115551  1
  O  O369  1  0.87178096  0.62129403  0.36695439  1
  O  O370  1  0.86100192  0.62029140  0.88031073  1
  O  O371  1  0.12849719  0.34341719  0.13520290  1
  O  O372  1  0.11670545  0.38184931  0.63627809  1
  O  O373  1  0.12600540  0.88589756  0.13719217  1
  O  O374  1  0.12893006  0.87663763  0.63399787  1
  O  O375  1  0.63239207  0.37569965  0.13342279  1
  O  O376  1  0.62739409  0.37440758  0.64085724  1
  O  O377  1  0.63591314  0.88821217  0.12181216  1
  O  O378  1  0.63079027  0.87868823  0.63048231  1
  O  O379  1  0.14039852  0.23767714  0.26616116  1
  O  O380  1  0.12017643  0.25612552  0.75266133  1
  O  O381  1  0.12089788  0.76854620  0.24704081  1
  O  O382  1  0.11815970  0.75734521  0.75628886  1
  O  O383  1  0.61672674  0.25793753  0.24975137  1
  O  O384  1  0.61808296  0.25463741  0.75929897  1
  O  O385  1  0.62534589  0.75523992  0.26033628  1
  O  O386  1  0.60831676  0.76336219  0.74976268  1
  O  O387  1  0.38248086  0.24329798  0.24404231  1
  O  O388  1  0.38103965  0.24756008  0.74306963  1
  O  O389  1  0.37633377  0.73326409  0.25950128  1
  O  O390  1  0.38479994  0.74124054  0.75474927  1
  O  O391  1  0.86597866  0.25096848  0.23710297  1
  O  O392  1  0.87872281  0.24055133  0.74537265  1
  O  O393  1  0.87963539  0.74359613  0.24297201  1
  O  O394  1  0.88380940  0.75719205  0.73683774  1
  O  O395  1  0.38153219  0.49502980  0.49913180  1
  O  O396  1  0.38521114  0.49225862  0.98690911  1
  O  O397  1  0.37668205  0.99800181  0.49275292  1
  O  O398  1  0.38316000  0.99497050  0.99445039  1
  O  O399  1  0.88479432  0.49766039  0.48566108  1
  O  O400  1  0.87658266  0.49282929  0.99134097  1
  O  O401  1  0.87862518  0.99215846  0.49866873  1
  O  O402  1  0.88342497  0.98936058  0.99847841  1
  O  O403  1  0.11648739  0.00143554  0.00878773  1
  O  O404  1  0.11974751  0.00653135  0.50629093  1
  O  O405  1  0.12415564  0.48576916  0.00702020  1
  O  O406  1  0.12003207  0.49028263  0.51044716  1
  O  O407  1  0.62350095  0.00476770  0.00146226  1
  O  O408  1  0.62486801  0.00950448  0.50829289  1
  O  O409  1  0.61643882  0.50677458  0.00188006  1
  O  O410  1  0.61736390  0.49523923  0.49806795  1
  O  O411  1  0.38133310  0.36131398  0.11413706  1
  O  O412  1  0.37877848  0.36953625  0.61357413  1
  O  O413  1  0.36935418  0.88688977  0.11712955  1
  O  O414  1  0.36181594  0.87835094  0.62747000  1
  O  O415  1  0.86998506  0.36850788  0.12177923  1
  O  O416  1  0.87114556  0.36163942  0.62745072  1
  O  O417  1  0.87323310  0.87001841  0.12025346  1
  O  O418  1  0.86816030  0.87061342  0.62082376  1
  O  O419  1  0.12970780  0.12018496  0.38237149  1
  O  O420  1  0.13264427  0.13270359  0.87229305  1
  O  O421  1  0.13222647  0.61692321  0.36734920  1
  O  O422  1  0.12365138  0.63817242  0.87092497  1
  O  O423  1  0.63576950  0.12735743  0.38349659  1
  O  O424  1  0.62306128  0.13043679  0.87239751  1
  O  O425  1  0.63428819  0.63857025  0.37102351  1
  O  O426  1  0.63957371  0.62449390  0.88555033  1
