# generated using pymatgen
data_V85Zn86O256
_symmetry_space_group_name_H-M   'P 1'
_cell_length_a   16.93160279
_cell_length_b   16.94332161
_cell_length_c   16.94812089
_cell_angle_alpha   89.94481716
_cell_angle_beta   90.02139118
_cell_angle_gamma   89.93249913
_symmetry_Int_Tables_number   1
_chemical_formula_structural   V85Zn86O256
_chemical_formula_sum   'V85 Zn86 O256'
_cell_volume   4862.03012973
_cell_formula_units_Z   1
loop_
 _symmetry_equiv_pos_site_id
 _symmetry_equiv_pos_as_xyz
  1  'x, y, z'
loop_
 _atom_site_type_symbol
 _atom_site_label
 _atom_site_symmetry_multiplicity
 _atom_site_fract_x
 _atom_site_fract_y
 _atom_site_fract_z
 _atom_site_occupancy
  V  V0  1  0.00782573  0.74262059  0.24902480  1
  V  V1  1  0.37344541  0.50060133  0.37136339  1
  V  V2  1  0.11866750  0.63073068  0.49455792  1
  V  V3  1  0.75190566  0.50039268  0.75129931  1
  V  V4  1  0.37558947  0.86334183  0.00066652  1
  V  V5  1  0.49810771  0.37063747  0.37265745  1
  V  V6  1  0.37367224  -0.00058811  0.87427240  1
  V  V7  1  0.74610077  0.75764085  0.00962723  1
  V  V8  1  0.26191431  0.00113984  0.24933621  1
  V  V9  1  0.49842224  0.13511223  0.62402281  1
  V  V10  1  0.87383636  0.87962787  0.49184164  1
  V  V11  1  0.87577944  0.62227278  0.75128898  1
  V  V12  1  0.00234305  0.87882298  0.87278151  1
  V  V13  1  0.75896023  0.25304286  0.49639256  1
  V  V14  1  0.26320059  0.37398860  0.12203659  1
  V  V15  1  0.62262209  0.00056742  0.62727717  1
  V  V16  1  -0.00297157  0.62379088  0.62397664  1
  V  V17  1  0.25292429  0.37042543  0.62921981  1
  V  V18  1  0.62564466  0.12302981  -0.00481819  1
  V  V19  1  0.26037644  0.86908850  0.62676483  1
  V  V20  1  0.12337508  0.49734778  0.62674594  1
  V  V21  1  0.75813311  -0.00209998  0.23914356  1
  V  V22  1  0.49006112  0.73498899  0.73951796  1
  V  V23  1  0.61967798  0.62221592  0.00229945  1
  V  V24  1  -0.00352092  0.24853292  0.24993549  1
  V  V25  1  0.11187092  0.49967414  0.11491817  1
  V  V26  1  0.12461114  0.37599611  0.24573420  1
  V  V27  1  0.12657528  0.12402885  0.50083830  1
  V  V28  1  0.62708209  0.74957764  0.87209309  1
  V  V29  1  0.61649855  0.62927924  0.50209727  1
  V  V30  1  0.62602436  0.12514024  0.49814253  1
  V  V31  1  0.25813049  0.12503526  0.37316334  1
  V  V32  1  0.62678323  0.37059433  0.75519213  1
  V  V33  1  0.49404982  -0.00263426  0.48861915  1
  V  V34  1  0.25810443  0.74744715  0.50502917  1
  V  V35  1  0.00409917  0.12693896  0.12385891  1
  V  V36  1  -0.00298655  0.37488023  0.37733526  1
  V  V37  1  0.74176527  0.24990713  -0.00470430  1
  V  V38  1  -0.00329183  0.37445000  0.87896233  1
  V  V39  1  0.93255685  0.54367749  0.93500782  1
  V  V40  1  0.50404879  0.25194078  0.76584075  1
  V  V41  1  0.74418894  0.62883079  0.37424091  1
  V  V42  1  0.12765224  0.00223181  0.12116873  1
  V  V43  1  0.38505774  0.13792794  0.24433495  1
  V  V44  1  0.62218888  0.37838216  0.25252995  1
  V  V45  1  0.75842761  0.11205092  0.37478578  1
  V  V46  1  0.24446111  0.74522126  0.00237915  1
  V  V47  1  0.26943423  0.24880476  0.00557930  1
  V  V48  1  0.24653599  0.12512157  0.87923939  1
  V  V49  1  0.74557543  0.75188534  0.49666871  1
  V  V50  1  0.87414231  0.75144544  0.62425370  1
  V  V51  1  0.12417022  0.24860656  0.88800088  1
  V  V52  1  0.37360537  0.12970388  0.74561722  1
  V  V53  1  -0.00042154  0.00122311  0.48970851  1
  V  V54  1  0.25365104  0.87047283  0.12477292  1
  V  V55  1  0.37462213  0.63027669  0.24105681  1
  V  V56  1  0.12867460  0.37438939  0.75426309  1
  V  V57  1  0.63227203  0.87007021  0.25612211  1
  V  V58  1  0.87240106  0.49665527  0.37620344  1
  V  V59  1  -0.00394693  0.12339438  0.63149525  1
  V  V60  1  0.30704543  0.55480953  0.70502497  1
  V  V61  1  0.74636408  0.37487198  0.12792806  1
  V  V62  1  0.61848605  0.50384813  0.62552948  1
  V  V63  1  0.86966170  0.37496099  -0.00345788  1
  V  V64  1  0.49531974  0.76141986  0.25588949  1
  V  V65  1  -0.00608156  0.49439045  0.50113488  1
  V  V66  1  0.25321909  0.61862315  0.87843247  1
  V  V67  1  0.12493013  0.25154632  0.37590754  1
  V  V68  1  0.74987725  0.61694607  0.87759338  1
  V  V69  1  0.00240141  0.00637369  -0.00096642  1
  V  V70  1  0.75612306  0.37791975  0.61901076  1
  V  V71  1  0.75575738  0.12963779  0.86788991  1
  V  V72  1  0.62450877  0.24846165  0.37359316  1
  V  V73  1  0.24324079  0.63104567  0.37078106  1
  V  V74  1  0.37734146  0.36810274  0.50350126  1
  V  V75  1  0.75876540  0.00266932  0.74757653  1
  V  V76  1  0.49849697  0.87179545  0.86812636  1
  V  V77  1  0.87408815  0.24874302  0.63266855  1
  V  V78  1  0.50067635  -0.00378308  0.00156427  1
  V  V79  1  0.25208247  0.24882826  0.50725611  1
  V  V80  1  0.12745322  0.87294257  0.25720876  1
  V  V81  1  0.87027148  0.88269953  0.00634149  1
  V  V82  1  0.37677935  0.48668160  0.88443598  1
  V  V83  1  0.87394710  0.62642772  0.24230761  1
  V  V84  1  0.12651576  -0.00440765  0.62345014  1
  Zn  Zn85  1  0.75059524  0.87733892  0.62567947  1
  Zn  Zn86  1  0.11059401  0.62165390  -0.00017898  1
  Zn  Zn87  1  0.63061029  -0.00857839  0.12099084  1
  Zn  Zn88  1  0.12364287  0.74601456  0.87370098  1
  Zn  Zn89  1  0.74819441  0.50219974  0.25139939  1
  Zn  Zn90  1  -0.00051248  0.75332540  0.74946711  1
  Zn  Zn91  1  -0.00429616  0.24528286  0.75596073  1
  Zn  Zn92  1  0.00374960  0.87104044  0.37512043  1
  Zn  Zn93  1  0.25071253  -0.00157400  0.74927065  1
  Zn  Zn94  1  0.86785791  0.24545967  0.12784947  1
  Zn  Zn95  1  0.62669669  0.87494033  0.74849610  1
  Zn  Zn96  1  0.24686387  0.50146787  0.24718276  1
  Zn  Zn97  1  0.38751098  0.86742882  0.49090790  1
  Zn  Zn98  1  0.88236085  0.11358084  0.25658128  1
  Zn  Zn99  1  0.87902298  0.00586794  0.86899882  1
  Zn  Zn100  1  0.48840271  0.48768018  0.00781501  1
  Zn  Zn101  1  0.87660952  0.75348391  0.12652663  1
  Zn  Zn102  1  0.49578793  0.62997555  0.12366213  1
  Zn  Zn103  1  0.12611286  0.87277577  0.75032031  1
  Zn  Zn104  1  0.49440687  0.12949811  0.11937168  1
  Zn  Zn105  1  0.61907197  0.50440566  0.13063429  1
  Zn  Zn106  1  0.49834303  0.50317732  0.50257175  1
  Zn  Zn107  1  0.18854871  0.18833507  0.18502366  1
  Zn  Zn108  1  0.18284962  0.18822322  0.69154283  1
  Zn  Zn109  1  0.18429943  0.68402351  0.18221365  1
  Zn  Zn110  1  0.17994460  0.69272738  0.68525854  1
  Zn  Zn111  1  0.64715666  0.20633516  0.16727189  1
  Zn  Zn112  1  0.68701858  0.18739495  0.68646331  1
  Zn  Zn113  1  0.68241050  0.69288268  0.18958268  1
  Zn  Zn114  1  0.68569796  0.68867142  0.68776528  1
  Zn  Zn115  1  0.31143217  0.31090917  0.31178290  1
  Zn  Zn116  1  0.31435597  0.30962690  0.81320761  1
  Zn  Zn117  1  0.31672475  0.81025956  0.31574956  1
  Zn  Zn118  1  0.31152217  0.80663089  0.81231490  1
  Zn  Zn119  1  0.81153886  0.31172191  0.31274106  1
  Zn  Zn120  1  0.80878041  0.31498012  0.81321125  1
  Zn  Zn121  1  0.81400824  0.81222493  0.31236504  1
  Zn  Zn122  1  0.81374692  0.81603966  0.81475007  1
  Zn  Zn123  1  0.18583679  0.43934564  0.43766315  1
  Zn  Zn124  1  0.19308038  0.43622874  0.93958476  1
  Zn  Zn125  1  0.22602903  0.92137232  0.42087635  1
  Zn  Zn126  1  0.18687220  0.93810508  0.93890975  1
  Zn  Zn127  1  0.68634086  0.44040345  0.43933567  1
  Zn  Zn128  1  0.64446676  0.41043214  0.96025839  1
  Zn  Zn129  1  0.68120012  0.93564213  0.43749420  1
  Zn  Zn130  1  0.68786484  0.93967458  0.93043403  1
  Zn  Zn131  1  0.31618095  0.06217598  0.06259220  1
  Zn  Zn132  1  0.31408203  0.06066212  0.56461175  1
  Zn  Zn133  1  0.30714713  0.55758977  0.06241600  1
  Zn  Zn134  1  0.30866545  0.55744853  0.54439190  1
  Zn  Zn135  1  0.81675308  0.06775272  0.06281915  1
  Zn  Zn136  1  0.81393947  0.06341028  0.56168649  1
  Zn  Zn137  1  0.79839194  0.56457315  0.06711784  1
  Zn  Zn138  1  0.80936755  0.56412795  0.56104159  1
  Zn  Zn139  1  0.44066802  0.44272282  0.19034590  1
  Zn  Zn140  1  0.44226624  0.42916739  0.68721392  1
  Zn  Zn141  1  0.43912914  0.93524606  0.18508989  1
  Zn  Zn142  1  0.43695767  0.94028922  0.68452653  1
  Zn  Zn143  1  0.93239347  0.43575566  0.18755205  1
  Zn  Zn144  1  0.93566237  0.43410569  0.69187970  1
  Zn  Zn145  1  0.94082334  0.93458875  0.18849445  1
  Zn  Zn146  1  0.93750431  0.93738240  0.68195571  1
  Zn  Zn147  1  0.07277408  0.06199446  0.31090485  1
  Zn  Zn148  1  0.06661769  0.06238004  0.81045565  1
  Zn  Zn149  1  0.06025513  0.56064594  0.30931599  1
  Zn  Zn150  1  0.07106636  0.56461176  0.80761147  1
  Zn  Zn151  1  0.57003647  0.05855302  0.30903386  1
  Zn  Zn152  1  0.56604917  0.06330342  0.81337696  1
  Zn  Zn153  1  0.55823207  0.56554629  0.31558627  1
  Zn  Zn154  1  0.55987534  0.55882111  0.81484699  1
  Zn  Zn155  1  0.43817528  0.18494630  0.43457488  1
  Zn  Zn156  1  0.43772575  0.18424807  0.93491179  1
  Zn  Zn157  1  0.43667570  0.68783057  0.43058559  1
  Zn  Zn158  1  0.43645127  0.68250387  0.92948382  1
  Zn  Zn159  1  0.93650489  0.18699648  0.44138624  1
  Zn  Zn160  1  0.93215528  0.18893799  0.94082055  1
  Zn  Zn161  1  0.93409637  0.68891291  0.43043544  1
  Zn  Zn162  1  0.93364811  0.70682287  0.93808197  1
  Zn  Zn163  1  0.06040274  0.31594339  0.06178912  1
  Zn  Zn164  1  0.06158090  0.31125191  0.56429338  1
  Zn  Zn165  1  0.06225173  0.81358633  0.06536223  1
  Zn  Zn166  1  0.06355106  0.81424092  0.56114632  1
  Zn  Zn167  1  0.54256202  0.30997639  0.06682855  1
  Zn  Zn168  1  0.56757805  0.31404471  0.56225255  1
  Zn  Zn169  1  0.56155104  0.81016771  0.07172203  1
  Zn  Zn170  1  0.56318898  0.81558626  0.56369004  1
  O  O171  1  0.11428350  0.11710245  0.13092649  1
  O  O172  1  0.11903107  0.12029804  0.61895202  1
  O  O173  1  0.12676482  0.60455399  0.12129811  1
  O  O174  1  0.11592278  0.61613103  0.61881134  1
  O  O175  1  0.63151977  0.10942242  0.10413901  1
  O  O176  1  0.61860558  0.11871018  0.61884219  1
  O  O177  1  0.62618456  0.62571850  0.11602804  1
  O  O178  1  0.63415016  0.61511523  0.61509697  1
  O  O179  1  0.37983515  0.37912258  0.37869272  1
  O  O180  1  0.37020245  0.38773383  0.87432384  1
  O  O181  1  0.33414268  0.88612583  0.39319680  1
  O  O182  1  0.38029277  0.87849553  0.88136608  1
  O  O183  1  0.87936371  0.38852856  0.37033992  1
  O  O184  1  0.87910851  0.37349680  0.88666586  1
  O  O185  1  0.87838246  0.87104737  0.38889155  1
  O  O186  1  0.88681386  0.87972354  0.88487467  1
  O  O187  1  0.23505423  0.01766216  0.35934412  1
  O  O188  1  0.25369377  0.00920372  0.87520084  1
  O  O189  1  0.25634983  0.50690658  0.37353348  1
  O  O190  1  0.25980350  0.50473466  0.87595688  1
  O  O191  1  0.74626819  0.00909681  0.37330101  1
  O  O192  1  0.75409178  0.00778002  0.86343984  1
  O  O193  1  0.75808628  0.50730349  0.37645658  1
  O  O194  1  0.74622089  0.51563621  0.86810005  1
  O  O195  1  0.24039262  0.48451917  0.12612923  1
  O  O196  1  0.24714982  0.49684834  0.63393678  1
  O  O197  1  0.24436287  0.99522888  0.12874853  1
  O  O198  1  0.24234484  0.99119503  0.62358680  1
  O  O199  1  0.74286120  0.48671187  0.12983744  1
  O  O200  1  0.74351856  0.49303578  0.62760046  1
  O  O201  1  0.75541959  1.00034039  0.13681579  1
  O  O202  1  0.74160111  1.00358113  0.63054807  1
  O  O203  1  0.00537569  0.36791803  0.25535403  1
  O  O204  1  0.00360756  0.37029187  0.76364529  1
  O  O205  1  0.01073212  0.86823257  0.25330709  1
  O  O206  1  -0.00143087  0.87893757  0.75979571  1
  O  O207  1  0.50620740  0.37821591  0.26449971  1
  O  O208  1  0.50919658  0.35928626  0.74729221  1
  O  O209  1  0.50265431  0.86742943  0.25190509  1
  O  O210  1  0.49977089  0.87528275  0.76099356  1
  O  O211  1  0.48551888  0.11553578  0.25237522  1
  O  O212  1  0.49702366  0.13405369  0.74535052  1
  O  O213  1  0.48882936  0.63172388  0.25105279  1
  O  O214  1  0.50611981  0.63606374  0.74947941  1
  O  O215  1  1.00184654  0.13192558  0.24644074  1
  O  O216  1  1.00430487  0.12664772  0.73592600  1
  O  O217  1  0.99230231  0.63484182  0.25241192  1
  O  O218  1  0.99347338  0.62409520  0.74177261  1
  O  O219  1  0.36872810  0.25045128  -0.00031544  1
  O  O220  1  0.36672236  0.25974212  0.49295852  1
  O  O221  1  0.36869795  0.75955994  -0.00639468  1
  O  O222  1  0.36279771  0.74675292  0.49827532  1
  O  O223  1  0.86163697  0.25805308  0.00534762  1
  O  O224  1  0.86389243  0.24948934  0.50860615  1
  O  O225  1  0.86363455  0.76233461  0.00500633  1
  O  O226  1  0.86605490  0.75387473  0.50547319  1
  O  O227  1  0.13208460  0.24476123  0.49587547  1
  O  O228  1  0.12979948  0.25390245  0.98991560  1
  O  O229  1  0.12723266  0.73369909  0.50503108  1
  O  O230  1  0.12970274  0.74493673  0.99844380  1
  O  O231  1  0.63619564  0.24496862  0.49259120  1
  O  O232  1  0.63654121  0.23897459  0.99855035  1
  O  O233  1  0.63723420  0.74518392  0.50737132  1
  O  O234  1  0.62871743  0.74617338  0.99090915  1
  O  O235  1  0.53540261  0.23249993  0.14061556  1
  O  O236  1  0.50443475  0.23792817  0.62541320  1
  O  O237  1  0.50166695  0.74510994  0.14521485  1
  O  O238  1  0.50549383  0.75627297  0.64171191  1
  O  O239  1  1.00139489  0.24333265  0.13234027  1
  O  O240  1  0.99093001  0.24307683  0.62471063  1
  O  O241  1  0.99653878  0.75510298  0.14162391  1
  O  O242  1  0.98759771  0.74495673  0.62221382  1
  O  O243  1  0.00404758  0.25451001  0.37025521  1
  O  O244  1  0.00616132  0.25432173  0.87702330  1
  O  O245  1  -0.00226129  0.75206069  0.35705347  1
  O  O246  1  0.00281757  0.76469920  0.87243615  1
  O  O247  1  0.51161208  0.25769782  0.38212710  1
  O  O248  1  0.50665940  0.24357193  0.86395744  1
  O  O249  1  0.49973962  0.74631225  0.35691954  1
  O  O250  1  0.50801506  0.75554834  0.86796816  1
  O  O251  1  0.24978485  0.13061759  0.49280699  1
  O  O252  1  0.25616853  0.13804473  0.99420728  1
  O  O253  1  0.23880668  0.62958798  0.49290528  1
  O  O254  1  0.24723676  0.63131633  0.99557691  1
  O  O255  1  0.74563061  0.13086351  0.49251137  1
  O  O256  1  0.74790290  0.13129766  0.99240952  1
  O  O257  1  0.74367061  0.63369339  0.49335767  1
  O  O258  1  0.74547137  0.63798461  0.99286141  1
  O  O259  1  0.24962071  0.36242398  0.01272512  1
  O  O260  1  0.25497962  0.36781300  0.50571381  1
  O  O261  1  0.25540693  0.86749329  0.00444972  1
  O  O262  1  0.23284490  0.85633634  0.51446867  1
  O  O263  1  0.74783133  0.36839678  0.00614550  1
  O  O264  1  0.74463401  0.36569099  0.50702672  1
  O  O265  1  0.75797890  0.86997668  -0.00962672  1
  O  O266  1  0.75492267  0.86929315  0.50094758  1
  O  O267  1  0.12488832  0.48792619  0.24290335  1
  O  O268  1  0.12037213  0.48296485  0.74259514  1
  O  O269  1  0.13260664  0.99195409  0.23770239  1
  O  O270  1  0.12951827  1.00054871  0.73568910  1
  O  O271  1  0.62644170  0.48959015  0.25682776  1
  O  O272  1  0.63066370  0.49508899  0.74276424  1
  O  O273  1  0.63923282  0.99334375  0.24524762  1
  O  O274  1  0.63259343  0.99999160  0.74191729  1
  O  O275  1  0.36416097  0.00446706  0.24545781  1
  O  O276  1  0.37385561  0.00979726  0.75682759  1
  O  O277  1  0.37031333  0.50698435  0.25987449  1
  O  O278  1  0.37305303  0.49480427  0.75681238  1
  O  O279  1  0.86342358  -0.00703343  0.25230058  1
  O  O280  1  0.86283931  -0.00015445  0.74536165  1
  O  O281  1  0.87376780  0.50794149  0.25782446  1
  O  O282  1  0.86410542  0.50830719  0.74375595  1
  O  O283  1  0.12022306  0.37123077  0.36652550  1
  O  O284  1  0.11883149  0.36963378  0.87203779  1
  O  O285  1  0.13137908  0.87871911  0.35939353  1
  O  O286  1  0.11294059  0.87893153  0.87419334  1
  O  O287  1  0.61740762  0.37013639  0.37465974  1
  O  O288  1  0.64306338  0.37595792  0.85275275  1
  O  O289  1  0.62137555  0.88389467  0.35615923  1
  O  O290  1  0.61512016  0.86679836  0.87358139  1
  O  O291  1  0.37595958  0.12506797  0.13880149  1
  O  O292  1  0.38198678  0.12204332  0.63796849  1
  O  O293  1  0.36785869  0.62024317  0.13901193  1
  O  O294  1  0.36003881  0.60469096  0.63838014  1
  O  O295  1  0.89006525  0.12666786  0.13203214  1
  O  O296  1  0.88440501  0.13522512  0.61910703  1
  O  O297  1  0.86651572  0.62518197  0.13918376  1
  O  O298  1  0.87858221  0.63209190  0.62803144  1
  O  O299  1  0.24649423  0.25752741  0.11260295  1
  O  O300  1  0.24542500  0.24972993  0.61253833  1
  O  O301  1  0.24552912  0.75678696  0.11264227  1
  O  O302  1  0.24881819  0.75553658  0.61871189  1
  O  O303  1  0.74500508  0.26003172  0.11956016  1
  O  O304  1  0.75572265  0.25538529  0.61781444  1
  O  O305  1  0.74931097  0.75137510  0.11218760  1
  O  O306  1  0.76034183  0.75089329  0.61845023  1
  O  O307  1  0.24396407  0.24472460  0.38369823  1
  O  O308  1  0.24647084  0.24597034  0.88829546  1
  O  O309  1  0.24699513  0.73529656  0.38315760  1
  O  O310  1  0.24755345  0.74231590  0.88652486  1
  O  O311  1  0.74665413  0.24428187  0.38229464  1
  O  O312  1  0.75255254  0.24239675  0.88192805  1
  O  O313  1  0.75538935  0.74095006  0.38470089  1
  O  O314  1  0.74314964  0.74384022  0.87999577  1
  O  O315  1  -0.00336183  0.11500231  0.00765319  1
  O  O316  1  0.00518629  0.11914433  0.50785343  1
  O  O317  1  -0.00976766  0.61622049  -0.01408626  1
  O  O318  1  0.00252151  0.61759299  0.50198968  1
  O  O319  1  0.50681326  0.11446169  -0.00405408  1
  O  O320  1  0.50532778  0.12067526  0.50692783  1
  O  O321  1  0.50838173  0.62739701  0.00099621  1
  O  O322  1  0.51278659  0.62660370  0.49484429  1
  O  O323  1  0.49269840  0.37464060  0.49235331  1
  O  O324  1  0.53690256  0.38611787  0.99161856  1
  O  O325  1  0.50137443  0.89111075  0.50240000  1
  O  O326  1  0.49295538  0.87599368  0.99235891  1
  O  O327  1  1.00657937  0.38569715  0.49309551  1
  O  O328  1  0.98749754  0.37212158  0.98891065  1
  O  O329  1  0.99503043  0.88325083  0.49652193  1
  O  O330  1  0.99556612  0.88824980  0.99528967  1
  O  O331  1  0.48934044  0.49262159  0.37941152  1
  O  O332  1  0.48038207  0.50581173  0.87771618  1
  O  O333  1  0.50554019  1.00893628  0.39109781  1
  O  O334  1  0.49567568  0.99158221  0.88211715  1
  O  O335  1  0.99250351  0.49576137  0.38166732  1
  O  O336  1  0.99896891  0.49211434  0.87114576  1
  O  O337  1  1.00846861  1.00099798  0.38703189  1
  O  O338  1  1.00075297  1.00007732  0.88269303  1
  O  O339  1  0.00789121  0.00593647  0.12022586  1
  O  O340  1  0.00630697  0.00692492  0.61734140  1
  O  O341  1  0.01317143  0.48994785  0.12619175  1
  O  O342  1  0.00141084  0.50080525  0.61698861  1
  O  O343  1  0.49759475  0.00156188  0.10914747  1
  O  O344  1  0.50776834  0.01177654  0.62239281  1
  O  O345  1  0.50186198  0.50921739  0.12268358  1
  O  O346  1  0.51432085  0.49315266  0.62234382  1
  O  O347  1  0.24088645  0.37126118  0.23950937  1
  O  O348  1  0.24097053  0.36431518  0.74273213  1
  O  O349  1  0.24711170  0.88056902  0.24038589  1
  O  O350  1  0.24990284  0.87536367  0.74141836  1
  O  O351  1  0.74380358  0.37695576  0.24442029  1
  O  O352  1  0.74710015  0.38061493  0.73851842  1
  O  O353  1  0.74304879  0.88398897  0.25501714  1
  O  O354  1  0.74820939  0.88535211  0.74801365  1
  O  O355  1  0.25763631  0.12150772  0.25362738  1
  O  O356  1  0.25898641  0.12838145  0.75769077  1
  O  O357  1  0.25319877  0.62492559  0.25617840  1
  O  O358  1  0.24525035  0.62125884  0.75634429  1
  O  O359  1  0.75518318  0.10684888  0.25777712  1
  O  O360  1  0.74446840  0.11850355  0.75732420  1
  O  O361  1  0.75390348  0.62681995  0.25826275  1
  O  O362  1  0.75615608  0.62337328  0.75853132  1
  O  O363  1  0.36437018  0.12784371  0.36496677  1
  O  O364  1  0.36546893  0.12099258  0.86700365  1
  O  O365  1  0.36447674  0.61637302  0.36954301  1
  O  O366  1  0.36010180  0.61538618  0.87523573  1
  O  O367  1  0.86401305  0.13038763  0.37336575  1
  O  O368  1  0.86201557  0.12416184  0.87621130  1
  O  O369  1  0.86552555  0.61612099  0.36660603  1
  O  O370  1  0.87201647  0.61977516  0.87596393  1
  O  O371  1  0.13015844  0.37972442  0.13053896  1
  O  O372  1  0.13095416  0.37754019  0.63258770  1
  O  O373  1  0.13651096  0.88191508  0.13015848  1
  O  O374  1  0.12868061  0.88323269  0.62813724  1
  O  O375  1  0.62981925  0.37795306  0.14006188  1
  O  O376  1  0.63652032  0.38151493  0.63057875  1
  O  O377  1  0.61909972  0.87891789  0.14387445  1
  O  O378  1  0.62815995  0.88945958  0.62682831  1
  O  O379  1  0.11626073  0.25881265  0.25290751  1
  O  O380  1  0.12093542  0.25951425  0.76192870  1
  O  O381  1  0.11606804  0.75546605  0.24412450  1
  O  O382  1  0.11728995  0.75409935  0.75503811  1
  O  O383  1  0.63527583  0.26438854  0.26811950  1
  O  O384  1  0.61318685  0.25577675  0.74273645  1
  O  O385  1  0.61781411  0.76335540  0.25323319  1
  O  O386  1  0.62130559  0.75271080  0.76123100  1
  O  O387  1  0.37633869  0.23666076  0.25275175  1
  O  O388  1  0.39100729  0.24278922  0.75482231  1
  O  O389  1  0.38290258  0.74448648  0.25252284  1
  O  O390  1  0.39089073  0.74847392  0.75522024  1
  O  O391  1  0.88804034  0.25100176  0.24840089  1
  O  O392  1  0.87491636  0.25464693  0.73671394  1
  O  O393  1  0.88261256  0.74390050  0.24713331  1
  O  O394  1  0.87579782  0.74407716  0.74158432  1
  O  O395  1  0.37613785  0.48750858  0.48788285  1
  O  O396  1  0.37222047  0.49665667  0.99017094  1
  O  O397  1  0.39243562  1.00549572  0.50252831  1
  O  O398  1  0.38031924  0.99030089  0.99275050  1
  O  O399  1  0.88504856  0.50606467  0.49223425  1
  O  O400  1  0.86659814  0.49355182  1.00102909  1
  O  O401  1  0.88601334  0.99131778  0.50633824  1
  O  O402  1  0.88355899  0.99776208  0.99668440  1
  O  O403  1  0.11894238  -0.00249912  0.01308540  1
  O  O404  1  0.11821911  0.00724319  0.51106680  1
  O  O405  1  0.12323725  0.49585064  0.01121250  1
  O  O406  1  0.11659600  0.50729651  0.50671241  1
  O  O407  1  0.61613232  0.00012055  -0.00206570  1
  O  O408  1  0.61840669  0.00719283  0.50835519  1
  O  O409  1  0.63508870  0.51947823  0.00017767  1
  O  O410  1  0.62399947  0.50998459  0.50816248  1
  O  O411  1  0.36186576  0.37723565  0.13398443  1
  O  O412  1  0.36852185  0.37915352  0.61331030  1
  O  O413  1  0.36190908  0.87973544  0.11517204  1
  O  O414  1  0.36246711  0.88193282  0.61513692  1
  O  O415  1  0.86512619  0.37261746  0.11523614  1
  O  O416  1  0.86355819  0.36859603  0.62501395  1
  O  O417  1  0.87934293  0.87724742  0.10979872  1
  O  O418  1  0.87375263  0.86639449  0.61342637  1
  O  O419  1  0.13321470  0.13445803  0.38072945  1
  O  O420  1  0.13867566  0.13337555  0.86979336  1
  O  O421  1  0.13071972  0.61488290  0.38305464  1
  O  O422  1  0.13704320  0.62184556  0.88022134  1
  O  O423  1  0.63433832  0.13304745  0.37720753  1
  O  O424  1  0.63870272  0.11640470  0.88638323  1
  O  O425  1  0.63743695  0.61895308  0.38430008  1
  O  O426  1  0.63145223  0.63248585  0.88020127  1
