# generated using pymatgen
data_V85Zn86O256
_symmetry_space_group_name_H-M   'P 1'
_cell_length_a   16.94365593
_cell_length_b   16.93042281
_cell_length_c   16.93395187
_cell_angle_alpha   90.03851195
_cell_angle_beta   90.03542942
_cell_angle_gamma   89.98139125
_symmetry_Int_Tables_number   1
_chemical_formula_structural   V85Zn86O256
_chemical_formula_sum   'V85 Zn86 O256'
_cell_volume   4857.72633679
_cell_formula_units_Z   1
loop_
 _symmetry_equiv_pos_site_id
 _symmetry_equiv_pos_as_xyz
  1  'x, y, z'
loop_
 _atom_site_type_symbol
 _atom_site_label
 _atom_site_symmetry_multiplicity
 _atom_site_fract_x
 _atom_site_fract_y
 _atom_site_fract_z
 _atom_site_occupancy
  V  V0  1  0.00082534  0.75212653  0.74976627  1
  V  V1  1  0.86927846  0.36615048  0.49994893  1
  V  V2  1  0.62363506  0.11663713  0.49935874  1
  V  V3  1  0.62825397  0.25059830  0.38464027  1
  V  V4  1  0.25232362  0.13561344  0.37783467  1
  V  V5  1  0.13185063  0.49712445  0.62855728  1
  V  V6  1  0.62323889  0.87635408  0.24906906  1
  V  V7  1  0.12487573  0.48057854  0.12946458  1
  V  V8  1  0.12561776  0.75052736  0.87778845  1
  V  V9  1  0.37683905  0.87202492  0.00691475  1
  V  V10  1  0.01213763  0.36698763  0.37042818  1
  V  V11  1  0.24463266  0.00169628  0.24850187  1
  V  V12  1  -0.00018511  0.49583962  -0.00452299  1
  V  V13  1  0.00212665  0.62708227  0.13223970  1
  V  V14  1  0.76185082  0.12808482  0.38274311  1
  V  V15  1  0.24238950  0.24914250  0.01247051  1
  V  V16  1  0.37313729  0.48652340  0.87359017  1
  V  V17  1  0.00003353  0.49973215  0.49941525  1
  V  V18  1  0.86958505  0.13864381  0.22804281  1
  V  V19  1  0.62377042  0.49267271  0.62766505  1
  V  V20  1  0.62684008  0.49826773  0.12405607  1
  V  V21  1  0.75026094  0.24475839  -0.01745589  1
  V  V22  1  0.37238106  0.63121719  0.24332989  1
  V  V23  1  0.37216534  0.61721115  0.75069435  1
  V  V24  1  0.50100961  0.87997600  0.38132889  1
  V  V25  1  0.24815611  0.62731708  0.37112229  1
  V  V26  1  0.87640741  0.49923712  0.37281881  1
  V  V27  1  0.88968426  0.89341426  0.49579233  1
  V  V28  1  0.49771560  0.87273928  0.87501982  1
  V  V29  1  0.75407510  0.36236243  0.12543841  1
  V  V30  1  0.86946423  0.00366885  0.87447511  1
  V  V31  1  0.11121399  0.75759847  0.37032067  1
  V  V32  1  0.63314388  0.87308081  0.74314795  1
  V  V33  1  0.62643218  0.37356633  0.25017696  1
  V  V34  1  0.56450689  0.31311239  0.81324880  1
  V  V35  1  0.24927284  0.00191059  0.75190812  1
  V  V36  1  0.75172023  0.74683595  0.00035521  1
  V  V37  1  0.37235344  0.74901575  0.62573970  1
  V  V38  1  0.00516891  0.25047552  0.76306751  1
  V  V39  1  0.62555852  0.62451282  0.49998693  1
  V  V40  1  0.50051219  0.13097720  0.12219064  1
  V  V41  1  0.12511129  0.37681310  0.76414841  1
  V  V42  1  0.12522751  0.62241171  0.00461005  1
  V  V43  1  0.75102513  0.62627581  0.37405198  1
  V  V44  1  0.75012951  0.62054498  0.87456781  1
  V  V45  1  0.37768308  0.25235110  0.62351657  1
  V  V46  1  0.25462400  0.74704446  0.00905519  1
  V  V47  1  0.75019156  0.87397174  0.12427827  1
  V  V48  1  0.49923765  0.49958318  0.49938090  1
  V  V49  1  0.37416886  0.50051672  0.37325159  1
  V  V50  1  0.24989095  0.87762369  0.62523187  1
  V  V51  1  0.75178346  0.76162185  0.50637515  1
  V  V52  1  0.87742352  0.36968234  -0.00289985  1
  V  V53  1  0.86615764  0.12789403  0.75078358  1
  V  V54  1  0.24954952  0.75412653  0.49673718  1
  V  V55  1  0.25089798  0.61882951  0.87325516  1
  V  V56  1  0.11519395  0.87665302  0.24851195  1
  V  V57  1  0.74947092  0.49084111  0.74738136  1
  V  V58  1  0.49822944  0.63037774  0.12334960  1
  V  V59  1  0.87576634  0.87501247  0.00056860  1
  V  V60  1  0.49706201  0.74777469  0.75039984  1
  V  V61  1  0.12657875  0.13669134  0.50291060  1
  V  V62  1  0.12365675  0.62796749  0.49922573  1
  V  V63  1  0.11838555  0.00136787  0.62347661  1
  V  V64  1  0.38149451  0.13337229  0.75269352  1
  V  V65  1  0.37410631  0.00218222  0.87743017  1
  V  V66  1  0.49812654  0.25168381  0.24884956  1
  V  V67  1  0.24911078  0.87895280  0.12648603  1
  V  V68  1  0.87975089  0.75182217  0.13380654  1
  V  V69  1  0.37618102  0.12518627  0.24518178  1
  V  V70  1  0.62657063  0.12844700  -0.01378979  1
  V  V71  1  0.75603789  0.00176133  0.25273153  1
  V  V72  1  0.37372906  0.36518989  0.01940265  1
  V  V73  1  0.87473916  0.62371437  0.74809287  1
  V  V74  1  0.01143383  -0.00024937  0.00541531  1
  V  V75  1  0.00025896  0.62610490  0.62508384  1
  V  V76  1  0.37862317  0.00230995  0.38229420  1
  V  V77  1  0.23857801  0.13417693  0.87919136  1
  V  V78  1  0.49912346  0.49309327  -0.00444497  1
  V  V79  1  0.62487506  0.00193189  0.12219933  1
  V  V80  1  0.02003984  0.12615799  0.11418853  1
  V  V81  1  0.50150719  0.11796344  0.62175948  1
  V  V82  1  0.24610761  0.48732868  0.24540900  1
  V  V83  1  0.62428014  0.74662701  0.87476168  1
  V  V84  1  0.62304769  0.75074968  0.37290441  1
  Zn  Zn85  1  0.50036234  0.37458907  0.37594210  1
  Zn  Zn86  1  0.00877279  0.00594776  0.46412157  1
  Zn  Zn87  1  0.37188735  0.37665770  0.50173972  1
  Zn  Zn88  1  0.00696727  0.26588247  0.23299669  1
  Zn  Zn89  1  0.74879076  0.00172516  0.74656747  1
  Zn  Zn90  1  0.00125262  0.87683902  0.87541553  1
  Zn  Zn91  1  0.49943513  0.00202936  0.00037715  1
  Zn  Zn92  1  0.87917935  0.63031031  0.25329427  1
  Zn  Zn93  1  0.62465643  0.62168150  -0.00083341  1
  Zn  Zn94  1  0.12409031  0.87648574  0.75079848  1
  Zn  Zn95  1  0.74376620  0.36455178  0.62161349  1
  Zn  Zn96  1  0.75152454  0.50063911  0.24776112  1
  Zn  Zn97  1  0.24906304  0.25764817  0.49928107  1
  Zn  Zn98  1  0.49474817  0.75401654  0.24578922  1
  Zn  Zn99  1  0.37954852  0.87991912  0.50309670  1
  Zn  Zn100  1  0.86992944  0.75847927  0.62676038  1
  Zn  Zn101  1  0.24934827  0.37458699  0.62781087  1
  Zn  Zn102  1  -0.00086266  0.12760613  0.62472997  1
  Zn  Zn103  1  0.49821522  0.62326209  0.62573197  1
  Zn  Zn104  1  0.87377474  0.24607072  0.62389948  1
  Zn  Zn105  1  0.88164477  0.49432116  0.87171491  1
  Zn  Zn106  1  0.62688841  -0.00704090  0.61777950  1
  Zn  Zn107  1  0.18466027  0.19204606  0.18934244  1
  Zn  Zn108  1  0.18875777  0.19082574  0.69056626  1
  Zn  Zn109  1  0.18613707  0.68794919  0.18902080  1
  Zn  Zn110  1  0.18767345  0.68673058  0.68876141  1
  Zn  Zn111  1  0.68321266  0.18712405  0.18814051  1
  Zn  Zn112  1  0.68852259  0.19275994  0.68584609  1
  Zn  Zn113  1  0.68676462  0.68687256  0.18825091  1
  Zn  Zn114  1  0.68503521  0.68251511  0.68618824  1
  Zn  Zn115  1  0.31734987  0.31361565  0.30938725  1
  Zn  Zn116  1  0.30705758  0.31067936  0.80991203  1
  Zn  Zn117  1  0.31231989  0.81433786  0.31316176  1
  Zn  Zn118  1  0.31054474  0.81062347  0.81476678  1
  Zn  Zn119  1  0.81491044  0.31111038  0.31297204  1
  Zn  Zn120  1  0.81514904  0.31128748  0.81215869  1
  Zn  Zn121  1  0.81346846  0.81696028  0.31716949  1
  Zn  Zn122  1  0.81458555  0.81003671  0.81621478  1
  Zn  Zn123  1  0.18898655  0.43824937  0.44018204  1
  Zn  Zn124  1  0.19194731  0.43368224  0.94445661  1
  Zn  Zn125  1  0.18780075  0.94318099  0.43538601  1
  Zn  Zn126  1  0.19028887  0.93581757  0.93667677  1
  Zn  Zn127  1  0.68816197  0.43837576  0.43643460  1
  Zn  Zn128  1  0.68960644  0.43388493  0.93706333  1
  Zn  Zn129  1  0.69078267  0.94096510  0.43444170  1
  Zn  Zn130  1  0.68688773  0.93710136  0.93378049  1
  Zn  Zn131  1  0.31020731  0.06456656  0.06272103  1
  Zn  Zn132  1  0.31157757  0.06545776  0.56406216  1
  Zn  Zn133  1  0.31150966  0.55593161  0.06359775  1
  Zn  Zn134  1  0.30998850  0.56375741  0.56077047  1
  Zn  Zn135  1  0.80914209  0.05951890  0.05612177  1
  Zn  Zn136  1  0.80792801  0.05882629  0.56893639  1
  Zn  Zn137  1  0.81567670  0.56035810  0.06321381  1
  Zn  Zn138  1  0.81184881  0.56125628  0.56145410  1
  Zn  Zn139  1  0.43996002  0.44201793  0.18882076  1
  Zn  Zn140  1  0.44022531  0.43406018  0.68927145  1
  Zn  Zn141  1  0.43687308  0.94093418  0.18939675  1
  Zn  Zn142  1  0.43879570  0.94014669  0.68930869  1
  Zn  Zn143  1  0.93597899  0.43944698  0.18561696  1
  Zn  Zn144  1  0.94321231  0.43431189  0.68706336  1
  Zn  Zn145  1  0.96592522  0.98030074  0.26326856  1
  Zn  Zn146  1  0.93131672  0.93664776  0.68370617  1
  Zn  Zn147  1  0.06669432  0.11339039  0.30754217  1
  Zn  Zn148  1  0.05728792  0.06227961  0.81358434  1
  Zn  Zn149  1  0.06366081  0.56087533  0.31175866  1
  Zn  Zn150  1  0.06459930  0.56208215  0.81267391  1
  Zn  Zn151  1  0.56536746  0.06373284  0.31320686  1
  Zn  Zn152  1  0.55857264  0.06023302  0.80838520  1
  Zn  Zn153  1  0.56168875  0.56307135  0.31003488  1
  Zn  Zn154  1  0.56086350  0.55458698  0.81203064  1
  Zn  Zn155  1  0.44028806  0.18906919  0.43926474  1
  Zn  Zn156  1  0.43822563  0.19252644  0.93599910  1
  Zn  Zn157  1  0.43703806  0.68825970  0.43587782  1
  Zn  Zn158  1  0.43595199  0.68371698  0.93852762  1
  Zn  Zn159  1  0.94186067  0.18403252  0.43536886  1
  Zn  Zn160  1  0.93569307  0.18622747  0.93789566  1
  Zn  Zn161  1  0.93453694  0.68998088  0.43883970  1
  Zn  Zn162  1  0.93860041  0.68424896  0.93958673  1
  Zn  Zn163  1  0.06073367  0.30827672  0.05434497  1
  Zn  Zn164  1  0.05453504  0.31339640  0.56861473  1
  Zn  Zn165  1  0.06261595  0.81539582  0.06669257  1
  Zn  Zn166  1  0.05995964  0.81720710  0.56071941  1
  Zn  Zn167  1  0.56473026  0.31150560  0.05540968  1
  Zn  Zn168  1  0.55700784  0.30914753  0.56590185  1
  Zn  Zn169  1  0.56372220  0.81073214  0.06014340  1
  Zn  Zn170  1  0.56006641  0.80822209  0.56172714  1
  O  O171  1  0.11750072  0.11794873  0.11895746  1
  O  O172  1  0.12943493  0.11680462  0.61941082  1
  O  O173  1  0.11792151  0.62422119  0.11940529  1
  O  O174  1  0.11899800  0.62124424  0.62092215  1
  O  O175  1  0.61929582  0.11745369  0.11811751  1
  O  O176  1  0.61728850  0.12722559  0.61507201  1
  O  O177  1  0.61870993  0.61521459  0.12390258  1
  O  O178  1  0.62200585  0.61463343  0.61592209  1
  O  O179  1  0.37767693  0.39051115  0.37454107  1
  O  O180  1  0.36564739  0.38525883  0.87752695  1
  O  O181  1  0.38347358  0.88390142  0.37495862  1
  O  O182  1  0.37559843  0.88165788  0.88461565  1
  O  O183  1  0.87875315  0.38286562  0.38307557  1
  O  O184  1  0.86768191  0.37897141  0.89108592  1
  O  O185  1  0.87124760  0.87266451  0.39678717  1
  O  O186  1  0.87856197  0.87618456  0.88679218  1
  O  O187  1  0.26092787  0.00782997  0.36737752  1
  O  O188  1  0.25949764  0.00722440  0.87446192  1
  O  O189  1  0.25557899  0.50786965  0.36870780  1
  O  O190  1  0.25750157  0.51150212  0.88432481  1
  O  O191  1  0.74415112  0.01546853  0.36356465  1
  O  O192  1  0.76502631  -0.00878143  0.86923163  1
  O  O193  1  0.75774666  0.50962480  0.37441152  1
  O  O194  1  0.75083306  0.50959852  0.86791729  1
  O  O195  1  0.23636880  0.50203458  0.13197173  1
  O  O196  1  0.23470204  0.50388118  0.62425818  1
  O  O197  1  0.25687680  0.99037242  0.13328419  1
  O  O198  1  0.24418961  0.99376187  0.63058550  1
  O  O199  1  0.73794198  0.49498122  0.12323174  1
  O  O200  1  0.74201867  0.49938618  0.63132630  1
  O  O201  1  0.74179187  0.99317502  0.12790688  1
  O  O202  1  0.73903410  1.00001668  0.63314371  1
  O  O203  1  -0.00582531  0.37748061  0.26399239  1
  O  O204  1  0.00848086  0.36282796  0.75002778  1
  O  O205  1  0.01592102  0.88208970  0.23475402  1
  O  O206  1  -0.00036300  0.86205330  0.75169625  1
  O  O207  1  0.50597483  0.36781175  0.25008674  1
  O  O208  1  0.50462159  0.37720908  0.75962591  1
  O  O209  1  0.50577132  0.87359145  0.25614700  1
  O  O210  1  0.50272470  0.86607141  0.75734329  1
  O  O211  1  0.49644922  0.13119601  0.24386451  1
  O  O212  1  0.48967284  0.12048718  0.74139836  1
  O  O213  1  0.49136952  0.62466932  0.24034156  1
  O  O214  1  0.49011548  0.63056304  0.75124978  1
  O  O215  1  0.97810274  0.10959076  0.21993345  1
  O  O216  1  0.99684594  0.13664576  0.74911451  1
  O  O217  1  0.99907607  0.62221246  0.23660037  1
  O  O218  1  0.99406376  0.63377414  0.74792599  1
  O  O219  1  0.37088947  0.26170928  0.00097826  1
  O  O220  1  0.37434349  0.25418414  0.50764737  1
  O  O221  1  0.36585951  0.75900063  -0.00675422  1
  O  O222  1  0.36734464  0.75107452  0.50697990  1
  O  O223  1  0.86097406  0.25447548  -0.00242128  1
  O  O224  1  0.88017212  0.26426498  0.49697855  1
  O  O225  1  0.87022532  0.75506050  0.00497080  1
  O  O226  1  0.86072861  0.75132783  0.50248166  1
  O  O227  1  0.12700838  0.24014554  0.50971915  1
  O  O228  1  0.14379402  0.25609200  0.99720134  1
  O  O229  1  0.12879480  0.74968496  0.48940784  1
  O  O230  1  0.13185569  0.74474704  0.99413846  1
  O  O231  1  0.61963807  0.24437381  0.48804887  1
  O  O232  1  0.63883662  0.24140286  1.00257907  1
  O  O233  1  0.63353225  0.74520621  0.49426977  1
  O  O234  1  0.63300525  0.74552752  0.99260016  1
  O  O235  1  0.50876574  0.23823859  0.13210475  1
  O  O236  1  0.48644310  0.23755033  0.62198518  1
  O  O237  1  0.50509699  0.73462732  0.12459443  1
  O  O238  1  0.48972465  0.74569179  0.63083858  1
  O  O239  1  1.00246280  0.23135298  0.11802278  1
  O  O240  1  0.99144034  0.24730036  0.63712946  1
  O  O241  1  0.99021849  0.74098696  0.11761685  1
  O  O242  1  1.00088886  0.74436874  0.63296260  1
  O  O243  1  -0.00173192  0.26581100  0.37468879  1
  O  O244  1  -0.00029115  0.24719754  0.86296320  1
  O  O245  1  0.01260973  0.74864697  0.37621994  1
  O  O246  1  0.00947674  0.74836636  0.86990007  1
  O  O247  1  0.50887604  0.25225481  0.36662722  1
  O  O248  1  0.50787646  0.25368480  0.87493165  1
  O  O249  1  0.50678673  0.75717501  0.37140954  1
  O  O250  1  0.50379942  0.75207520  0.87076903  1
  O  O251  1  0.24710174  0.12942312  0.49337498  1
  O  O252  1  0.25883153  0.13615463  0.98884085  1
  O  O253  1  0.24199602  0.63300548  0.49291012  1
  O  O254  1  0.24718663  0.63074582  0.99613480  1
  O  O255  1  0.74560186  0.12256088  0.48732425  1
  O  O256  1  0.74271320  0.13717799  1.00085641  1
  O  O257  1  0.74618306  0.63144647  0.48964917  1
  O  O258  1  0.75049448  0.62677244  0.99064205  1
  O  O259  1  0.26310599  0.36199862  0.00054650  1
  O  O260  1  0.25335206  0.37536666  0.50726655  1
  O  O261  1  0.25627248  0.86833470  0.00705800  1
  O  O262  1  0.25230964  0.87153724  0.50793962  1
  O  O263  1  0.75335644  0.36281437  0.00601530  1
  O  O264  1  0.76618097  0.38105735  0.49841982  1
  O  O265  1  0.75571800  0.86815575  0.00284007  1
  O  O266  1  0.74878425  0.86333051  0.49752106  1
  O  O267  1  0.13384253  0.50516491  0.23996018  1
  O  O268  1  0.11499795  0.48731880  0.74222742  1
  O  O269  1  0.14236395  0.99188224  0.25273052  1
  O  O270  1  0.13247818  0.99813557  0.74558366  1
  O  O271  1  0.62593711  0.49244770  0.24184748  1
  O  O272  1  0.63534703  0.50759654  0.73845865  1
  O  O273  1  0.63382700  0.99919931  0.23869866  1
  O  O274  1  0.62443090  0.98031603  0.75567696  1
  O  O275  1  0.36929833  0.00810516  0.25840942  1
  O  O276  1  0.36829603  0.00716477  0.75854681  1
  O  O277  1  0.36906682  0.50883320  0.25548014  1
  O  O278  1  0.37902428  0.50984864  0.75809196  1
  O  O279  1  0.85847545  0.01201808  0.24005734  1
  O  O280  1  0.87763865  0.00789665  0.75753989  1
  O  O281  1  0.87254396  0.50357555  0.26191141  1
  O  O282  1  0.87165472  0.50724612  0.75070469  1
  O  O283  1  0.11029249  0.38170887  0.37741017  1
  O  O284  1  0.12663301  0.38455956  0.86302737  1
  O  O285  1  0.13070040  0.86509209  0.36620192  1
  O  O286  1  0.12569751  0.86153536  0.87343573  1
  O  O287  1  0.62574590  0.36788197  0.36860155  1
  O  O288  1  0.62515460  0.37333553  0.87015529  1
  O  O289  1  0.61883648  0.87310436  0.36897166  1
  O  O290  1  0.61785871  0.86581585  0.86842210  1
  O  O291  1  0.38523865  0.11829652  0.13725008  1
  O  O292  1  0.38158228  0.12718772  0.63328130  1
  O  O293  1  0.38443470  0.61619294  0.13222845  1
  O  O294  1  0.37209293  0.62836593  0.63542964  1
  O  O295  1  0.85909087  0.13313432  0.12930593  1
  O  O296  1  0.87962516  0.12084590  0.63942301  1
  O  O297  1  0.88194985  0.63349577  0.12701405  1
  O  O298  1  0.87978239  0.62640734  0.63559995  1
  O  O299  1  0.25195593  0.23944718  0.11221694  1
  O  O300  1  0.26514422  0.24630200  0.62392218  1
  O  O301  1  0.25009306  0.75396694  0.11383950  1
  O  O302  1  0.25224283  0.75822763  0.61966821  1
  O  O303  1  0.74377216  0.26091219  0.12296608  1
  O  O304  1  0.76109420  0.25422155  0.62803482  1
  O  O305  1  0.75524336  0.75369787  0.11922582  1
  O  O306  1  0.74812835  0.74355739  0.60943477  1
  O  O307  1  0.25928296  0.23904639  0.37511832  1
  O  O308  1  0.25381474  0.23732117  0.88260509  1
  O  O309  1  0.24573805  0.74599876  0.38146420  1
  O  O310  1  0.24366214  0.74113826  0.88457652  1
  O  O311  1  0.74083425  0.23855485  0.36770605  1
  O  O312  1  0.74869180  0.24930198  0.88436379  1
  O  O313  1  0.74368926  0.74454712  0.38328267  1
  O  O314  1  0.74649538  0.73709204  0.87876417  1
  O  O315  1  -0.00428871  0.11424934  0.00690807  1
  O  O316  1  0.01088734  0.12208780  0.50303333  1
  O  O317  1  0.00533136  0.61727850  0.00990040  1
  O  O318  1  0.00428370  0.62164350  0.50484293  1
  O  O319  1  0.50594784  0.12503897  0.00769430  1
  O  O320  1  0.51024665  0.12661069  0.50750650  1
  O  O321  1  0.49922411  0.61450360  0.00775200  1
  O  O322  1  0.50530239  0.61577251  0.49946826  1
  O  O323  1  0.49750341  0.38906297  0.49750074  1
  O  O324  1  0.48659480  0.38091648  1.00584338  1
  O  O325  1  0.49927434  0.87119700  0.48619665  1
  O  O326  1  0.49249542  0.87552901  0.99480785  1
  O  O327  1  0.99234522  0.38238877  0.48947711  1
  O  O328  1  0.98942467  0.38228705  1.00530328  1
  O  O329  1  0.99494358  0.88708351  0.49517124  1
  O  O330  1  0.99267971  0.88365728  1.00133036  1
  O  O331  1  0.49184368  0.50136434  0.38081793  1
  O  O332  1  0.48902155  0.50631583  0.88898276  1
  O  O333  1  0.49236823  0.99178314  0.36699161  1
  O  O334  1  0.48688719  0.99269722  0.87635750  1
  O  O335  1  0.99284757  0.49638901  0.37971780  1
  O  O336  1  1.00083544  0.50845075  0.89159497  1
  O  O337  1  1.00979283  1.02714525  0.35383601  1
  O  O338  1  0.99028062  0.99678415  0.88519360  1
  O  O339  1  -0.00401520  0.00948265  0.10695182  1
  O  O340  1  0.01565644  0.00047933  0.63298000  1
  O  O341  1  0.00724086  0.50708028  0.11814968  1
  O  O342  1  0.00734143  0.50779043  0.61855214  1
  O  O343  1  0.50844477  0.00999508  0.12490537  1
  O  O344  1  0.50494280  0.01158248  0.62750493  1
  O  O345  1  0.50989371  0.50590808  0.11735643  1
  O  O346  1  0.50505172  0.50278462  0.61689669  1
  O  O347  1  0.25335365  0.38786880  0.25224663  1
  O  O348  1  0.23026560  0.36899052  0.74611945  1
  O  O349  1  0.25106310  0.88184002  0.24186174  1
  O  O350  1  0.24951352  0.88079929  0.74267699  1
  O  O351  1  0.74616052  0.37672927  0.24251249  1
  O  O352  1  0.75988864  0.38892509  0.74644847  1
  O  O353  1  0.74432422  0.88419855  0.24685147  1
  O  O354  1  0.73465139  0.86584689  0.75358481  1
  O  O355  1  0.26010788  0.11983345  0.25560188  1
  O  O356  1  0.25700075  0.12163286  0.76294894  1
  O  O357  1  0.25643342  0.61917611  0.25319059  1
  O  O358  1  0.25786024  0.62984265  0.76253187  1
  O  O359  1  0.75706134  0.12281577  0.25353659  1
  O  O360  1  0.76348979  0.12588993  0.75242631  1
  O  O361  1  0.75109315  0.62479614  0.26315021  1
  O  O362  1  0.75804192  0.61933283  0.75492073  1
  O  O363  1  0.37467709  0.11935323  0.36598097  1
  O  O364  1  0.37276241  0.11813091  0.86986776  1
  O  O365  1  0.37013674  0.61683302  0.36744966  1
  O  O366  1  0.36735776  0.61659309  0.87012026  1
  O  O367  1  0.86352821  0.13255544  0.36476759  1
  O  O368  1  0.88001521  0.11487739  0.86411864  1
  O  O369  1  0.86846703  0.61994013  0.37360496  1
  O  O370  1  0.86882485  0.62351313  0.86387113  1
  O  O371  1  0.11630690  0.38167307  0.12766622  1
  O  O372  1  0.12311124  0.38507006  0.63045754  1
  O  O373  1  0.14137297  0.86770626  0.13304073  1
  O  O374  1  0.13570422  0.88075389  0.62616973  1
  O  O375  1  0.63068790  0.38133407  0.12915044  1
  O  O376  1  0.62608914  0.38856256  0.61401586  1
  O  O377  1  0.62868418  0.88171714  0.12839043  1
  O  O378  1  0.61522661  0.87171047  0.64036541  1
  O  O379  1  0.10290891  0.21077505  0.25994864  1
  O  O380  1  0.11386324  0.26028161  0.74815988  1
  O  O381  1  0.13072124  0.75964511  0.26276549  1
  O  O382  1  0.11777298  0.74918015  0.75943592  1
  O  O383  1  0.61535293  0.25339587  0.25790247  1
  O  O384  1  0.61883739  0.25385811  0.75036246  1
  O  O385  1  0.62398427  0.75808658  0.25609824  1
  O  O386  1  0.61794019  0.75442888  0.75379361  1
  O  O387  1  0.38988182  0.24184945  0.25387929  1
  O  O388  1  0.37061691  0.23826522  0.74491652  1
  O  O389  1  0.37475863  0.73546508  0.25383547  1
  O  O390  1  0.37738376  0.74025300  0.74695002  1
  O  O391  1  0.88230943  0.23957065  0.24739646  1
  O  O392  1  0.88443603  0.24060275  0.75400889  1
  O  O393  1  0.86950116  0.75329980  0.23726824  1
  O  O394  1  0.88197608  0.74340093  0.74744958  1
  O  O395  1  0.38190789  0.50391094  0.49152904  1
  O  O396  1  0.37916645  0.48677969  0.99556466  1
  O  O397  1  0.37170672  1.00086434  0.48625502  1
  O  O398  1  0.37586825  0.99248920  0.99345799  1
  O  O399  1  0.88117529  0.49792996  0.48910163  1
  O  O400  1  0.88415746  0.49299440  0.99874890  1
  O  O401  1  0.88120372  0.99592836  0.49883845  1
  O  O402  1  0.87839995  0.99156636  0.99372831  1
  O  O403  1  0.11019748  -0.00825677  -0.00429248  1
  O  O404  1  0.12504709  0.00754523  0.50879569  1
  O  O405  1  0.12053807  0.50191480  0.01036621  1
  O  O406  1  0.11851711  0.50924421  0.50618998  1
  O  O407  1  0.62493046  0.00396106  0.00941667  1
  O  O408  1  0.62499063  0.01249804  0.49635295  1
  O  O409  1  0.61620393  0.49802603  0.00566211  1
  O  O410  1  0.61769095  0.50591710  0.50235835  1
  O  O411  1  0.37493977  0.37695371  0.11755344  1
  O  O412  1  0.37301625  0.36646996  0.62640680  1
  O  O413  1  0.37007372  0.87752270  0.11378963  1
  O  O414  1  0.36534073  0.87220592  0.62485562  1
  O  O415  1  0.86313548  0.38263165  0.11389538  1
  O  O416  1  0.87833634  0.38184903  0.60560840  1
  O  O417  1  0.86685196  0.86641993  0.11135219  1
  O  O418  1  0.87878330  0.87278123  0.60397565  1
  O  O419  1  0.14436780  0.11850989  0.39282278  1
  O  O420  1  0.14119618  0.11929550  0.87398417  1
  O  O421  1  0.12867885  0.63689704  0.37712047  1
  O  O422  1  0.13274849  0.63098060  0.88135707  1
  O  O423  1  0.63217887  0.13216558  0.38055462  1
  O  O424  1  0.62108227  0.11191451  0.88818317  1
  O  O425  1  0.63140678  0.62941476  0.37916368  1
  O  O426  1  0.63309795  0.62806815  0.87463344  1
