# generated using pymatgen
data_V85Zn86O256
_symmetry_space_group_name_H-M   'P 1'
_cell_length_a   16.99688578
_cell_length_b   16.99266070
_cell_length_c   17.00033145
_cell_angle_alpha   90.02962035
_cell_angle_beta   90.14102686
_cell_angle_gamma   89.88879686
_symmetry_Int_Tables_number   1
_chemical_formula_structural   V85Zn86O256
_chemical_formula_sum   'V85 Zn86 O256'
_cell_volume   4910.05028477
_cell_formula_units_Z   1
loop_
 _symmetry_equiv_pos_site_id
 _symmetry_equiv_pos_as_xyz
  1  'x, y, z'
loop_
 _atom_site_type_symbol
 _atom_site_label
 _atom_site_symmetry_multiplicity
 _atom_site_fract_x
 _atom_site_fract_y
 _atom_site_fract_z
 _atom_site_occupancy
  V  V0  1  0.38301318  0.12559292  0.24966695  1
  V  V1  1  0.00226327  0.87469274  0.36934084  1
  V  V2  1  0.62413895  0.87543998  0.74854864  1
  V  V3  1  0.50261642  0.49440414  0.50010396  1
  V  V4  1  0.62551774  0.62427217  0.50537284  1
  V  V5  1  0.37790015  0.37322003  0.49450890  1
  V  V6  1  0.37388987  0.87536600  -0.00252331  1
  V  V7  1  0.86128558  0.36333844  0.00705130  1
  V  V8  1  0.24499919  0.00435930  0.75282896  1
  V  V9  1  0.87671981  0.87602762  0.50033970  1
  V  V10  1  0.75352867  0.37233613  0.62741357  1
  V  V11  1  0.62465836  0.00204286  0.62286454  1
  V  V12  1  0.11962789  0.26222325  0.37208772  1
  V  V13  1  0.55867723  0.56740418  0.16535193  1
  V  V14  1  -0.00332711  0.63650706  0.12923960  1
  V  V15  1  0.37028428  0.61194190  0.75108261  1
  V  V16  1  0.12287389  0.49275627  0.13117193  1
  V  V17  1  0.24740995  0.48696642  0.25072221  1
  V  V18  1  0.87403345  0.62547386  0.75067544  1
  V  V19  1  0.62288646  0.26429749  0.37760059  1
  V  V20  1  -0.00389960  0.49368322  0.00112244  1
  V  V21  1  0.73347413  0.37520204  0.13801618  1
  V  V22  1  0.62767976  0.49974230  0.62766060  1
  V  V23  1  0.49429335  0.87856834  0.87399899  1
  V  V24  1  0.36908092  0.12864750  0.75580922  1
  V  V25  1  0.25170078  0.74578933  -0.00546771  1
  V  V26  1  0.24671947  0.88170303  0.62180885  1
  V  V27  1  0.50545186  0.00555893  0.00591613  1
  V  V28  1  0.87406091  0.00155810  0.37644304  1
  V  V29  1  0.87709460  0.49304304  0.37322970  1
  V  V30  1  0.12673592  0.62001282  -0.00314852  1
  V  V31  1  0.37891104  0.74619580  0.12169624  1
  V  V32  1  0.24792778  0.24880979  0.49749838  1
  V  V33  1  0.24877008  0.36445986  0.10931659  1
  V  V34  1  0.12287014  0.87845699  0.74289395  1
  V  V35  1  0.13163691  0.13705830  -0.00714058  1
  V  V36  1  0.87826788  0.24147387  0.63812864  1
  V  V37  1  0.12714813  0.00234804  0.12193607  1
  V  V38  1  0.50039205  0.74997151  0.24450569  1
  V  V39  1  0.87420076  0.00678987  0.87360280  1
  V  V40  1  -0.00689079  0.35430168  0.87313232  1
  V  V41  1  0.49718062  0.74893233  0.74931160  1
  V  V42  1  -0.00126259  -0.00048010  0.00074899  1
  V  V43  1  0.79165528  0.68546079  0.93067011  1
  V  V44  1  0.49788886  0.12634078  0.62483538  1
  V  V45  1  0.75182650  0.62202313  0.37464198  1
  V  V46  1  0.25533643  0.00084512  0.25049438  1
  V  V47  1  0.49863890  0.27079864  0.25789524  1
  V  V48  1  0.37878489  0.49697895  0.37289497  1
  V  V49  1  0.00870290  0.61716347  0.62688343  1
  V  V50  1  0.01077430  0.00144424  0.50303428  1
  V  V51  1  0.00517358  0.12308925  0.63619683  1
  V  V52  1  0.38046507  0.24811608  0.11297515  1
  V  V53  1  0.62305965  0.75210923  0.37755466  1
  V  V54  1  0.24955802  0.12118769  0.37360789  1
  V  V55  1  0.25093755  0.87322653  0.12131923  1
  V  V56  1  0.88079138  0.12307114  0.25063394  1
  V  V57  1  0.75975706  0.86735745  0.11790267  1
  V  V58  1  0.87117687  0.49936474  0.87908835  1
  V  V59  1  0.12476567  0.86676419  0.24628791  1
  V  V60  1  0.74994975  0.74981678  0.50252579  1
  V  V61  1  0.88207878  0.37108555  0.50136133  1
  V  V62  1  0.00569482  0.50082303  0.49971188  1
  V  V63  1  0.73787254  0.13308036  0.88044310  1
  V  V64  1  0.49147728  0.00073600  0.49728663  1
  V  V65  1  0.00227097  0.87444578  0.87343731  1
  V  V66  1  0.62840328  0.87920917  0.24631720  1
  V  V67  1  0.48647648  0.50441721  -0.00841676  1
  V  V68  1  0.49328124  0.87915855  0.37277568  1
  V  V69  1  0.25112647  0.60424311  0.87075633  1
  V  V70  1  0.75316631  0.00630071  0.74943053  1
  V  V71  1  0.62405158  0.61872334  -0.00481684  1
  V  V72  1  0.49015246  0.38242029  0.87514700  1
  V  V73  1  0.23807560  0.39378027  0.61842445  1
  V  V74  1  0.50404767  0.25048648  0.75172975  1
  V  V75  1  0.12696471  0.74449089  0.37603000  1
  V  V76  1  0.74945141  0.50236593  0.75774391  1
  V  V77  1  0.62466847  0.74902940  0.87914331  1
  V  V78  1  0.62719937  0.37070599  0.75884733  1
  V  V79  1  0.87873636  0.74971195  0.62323398  1
  V  V80  1  0.37367737  0.75320456  0.62428114  1
  V  V81  1  0.00035439  0.26571934  0.24995707  1
  V  V82  1  0.37145923  0.62184143  0.24333891  1
  V  V83  1  0.37191636  0.25154293  0.62092009  1
  V  V84  1  0.15653957  0.35396898  0.78466209  1
  Zn  Zn85  1  0.62517393  0.12710226  0.49588506  1
  Zn  Zn86  1  0.75124602  0.87782172  0.62391653  1
  Zn  Zn87  1  0.65756348  0.17108353  0.03407031  1
  Zn  Zn88  1  0.37212633  0.87587190  0.49453277  1
  Zn  Zn89  1  0.74083014  0.50116864  0.24799043  1
  Zn  Zn90  1  0.25007403  0.62414568  0.37518242  1
  Zn  Zn91  1  0.23661042  0.17208609  0.86696562  1
  Zn  Zn92  1  0.49882393  0.62392153  0.62584563  1
  Zn  Zn93  1  0.87301199  0.63302723  0.24161657  1
  Zn  Zn94  1  0.13024295  0.62237137  0.50863388  1
  Zn  Zn95  1  0.62973720  0.00886968  0.12273324  1
  Zn  Zn96  1  0.37091737  0.01357679  0.87985809  1
  Zn  Zn97  1  0.12426168  0.12430804  0.50006816  1
  Zn  Zn98  1  0.00364441  0.74735187  0.74902066  1
  Zn  Zn99  1  0.25089942  0.74857392  0.49905625  1
  Zn  Zn100  1  0.87506661  0.86007307  -0.00010881  1
  Zn  Zn101  1  0.75272826  0.24598718  0.49923153  1
  Zn  Zn102  1  0.74496501  0.12468859  0.37685114  1
  Zn  Zn103  1  0.12839451  0.74558487  0.86918617  1
  Zn  Zn104  1  0.86597201  0.24517592  0.12830686  1
  Zn  Zn105  1  0.00094663  0.12776101  0.12514929  1
  Zn  Zn106  1  0.75287374  0.00157701  0.24761841  1
  Zn  Zn107  1  0.18588299  0.18835918  0.18765049  1
  Zn  Zn108  1  0.18150962  0.19565593  0.68346615  1
  Zn  Zn109  1  0.18867297  0.68263896  0.18497928  1
  Zn  Zn110  1  0.19108808  0.69163718  0.68943195  1
  Zn  Zn111  1  0.68861007  0.19209436  0.20272917  1
  Zn  Zn112  1  0.68969138  0.18572346  0.68767678  1
  Zn  Zn113  1  0.69283031  0.69477832  0.19053893  1
  Zn  Zn114  1  0.69019960  0.68761861  0.69019932  1
  Zn  Zn115  1  0.31123470  0.30932792  0.31263642  1
  Zn  Zn116  1  0.32392429  0.32238862  0.80347353  1
  Zn  Zn117  1  0.31136679  0.81030758  0.30955788  1
  Zn  Zn118  1  0.30864814  0.80948237  0.81054347  1
  Zn  Zn119  1  0.81020852  0.31278905  0.31255973  1
  Zn  Zn120  1  0.81438306  0.31049693  0.81519228  1
  Zn  Zn121  1  0.81233203  0.81044526  0.30798398  1
  Zn  Zn122  1  0.81787611  0.82355847  0.80506432  1
  Zn  Zn123  1  0.18937321  0.43868960  0.43777680  1
  Zn  Zn124  1  0.18016542  0.43027005  0.94046533  1
  Zn  Zn125  1  0.18945118  0.93600150  0.43380192  1
  Zn  Zn126  1  0.18663963  0.94002846  0.93397158  1
  Zn  Zn127  1  0.69321696  0.43457931  0.43994271  1
  Zn  Zn128  1  0.68304271  0.43644576  0.94169360  1
  Zn  Zn129  1  0.68690707  0.93763484  0.43726025  1
  Zn  Zn130  1  0.68809265  0.93648155  0.93814816  1
  Zn  Zn131  1  0.31259987  0.06868021  0.05814368  1
  Zn  Zn132  1  0.31110959  0.06320960  0.56421442  1
  Zn  Zn133  1  0.30826863  0.55878511  0.06471966  1
  Zn  Zn134  1  0.31580062  0.56773500  0.55910341  1
  Zn  Zn135  1  0.81120383  0.05787027  0.06586154  1
  Zn  Zn136  1  0.81372362  0.06544156  0.55948816  1
  Zn  Zn137  1  0.81278032  0.55579760  0.06987415  1
  Zn  Zn138  1  0.81738294  0.56021499  0.56364557  1
  Zn  Zn139  1  0.42754757  0.43166464  0.18146431  1
  Zn  Zn140  1  0.43893839  0.43418038  0.68023953  1
  Zn  Zn141  1  0.43746808  0.93774763  0.18463893  1
  Zn  Zn142  1  0.43323202  0.94098628  0.68724666  1
  Zn  Zn143  1  0.93020181  0.44238888  0.18736015  1
  Zn  Zn144  1  0.93842520  0.43684594  0.68779942  1
  Zn  Zn145  1  0.93844656  0.93574699  0.18614252  1
  Zn  Zn146  1  0.93794731  0.94175045  0.68698938  1
  Zn  Zn147  1  0.06552804  0.06284653  0.31164859  1
  Zn  Zn148  1  0.06586611  0.06230165  0.81534796  1
  Zn  Zn149  1  0.05886888  0.55782024  0.31179761  1
  Zn  Zn150  1  0.06745852  0.54153844  0.80975810  1
  Zn  Zn151  1  0.56548167  0.06428946  0.31502376  1
  Zn  Zn152  1  0.56070581  0.06209973  0.81281957  1
  Zn  Zn153  1  0.56059840  0.56269004  0.32863046  1
  Zn  Zn154  1  0.56298332  0.56571241  0.81371192  1
  Zn  Zn155  1  0.43780865  0.18434791  0.43199594  1
  Zn  Zn156  1  0.49222850  0.21041495  0.95714496  1
  Zn  Zn157  1  0.43747316  0.68522440  0.43596035  1
  Zn  Zn158  1  0.43685780  0.68274587  0.93369870  1
  Zn  Zn159  1  0.94026325  0.18737681  0.43919311  1
  Zn  Zn160  1  0.93242854  0.18055693  0.94312823  1
  Zn  Zn161  1  0.92366133  0.70110066  0.40710549  1
  Zn  Zn162  1  0.95620805  0.68435485  0.93550362  1
  Zn  Zn163  1  0.05729683  0.31333881  0.06635637  1
  Zn  Zn164  1  0.06020835  0.30789176  0.56361656  1
  Zn  Zn165  1  0.06628736  0.81107793  0.05705704  1
  Zn  Zn166  1  0.06273941  0.80957396  0.55944977  1
  Zn  Zn167  1  0.55530639  0.32380989  0.06883403  1
  Zn  Zn168  1  0.56501066  0.31370875  0.56501675  1
  Zn  Zn169  1  0.56508084  0.81492169  0.06176901  1
  Zn  Zn170  1  0.56054909  0.81549435  0.56245136  1
  O  O171  1  0.12568745  0.11581130  0.11616521  1
  O  O172  1  0.10882841  0.13129398  0.61973234  1
  O  O173  1  0.12069143  0.61417217  0.11550299  1
  O  O174  1  0.11206808  0.63075506  0.63078686  1
  O  O175  1  0.63952290  0.12147086  0.13115081  1
  O  O176  1  0.61604118  0.11761102  0.62391824  1
  O  O177  1  0.62365838  0.63264636  0.11615229  1
  O  O178  1  0.62377091  0.61851628  0.62263049  1
  O  O179  1  0.36936966  0.38123818  0.38695509  1
  O  O180  1  0.39118495  0.38598839  0.86552771  1
  O  O181  1  0.38955381  0.86832760  0.37290918  1
  O  O182  1  0.38482795  0.87105814  0.87663255  1
  O  O183  1  0.86651829  0.38586490  0.38603427  1
  O  O184  1  0.87501674  0.37690739  0.89102460  1
  O  O185  1  0.88524386  0.88525285  0.37788437  1
  O  O186  1  0.88702042  0.88321083  0.87736035  1
  O  O187  1  0.24580253  0.00664599  0.36169673  1
  O  O188  1  0.25416531  -0.00511737  0.85837878  1
  O  O189  1  0.26007953  0.50022253  0.36697358  1
  O  O190  1  0.24502853  0.50532220  0.87989489  1
  O  O191  1  0.76186469  -0.00160620  0.37237400  1
  O  O192  1  0.75628320  0.00137185  0.86851985  1
  O  O193  1  0.75102237  0.50625755  0.37060675  1
  O  O194  1  0.75389793  0.49373688  0.86466591  1
  O  O195  1  0.24300964  0.48715689  0.12956734  1
  O  O196  1  0.25011181  0.49193489  0.61506921  1
  O  O197  1  0.24087686  0.99495737  0.12555105  1
  O  O198  1  0.25523607  0.98894204  0.63498497  1
  O  O199  1  0.75460886  0.48315410  0.13197430  1
  O  O200  1  0.74956948  0.49342542  0.63791271  1
  O  O201  1  0.74942366  0.98533369  0.13010363  1
  O  O202  1  0.74253860  1.00184764  0.63130644  1
  O  O203  1  -0.00576170  0.36396672  0.24865935  1
  O  O204  1  -0.01920932  0.37914685  0.77664102  1
  O  O205  1  0.01289677  0.88098958  0.25743279  1
  O  O206  1  0.00689818  0.87630226  0.75485626  1
  O  O207  1  0.49155705  0.36877803  0.25555329  1
  O  O208  1  0.50837921  0.37097447  0.75067265  1
  O  O209  1  0.50659026  0.87259102  0.25553610  1
  O  O210  1  0.50233701  0.86925710  0.75567640  1
  O  O211  1  0.48385239  0.12258073  0.25646497  1
  O  O212  1  0.49036537  0.13266449  0.74734523  1
  O  O213  1  0.49838812  0.62438418  0.23872683  1
  O  O214  1  0.48902122  0.63365439  0.75052020  1
  O  O215  1  0.99219304  0.12854892  0.24940855  1
  O  O216  1  1.00351451  0.11606892  0.73498464  1
  O  O217  1  1.00609003  0.62102541  0.22993231  1
  O  O218  1  0.99055754  0.61833900  0.74728633  1
  O  O219  1  0.39186448  0.24263099  0.01560395  1
  O  O220  1  0.37141672  0.25740972  0.49994087  1
  O  O221  1  0.37155460  0.75318172  0.00208134  1
  O  O222  1  0.37833699  0.74994587  0.51354443  1
  O  O223  1  0.87526715  0.26082028  0.00642623  1
  O  O224  1  0.87493895  0.25779032  0.50423865  1
  O  O225  1  0.86528599  0.74139196  -0.01889829  1
  O  O226  1  0.87151826  0.75541997  0.50467010  1
  O  O227  1  0.12714248  0.24751044  0.48581443  1
  O  O228  1  0.11716335  0.23368206  1.00739201  1
  O  O229  1  0.12909390  0.74613361  0.48980782  1
  O  O230  1  0.13122711  0.73366198  0.99619442  1
  O  O231  1  0.62267886  0.25062915  0.48897967  1
  O  O232  1  0.59181440  0.24885864  0.99508639  1
  O  O233  1  0.62848302  0.74459790  0.49870206  1
  O  O234  1  0.61839693  0.74277846  0.98552626  1
  O  O235  1  0.48523797  0.25920622  0.14202638  1
  O  O236  1  0.49389651  0.24681671  0.63206801  1
  O  O237  1  0.49121121  0.75845813  0.13213612  1
  O  O238  1  0.49527873  0.75053054  0.63662301  1
  O  O239  1  0.99737959  0.24831306  0.14114119  1
  O  O240  1  0.98794211  0.23619447  0.62050599  1
  O  O241  1  1.00567561  0.73468272  0.11763519  1
  O  O242  1  0.99004238  0.74233243  0.62625682  1
  O  O243  1  0.01240958  0.24721922  0.36658391  1
  O  O244  1  -0.01431025  0.25593351  0.87513437  1
  O  O245  1  0.01380712  0.76893170  0.38462161  1
  O  O246  1  0.00699258  0.75974004  0.86905108  1
  O  O247  1  0.50528624  0.25122719  0.36575504  1
  O  O248  1  0.49336801  0.26306897  0.85580933  1
  O  O249  1  0.50580059  0.75404370  0.36733532  1
  O  O250  1  0.50465459  0.75520787  0.86485272  1
  O  O251  1  0.24825745  0.12877468  0.49179115  1
  O  O252  1  0.23562887  0.12534125  0.99147696  1
  O  O253  1  0.24655601  0.62836778  0.49363999  1
  O  O254  1  0.24338011  0.62418723  0.99186495  1
  O  O255  1  0.74512064  0.12806112  0.49530809  1
  O  O256  1  0.75058798  0.12054530  0.98671501  1
  O  O257  1  0.74266920  0.62834197  0.49913341  1
  O  O258  1  0.74365402  0.62190119  1.00024874  1
  O  O259  1  0.25012177  0.37303933  0.01132098  1
  O  O260  1  0.25889150  0.37077404  0.50411395  1
  O  O261  1  0.25377196  0.86802744  0.00114480  1
  O  O262  1  0.25386129  0.87472987  0.50705174  1
  O  O263  1  0.75773615  0.37794279  0.00908956  1
  O  O264  1  0.76236854  0.37448043  0.51234773  1
  O  O265  1  0.75331473  0.87611643  0.01255414  1
  O  O266  1  0.75700902  0.86798744  0.50206801  1
  O  O267  1  0.13222104  0.50182917  0.23912116  1
  O  O268  1  0.12564809  0.45130146  0.76637113  1
  O  O269  1  0.13459950  0.99290476  0.23961439  1
  O  O270  1  0.13162709  0.98881294  0.75195142  1
  O  O271  1  0.61460174  0.51812187  0.23619128  1
  O  O272  1  0.63278190  0.49722381  0.74661620  1
  O  O273  1  0.62627423  0.98682259  0.25209518  1
  O  O274  1  0.62722321  0.99608034  0.73885501  1
  O  O275  1  0.36165603  0.00781440  0.23811111  1
  O  O276  1  0.36734380  0.01322419  0.75118477  1
  O  O277  1  0.36995614  0.50326012  0.25438567  1
  O  O278  1  0.38088376  0.51465466  0.74040458  1
  O  O279  1  0.87922568  0.00576339  0.25915045  1
  O  O280  1  0.86373738  -0.00729605  0.75966299  1
  O  O281  1  0.87508809  0.50939168  0.26267718  1
  O  O282  1  0.86851601  0.50699202  0.75891045  1
  O  O283  1  0.13097354  0.36034841  0.37441799  1
  O  O284  1  0.10117149  0.36505732  0.88553549  1
  O  O285  1  0.12217349  0.86824165  0.36454264  1
  O  O286  1  0.11378274  0.87598385  0.86786456  1
  O  O287  1  0.62320785  0.36407229  0.38083082  1
  O  O288  1  0.61739081  0.38211886  0.86157042  1
  O  O289  1  0.61689798  0.86910324  0.36919771  1
  O  O290  1  0.61364999  0.86907700  0.86943479  1
  O  O291  1  0.36383797  0.14198906  0.13442421  1
  O  O292  1  0.37907185  0.13184725  0.63247632  1
  O  O293  1  0.36950162  0.62815529  0.13596358  1
  O  O294  1  0.37633848  0.63435306  0.63488233  1
  O  O295  1  0.87847673  0.12556737  0.13484687  1
  O  O296  1  0.88273635  0.13594766  0.62231983  1
  O  O297  1  0.89132649  0.62203325  0.12453422  1
  O  O298  1  0.88325836  0.63095827  0.63342194  1
  O  O299  1  0.25696937  0.25983649  0.12903363  1
  O  O300  1  0.25508290  0.25268479  0.61159822  1
  O  O301  1  0.25659129  0.75244781  0.11566378  1
  O  O302  1  0.25883422  0.76190413  0.62456947  1
  O  O303  1  0.75108887  0.26695182  0.13505600  1
  O  O304  1  0.76187151  0.25267361  0.62427233  1
  O  O305  1  0.75226562  0.76738371  0.12895279  1
  O  O306  1  0.76273443  0.74959129  0.62085238  1
  O  O307  1  0.23880246  0.24360879  0.37705935  1
  O  O308  1  0.22637893  0.28811460  0.84700636  1
  O  O309  1  0.24206829  0.74852598  0.37570764  1
  O  O310  1  0.24771750  0.73946155  0.88075921  1
  O  O311  1  0.73390862  0.25198580  0.37546405  1
  O  O312  1  0.75264020  0.23091623  0.86821219  1
  O  O313  1  0.74079848  0.74197276  0.38477372  1
  O  O314  1  0.74150695  0.75414457  0.86670184  1
  O  O315  1  0.00856071  0.11463995  0.00268160  1
  O  O316  1  0.00165500  0.11500078  0.50553653  1
  O  O317  1  0.00900807  0.61386103  0.00836294  1
  O  O318  1  0.00130925  0.61516192  0.51343083  1
  O  O319  1  0.48992747  0.10196333  -0.00931479  1
  O  O320  1  0.49981635  0.11702952  0.50552396  1
  O  O321  1  0.50738054  0.61521948  -0.00324577  1
  O  O322  1  0.50631390  0.61319696  0.50087032  1
  O  O323  1  0.49272510  0.38678801  0.50730909  1
  O  O324  1  0.50283162  0.39527351  0.98940991  1
  O  O325  1  0.49795443  0.88169535  0.49057133  1
  O  O326  1  0.49328550  0.88033241  0.99020307  1
  O  O327  1  0.98831447  0.38200061  0.50749831  1
  O  O328  1  0.98716517  0.37798760  0.99585683  1
  O  O329  1  0.99543161  0.88308874  0.49540934  1
  O  O330  1  0.99965303  0.87927856  0.99109725  1
  O  O331  1  0.48715572  0.49857510  0.38358222  1
  O  O332  1  0.50247843  0.49869713  0.88438693  1
  O  O333  1  0.50644783  0.99032058  0.38561243  1
  O  O334  1  0.49319758  0.99104189  0.87770475  1
  O  O335  1  0.98698419  0.50630151  0.38426436  1
  O  O336  1  0.99115425  0.49851647  0.89064054  1
  O  O337  1  0.99847427  0.99113706  0.38192433  1
  O  O338  1  0.99442461  0.99457563  0.88098769  1
  O  O339  1  0.01252050  -0.00241210  0.11731311  1
  O  O340  1  -0.00842122  0.01398456  0.61553313  1
  O  O341  1  0.00651192  0.49934821  0.11605414  1
  O  O342  1  -0.00523622  0.50754709  0.61794776  1
  O  O343  1  0.50312091  -0.00670308  0.10961296  1
  O  O344  1  0.50632026  0.00502998  0.62034044  1
  O  O345  1  0.49701560  0.49926365  0.11528918  1
  O  O346  1  0.50857543  0.50262174  0.61725402  1
  O  O347  1  0.25549581  0.38459340  0.24256937  1
  O  O348  1  0.25081652  0.37294392  0.72459476  1
  O  O349  1  0.24610301  0.88246107  0.24208745  1
  O  O350  1  0.24295380  0.88193511  0.74273784  1
  O  O351  1  0.74915844  0.38116128  0.24243012  1
  O  O352  1  0.74494252  0.38026040  0.74793212  1
  O  O353  1  0.74365952  0.87492930  0.24451546  1
  O  O354  1  0.74084932  0.88691965  0.74646241  1
  O  O355  1  0.25399210  0.11809996  0.25461602  1
  O  O356  1  0.24862374  0.12211050  0.74690299  1
  O  O357  1  0.25745111  0.61150969  0.24990764  1
  O  O358  1  0.26171276  0.62596673  0.75545451  1
  O  O359  1  0.76881443  0.12544978  0.25941354  1
  O  O360  1  0.74478211  0.11147047  0.75929262  1
  O  O361  1  0.75052858  0.62362070  0.26111810  1
  O  O362  1  0.76440088  0.61660462  0.74587242  1
  O  O363  1  0.35868742  0.13059797  0.36513404  1
  O  O364  1  0.35647147  0.13584013  0.85797385  1
  O  O365  1  0.37703360  0.61662574  0.36075581  1
  O  O366  1  0.36694228  0.62606645  0.85905162  1
  O  O367  1  0.88049389  0.11163770  0.37224860  1
  O  O368  1  0.86618149  0.11016986  0.87903750  1
  O  O369  1  0.85662331  0.60705655  0.39422186  1
  O  O370  1  0.86832245  0.62448622  0.87206159  1
  O  O371  1  0.13615996  0.38007618  0.12068016  1
  O  O372  1  0.13998185  0.37926469  0.60531172  1
  O  O373  1  0.13111575  0.87939272  0.12826812  1
  O  O374  1  0.13333682  0.87122316  0.63103225  1
  O  O375  1  0.63518278  0.37886341  0.12718879  1
  O  O376  1  0.63298336  0.38173021  0.63510378  1
  O  O377  1  0.63463667  0.87601739  0.13292880  1
  O  O378  1  0.62560596  0.88291949  0.63170539  1
  O  O379  1  0.11152986  0.24638295  0.25953198  1
  O  O380  1  0.11464124  0.28072999  0.73096158  1
  O  O381  1  0.13408071  0.76232046  0.25229282  1
  O  O382  1  0.12452278  0.76423411  0.75105694  1
  O  O383  1  0.60622905  0.25186550  0.26267101  1
  O  O384  1  0.61661479  0.25963935  0.74152379  1
  O  O385  1  0.61849566  0.76017355  0.25575120  1
  O  O386  1  0.61687068  0.75197180  0.75787237  1
  O  O387  1  0.38512617  0.24445325  0.25063396  1
  O  O388  1  0.38171375  0.24621958  0.73788583  1
  O  O389  1  0.38049547  0.73924181  0.24468185  1
  O  O390  1  0.38088149  0.74583258  0.74045823  1
  O  O391  1  0.88840758  0.24356121  0.25661318  1
  O  O392  1  0.87372296  0.25025987  0.73595150  1
  O  O393  1  0.88534300  0.72929724  0.29841151  1
  O  O394  1  0.87758596  0.74318439  0.74147550  1
  O  O395  1  0.38300573  0.49554426  0.49238590  1
  O  O396  1  0.38818734  0.51008433  0.99966898  1
  O  O397  1  0.38829813  0.99717252  0.50607318  1
  O  O398  1  0.37848798  0.99139045  0.99731659  1
  O  O399  1  0.88326769  0.49024329  0.49784381  1
  O  O400  1  0.87965129  0.49063220  0.99719531  1
  O  O401  1  0.88263565  0.99368728  0.49328184  1
  O  O402  1  0.88890398  0.99746989  0.99523843  1
  O  O403  1  0.11747108  0.00431635  0.00430292  1
  O  O404  1  0.11341501  -0.00099404  0.49599445  1
  O  O405  1  0.11676514  0.50358539  0.00878786  1
  O  O406  1  0.10971262  0.50373900  0.48761589  1
  O  O407  1  0.60943224  -0.00657547  -0.00077823  1
  O  O408  1  0.61704547  -0.00246087  0.51241527  1
  O  O409  1  0.61718638  0.51390045  -0.00151903  1
  O  O410  1  0.61962090  0.50225238  0.50545550  1
  O  O411  1  0.36061594  0.36059098  0.12380367  1
  O  O412  1  0.36726131  0.37182380  0.61120286  1
  O  O413  1  0.36731593  0.86804221  0.11820211  1
  O  O414  1  0.36776254  0.86805049  0.62467342  1
  O  O415  1  0.87166440  0.37309476  0.11427384  1
  O  O416  1  0.87328795  0.36305293  0.62171790  1
  O  O417  1  0.86590890  0.87467090  0.12133412  1
  O  O418  1  0.87543425  0.86553270  0.62043359  1
  O  O419  1  0.13658294  0.13106622  0.37476282  1
  O  O420  1  0.12729528  0.12775834  0.88618131  1
  O  O421  1  0.12223385  0.63931770  0.36735664  1
  O  O422  1  0.12947725  0.61847779  0.87960086  1
  O  O423  1  0.62530537  0.13777769  0.37665398  1
  O  O424  1  0.63790368  0.12004558  0.87356315  1
  O  O425  1  0.63403083  0.63014143  0.38466935  1
  O  O426  1  0.62769459  0.63494057  0.88188807  1
