# generated using pymatgen
data_V85Zn86O256
_symmetry_space_group_name_H-M   'P 1'
_cell_length_a   16.94477848
_cell_length_b   16.95461320
_cell_length_c   16.94984796
_cell_angle_alpha   90.05675726
_cell_angle_beta   89.98406529
_cell_angle_gamma   89.96467979
_symmetry_Int_Tables_number   1
_chemical_formula_structural   V85Zn86O256
_chemical_formula_sum   'V85 Zn86 O256'
_cell_volume   4869.55501023
_cell_formula_units_Z   1
loop_
 _symmetry_equiv_pos_site_id
 _symmetry_equiv_pos_as_xyz
  1  'x, y, z'
loop_
 _atom_site_type_symbol
 _atom_site_label
 _atom_site_symmetry_multiplicity
 _atom_site_fract_x
 _atom_site_fract_y
 _atom_site_fract_z
 _atom_site_occupancy
  V  V0  1  0.50010968  0.75139188  0.25452759  1
  V  V1  1  0.12253899  0.37673617  0.25961594  1
  V  V2  1  0.00480838  0.37002715  0.84788020  1
  V  V3  1  0.12358841  0.75068907  0.37574091  1
  V  V4  1  0.25004421  0.75077979  0.50256208  1
  V  V5  1  0.74752377  0.00180572  0.25101063  1
  V  V6  1  0.36237321  0.01078344  0.35803597  1
  V  V7  1  -0.00783717  0.25376119  0.25070608  1
  V  V8  1  0.50518931  0.25375065  0.74715671  1
  V  V9  1  -0.00298820  0.87479596  0.37520065  1
  V  V10  1  0.49165077  0.24451016  0.25128542  1
  V  V11  1  0.12929867  0.48540164  0.62997437  1
  V  V12  1  0.62115225  0.25852659  0.87998785  1
  V  V13  1  0.74355847  0.86791159  0.62473415  1
  V  V14  1  0.37250512  0.88401853  -0.00225052  1
  V  V15  1  0.76169511  0.24359603  0.00774281  1
  V  V16  1  0.86926965  0.25051851  0.62527794  1
  V  V17  1  0.74657733  0.13275696  0.37777473  1
  V  V18  1  0.49774674  0.75476044  0.74888289  1
  V  V19  1  0.36780220  0.75457024  0.12402152  1
  V  V20  1  0.86967388  0.37533635  0.50376644  1
  V  V21  1  0.25311819  -0.00552388  0.77459385  1
  V  V22  1  0.74747247  0.87528213  0.12614545  1
  V  V23  1  0.63933625  0.49391385  0.63189283  1
  V  V24  1  0.49579897  0.88149973  0.87343633  1
  V  V25  1  0.87644285  0.49657567  0.37432391  1
  V  V26  1  0.00088910  0.00209709  0.00616238  1
  V  V27  1  0.87263570  0.62166267  0.24810862  1
  V  V28  1  0.26099687  0.25565589  0.50653361  1
  V  V29  1  0.12210199  0.62136449  -0.00491969  1
  V  V30  1  0.84284868  0.46780590  0.84567815  1
  V  V31  1  0.88631538  0.37125816  0.00086860  1
  V  V32  1  0.24785488  0.88327336  0.62428336  1
  V  V33  1  0.24928704  0.74806627  -0.00165999  1
  V  V34  1  -0.00244222  0.74939511  0.24936511  1
  V  V35  1  0.00361942  0.62854007  0.63044419  1
  V  V36  1  0.40483043  0.49705866  0.90381091  1
  V  V37  1  0.74607353  0.49898331  0.24408011  1
  V  V38  1  0.49951135  0.62810725  0.12349751  1
  V  V39  1  0.74585266  -0.00625506  0.74817476  1
  V  V40  1  0.87221777  0.74636526  0.12330335  1
  V  V41  1  0.00094470  0.87439039  0.87206172  1
  V  V42  1  0.37816210  0.24914981  0.11221722  1
  V  V43  1  0.11810521  0.86833872  0.74729523  1
  V  V44  1  0.00088626  0.49606018  0.49693124  1
  V  V45  1  0.62032913  0.12840409  0.50201362  1
  V  V46  1  0.13130707  0.23363210  0.37145308  1
  V  V47  1  0.62330784  0.12046352  0.00302009  1
  V  V48  1  0.62677455  0.62967952  0.50007139  1
  V  V49  1  0.12446907  0.62468522  0.50200906  1
  V  V50  1  0.87470608  0.62829010  0.75052091  1
  V  V51  1  0.62914888  0.36514923  0.25274929  1
  V  V52  1  0.49743875  0.49490506  0.50540068  1
  V  V53  1  0.37198193  0.87853770  0.50044511  1
  V  V54  1  0.12335199  0.49935527  0.12343824  1
  V  V55  1  0.87129317  0.00236910  0.37678836  1
  V  V56  1  0.75190207  0.12310979  0.87428115  1
  V  V57  1  0.37391989  0.62596856  0.25220942  1
  V  V58  1  0.73606561  0.25764281  0.50322269  1
  V  V59  1  0.62209276  0.62289391  0.00143051  1
  V  V60  1  0.25592337  0.37901821  0.11643977  1
  V  V61  1  0.86832008  0.87174578  0.49947640  1
  V  V62  1  0.37569678  0.49217850  0.37801094  1
  V  V63  1  0.59933081  0.47715328  0.11041971  1
  V  V64  1  0.49875571  0.87825926  0.37794010  1
  V  V65  1  -0.00289806  0.01125148  0.50511642  1
  V  V66  1  0.25835305  0.48382906  0.74794044  1
  V  V67  1  0.74831296  0.62989769  0.37677251  1
  V  V68  1  0.87531448  0.12423036  0.74158322  1
  V  V69  1  0.87701882  0.74990393  0.62235537  1
  V  V70  1  0.12862882  0.13346753  0.00075657  1
  V  V71  1  0.49345771  0.00787550  0.50460779  1
  V  V72  1  -0.00301235  0.62098171  0.12183121  1
  V  V73  1  0.24967415  0.50028183  0.25033720  1
  V  V74  1  0.74922888  0.75092952  0.00018042  1
  V  V75  1  0.62234570  0.75544674  0.86947502  1
  V  V76  1  0.11925026  0.74499762  0.86795564  1
  V  V77  1  0.61916968  -0.00019503  0.62738879  1
  V  V78  1  0.50453924  0.37121094  0.37297802  1
  V  V79  1  0.76179841  0.37176269  0.12585122  1
  V  V80  1  0.49862790  0.62394780  0.62608414  1
  V  V81  1  0.75115509  0.62917069  0.86908995  1
  V  V82  1  0.25109843  0.62505635  0.37750288  1
  V  V83  1  0.13169050  0.87552498  0.24066103  1
  V  V84  1  0.05255066  0.18351366  0.68398841  1
  Zn  Zn85  1  0.39180448  0.11596141  0.75424535  1
  Zn  Zn86  1  0.25245946  0.26164592  -0.00867641  1
  Zn  Zn87  1  0.37462743  0.61937307  0.75239092  1
  Zn  Zn88  1  -0.00743142  0.50024223  -0.01562341  1
  Zn  Zn89  1  0.62414780  0.87454472  0.25201966  1
  Zn  Zn90  1  0.64175726  0.38835827  0.76558309  1
  Zn  Zn91  1  0.11872216  0.00180901  0.62785739  1
  Zn  Zn92  1  0.25142594  0.61785867  0.86719291  1
  Zn  Zn93  1  0.49889273  0.11758839  0.13311972  1
  Zn  Zn94  1  0.12612128  0.25349003  0.85982524  1
  Zn  Zn95  1  0.87691555  -0.00181815  0.87156319  1
  Zn  Zn96  1  0.12965660  0.12185667  0.49771819  1
  Zn  Zn97  1  0.25637145  0.13643862  0.87646521  1
  Zn  Zn98  1  0.62736203  0.75246583  0.37874050  1
  Zn  Zn99  1  0.37191248  0.74905852  0.62783656  1
  Zn  Zn100  1  -0.01017971  0.13431309  0.12102762  1
  Zn  Zn101  1  0.87599377  0.87537977  -0.00336693  1
  Zn  Zn102  1  0.62219159  -0.00113360  0.12525394  1
  Zn  Zn103  1  0.37396116  0.25870525  0.62700393  1
  Zn  Zn104  1  0.49474612  0.00318118  0.00033640  1
  Zn  Zn105  1  0.87073208  0.13195977  0.24472403  1
  Zn  Zn106  1  0.16505061  0.02690463  0.16106467  1
  Zn  Zn107  1  0.18731575  0.19536150  0.18409566  1
  Zn  Zn108  1  0.23016929  0.17167475  0.67476851  1
  Zn  Zn109  1  0.18526612  0.68894480  0.18644356  1
  Zn  Zn110  1  0.19176369  0.68391133  0.68814944  1
  Zn  Zn111  1  0.68785803  0.18746696  0.18669034  1
  Zn  Zn112  1  0.68175114  0.18893891  0.68640687  1
  Zn  Zn113  1  0.68257839  0.68643261  0.18836140  1
  Zn  Zn114  1  0.68474611  0.68822368  0.68691259  1
  Zn  Zn115  1  0.31132071  0.31139061  0.30927780  1
  Zn  Zn116  1  0.32211490  0.31876840  0.82015692  1
  Zn  Zn117  1  0.31267032  0.81748955  0.31491542  1
  Zn  Zn118  1  0.31044200  0.80888765  0.81409896  1
  Zn  Zn119  1  0.81035010  0.31517848  0.32154018  1
  Zn  Zn120  1  0.81409355  0.29953678  0.81475157  1
  Zn  Zn121  1  0.81142339  0.81185373  0.31090297  1
  Zn  Zn122  1  0.81521818  0.81077787  0.80711502  1
  Zn  Zn123  1  0.18811202  0.43639889  0.43952841  1
  Zn  Zn124  1  0.18386046  0.43687991  0.92931638  1
  Zn  Zn125  1  0.18328037  0.94038677  0.43475301  1
  Zn  Zn126  1  0.20542710  0.95604571  0.98112572  1
  Zn  Zn127  1  0.68502753  0.44337122  0.43908428  1
  Zn  Zn128  1  0.69403455  0.43699548  0.94345330  1
  Zn  Zn129  1  0.68420655  0.94017342  0.44027597  1
  Zn  Zn130  1  0.68649183  0.93639325  0.93539056  1
  Zn  Zn131  1  0.30205563  0.06867909  0.10239038  1
  Zn  Zn132  1  0.31394610  0.07352023  0.56134739  1
  Zn  Zn133  1  0.31121344  0.56641182  0.06141414  1
  Zn  Zn134  1  0.31340111  0.55762537  0.56535967  1
  Zn  Zn135  1  0.81899367  0.05952180  0.06368915  1
  Zn  Zn136  1  0.80844175  0.06263503  0.56316197  1
  Zn  Zn137  1  0.81033201  0.55481896  0.05478861  1
  Zn  Zn138  1  0.81217400  0.56668696  0.55958174  1
  Zn  Zn139  1  0.43709982  0.43372147  0.18395824  1
  Zn  Zn140  1  0.44485973  0.42661690  0.69739703  1
  Zn  Zn141  1  0.43758008  0.93564520  0.18438015  1
  Zn  Zn142  1  0.43367131  0.93606557  0.68807002  1
  Zn  Zn143  1  0.94187294  0.43523711  0.18894332  1
  Zn  Zn144  1  0.93397762  0.44147629  0.67920622  1
  Zn  Zn145  1  0.93356407  0.93713275  0.18776897  1
  Zn  Zn146  1  0.93609330  0.93753950  0.68693711  1
  Zn  Zn147  1  0.05418158  0.06224594  0.31058339  1
  Zn  Zn148  1  0.07225492  0.05532458  0.82197376  1
  Zn  Zn149  1  0.06151819  0.56334636  0.31268625  1
  Zn  Zn150  1  0.05869281  0.55271061  0.80838564  1
  Zn  Zn151  1  0.56250438  0.06242677  0.31804102  1
  Zn  Zn152  1  0.56697410  0.06455035  0.81517835  1
  Zn  Zn153  1  0.56343633  0.55745864  0.30775111  1
  Zn  Zn154  1  0.56370812  0.56599439  0.81070081  1
  Zn  Zn155  1  0.43415862  0.18550138  0.43308800  1
  Zn  Zn156  1  0.43522837  0.18233188  0.93401135  1
  Zn  Zn157  1  0.43671083  0.68604775  0.44056645  1
  Zn  Zn158  1  0.43587647  0.68298409  0.93471050  1
  Zn  Zn159  1  0.93780494  0.19330613  0.43030693  1
  Zn  Zn160  1  0.94194621  0.18902893  0.92894788  1
  Zn  Zn161  1  0.93560820  0.68521410  0.44037383  1
  Zn  Zn162  1  0.93703505  0.68824355  0.93567049  1
  Zn  Zn163  1  0.06529906  0.31300193  0.06856384  1
  Zn  Zn164  1  0.06122080  0.31303435  0.54892469  1
  Zn  Zn165  1  0.05986208  0.80975590  0.05808242  1
  Zn  Zn166  1  0.05856932  0.81513856  0.56112786  1
  Zn  Zn167  1  0.56836894  0.30602439  0.06597318  1
  Zn  Zn168  1  0.53667090  0.33064680  0.58239511  1
  Zn  Zn169  1  0.56011893  0.81269244  0.06084434  1
  Zn  Zn170  1  0.56097879  0.81351857  0.56236420  1
  O  O171  1  0.10841200  0.12533310  0.10859833  1
  O  O172  1  0.11984400  0.12591088  0.62673950  1
  O  O173  1  0.11771894  0.62046660  0.11581511  1
  O  O174  1  0.11770414  0.62044156  0.61878904  1
  O  O175  1  0.62417399  0.12380559  0.11546510  1
  O  O176  1  0.63505744  0.10936702  0.61355557  1
  O  O177  1  0.61645783  0.61997534  0.11790018  1
  O  O178  1  0.61628170  0.62120908  0.61890036  1
  O  O179  1  0.38342984  0.38759091  0.36644941  1
  O  O180  1  0.37822020  0.40325772  0.87585942  1
  O  O181  1  0.38404281  0.88204772  0.38186548  1
  O  O182  1  0.38493008  0.86418807  0.88491448  1
  O  O183  1  0.87079280  0.39016540  0.38570988  1
  O  O184  1  0.88834710  0.36865941  0.88109468  1
  O  O185  1  0.87480131  0.87871735  0.38295650  1
  O  O186  1  0.88870330  0.86950693  0.87336389  1
  O  O187  1  0.26460766  -0.00552115  0.37793167  1
  O  O188  1  0.24637429  -0.01267095  0.87384582  1
  O  O189  1  0.25750939  0.50590470  0.37306180  1
  O  O190  1  0.24286931  0.49962760  0.85367815  1
  O  O191  1  0.75210394  0.00819154  0.37132946  1
  O  O192  1  0.75182972  0.00474318  0.86625492  1
  O  O193  1  0.75530498  0.50970161  0.36639069  1
  O  O194  1  0.75172635  0.52145264  0.88491875  1
  O  O195  1  0.24414651  0.49867257  0.13069093  1
  O  O196  1  0.23711984  0.49911202  0.62906728  1
  O  O197  1  0.23733954  0.97839656  0.08800406  1
  O  O198  1  0.24313412  0.98814331  0.62158216  1
  O  O199  1  0.74584292  0.48872491  0.12828478  1
  O  O200  1  0.73741457  0.50737167  0.62210186  1
  O  O201  1  0.74847341  0.99081581  0.13330295  1
  O  O202  1  0.74403945  0.98934242  0.63032066  1
  O  O203  1  0.00919827  0.36691986  0.25064953  1
  O  O204  1  -0.00470191  0.37405730  0.74934470  1
  O  O205  1  -0.00270015  0.86522589  0.25712510  1
  O  O206  1  0.00768411  0.87677092  0.75521671  1
  O  O207  1  0.50972084  0.36849412  0.25430766  1
  O  O208  1  0.52259083  0.36053765  0.75734544  1
  O  O209  1  0.50009824  0.86575611  0.25865263  1
  O  O210  1  0.49362953  0.86331633  0.75664782  1
  O  O211  1  0.51129217  0.14140969  0.25236113  1
  O  O212  1  0.50687720  0.14319803  0.76349521  1
  O  O213  1  0.49482672  0.63854238  0.25131816  1
  O  O214  1  0.49791944  0.63338127  0.74112510  1
  O  O215  1  0.99561521  0.13965422  0.24979234  1
  O  O216  1  0.99712314  0.12030279  0.74742176  1
  O  O217  1  0.99229058  0.62952597  0.24314432  1
  O  O218  1  0.99292550  0.62067104  0.73710270  1
  O  O219  1  0.37947968  0.25814591  0.00928725  1
  O  O220  1  0.36459761  0.24604810  0.49961051  1
  O  O221  1  0.36624374  0.74576271  0.00676573  1
  O  O222  1  0.36649927  0.75821625  0.50045967  1
  O  O223  1  0.87082020  0.25633299  -0.00479105  1
  O  O224  1  0.86866196  0.25813686  0.50419800  1
  O  O225  1  0.86584544  0.75136690  0.00527671  1
  O  O226  1  0.87471742  0.75730927  0.51026988  1
  O  O227  1  0.12461568  0.24709457  0.48056604  1
  O  O228  1  0.12198502  0.24110275  0.99903279  1
  O  O229  1  0.12907247  0.74543581  0.49460890  1
  O  O230  1  0.12881170  0.73816187  0.99365970  1
  O  O231  1  0.63326855  0.24402782  0.50971856  1
  O  O232  1  0.63499912  0.24084416  0.99530155  1
  O  O233  1  0.61726021  0.73488399  0.49738360  1
  O  O234  1  0.63151767  0.74113162  0.99543054  1
  O  O235  1  0.49040302  0.25204552  0.13217127  1
  O  O236  1  0.53222627  0.23786864  0.65055245  1
  O  O237  1  0.49466561  0.74392735  0.13446114  1
  O  O238  1  0.49960457  0.74449228  0.63262709  1
  O  O239  1  1.00348351  0.25383494  0.14581370  1
  O  O240  1  0.99518436  0.24472435  0.62090351  1
  O  O241  1  0.99102448  0.74061289  0.12692135  1
  O  O242  1  0.99051488  0.73999233  0.61804133  1
  O  O243  1  0.01632892  0.24989406  0.36353864  1
  O  O244  1  0.00281114  0.26589703  0.86937727  1
  O  O245  1  0.00197824  0.75291207  0.37083669  1
  O  O246  1  0.01217874  0.75484766  0.88019893  1
  O  O247  1  0.49224654  0.26472569  0.36853615  1
  O  O248  1  0.51960854  0.24971486  0.87706505  1
  O  O249  1  0.49747038  0.75856688  0.37002812  1
  O  O250  1  0.50566523  0.75275885  0.86770296  1
  O  O251  1  0.24281967  0.14417199  0.50295669  1
  O  O252  1  0.23361363  0.12930321  1.00067014  1
  O  O253  1  0.24511174  0.63012515  0.49733256  1
  O  O254  1  0.23942375  0.63038583  0.99382690  1
  O  O255  1  0.74326252  0.13278140  0.49467980  1
  O  O256  1  0.74931237  0.12764237  0.99314072  1
  O  O257  1  0.74098244  0.62185387  0.48838133  1
  O  O258  1  0.74639154  0.63788739  0.99515761  1
  O  O259  1  0.23901648  0.38076932  0.01298507  1
  O  O260  1  0.24880695  0.35448063  0.48427405  1
  O  O261  1  0.25887071  0.85323458  -0.01216083  1
  O  O262  1  0.25088976  0.87017831  0.50566581  1
  O  O263  1  0.76175408  0.36412497  0.00845495  1
  O  O264  1  0.75543438  0.36786436  0.49269730  1
  O  O265  1  0.75019752  0.86488826  0.00519534  1
  O  O266  1  0.76073388  0.88112645  0.50720512  1
  O  O267  1  0.12917649  0.49633669  0.24569317  1
  O  O268  1  0.13246386  0.49975228  0.73410389  1
  O  O269  1  0.10975802  0.98046441  0.24980806  1
  O  O270  1  0.13313916  0.98251363  0.75010305  1
  O  O271  1  0.62594983  0.48702730  0.23279115  1
  O  O272  1  0.62719973  0.50380729  0.73742639  1
  O  O273  1  0.63624520  0.99720104  0.25191977  1
  O  O274  1  0.63650992  1.00464532  0.74182410  1
  O  O275  1  0.37495146  -0.00747317  0.25959461  1
  O  O276  1  0.35524892  -0.00496214  0.74926050  1
  O  O277  1  0.36877231  0.50670392  0.25727943  1
  O  O278  1  0.36352673  0.49898833  0.73663079  1
  O  O279  1  0.86101522  -0.00185591  0.25848702  1
  O  O280  1  0.86406844  0.00693710  0.74829233  1
  O  O281  1  0.87074867  0.50301755  0.25737491  1
  O  O282  1  0.87384732  0.51372542  0.75036730  1
  O  O283  1  0.12683106  0.37591125  0.36148865  1
  O  O284  1  0.10768739  0.37546443  0.86923659  1
  O  O285  1  0.11496912  0.86769199  0.36910365  1
  O  O286  1  0.11316527  0.86248935  0.86610123  1
  O  O287  1  0.61825030  0.38569628  0.36229465  1
  O  O288  1  0.63088136  0.36159819  0.88691028  1
  O  O289  1  0.61132535  0.87401650  0.37818798  1
  O  O290  1  0.61664009  0.86064668  0.88215165  1
  O  O291  1  0.38431520  0.14434101  0.11644537  1
  O  O292  1  0.34765839  0.14242038  0.64806876  1
  O  O293  1  0.37993335  0.63577411  0.13227604  1
  O  O294  1  0.38986591  0.62720067  0.61981094  1
  O  O295  1  0.87697899  0.12411136  0.13180937  1
  O  O296  1  0.87091968  0.13127556  0.63388169  1
  O  O297  1  0.87705525  0.62447094  0.12652449  1
  O  O298  1  0.88071675  0.63132445  0.62751062  1
  O  O299  1  0.26265699  0.26206674  0.11819556  1
  O  O300  1  0.24857963  0.26511190  0.60987740  1
  O  O301  1  0.25737949  0.74223020  0.11426160  1
  O  O302  1  0.24875728  0.75939816  0.61664234  1
  O  O303  1  0.75202709  0.25407525  0.11486531  1
  O  O304  1  0.75918200  0.24735928  0.61599096  1
  O  O305  1  0.75172592  0.75345092  0.11880058  1
  O  O306  1  0.75362496  0.76205500  0.62747851  1
  O  O307  1  0.23471441  0.25007082  0.36943353  1
  O  O308  1  0.24435801  0.25651818  0.87575096  1
  O  O309  1  0.24553275  0.74510452  0.38337073  1
  O  O310  1  0.23649061  0.74053506  0.87840625  1
  O  O311  1  0.75043125  0.24013289  0.38545351  1
  O  O312  1  0.74631788  0.23975847  0.88906804  1
  O  O313  1  0.74747671  0.73465730  0.36703380  1
  O  O314  1  0.74353102  0.74763834  0.88054107  1
  O  O315  1  -0.00029906  0.11500443  -0.00377825  1
  O  O316  1  -0.00169101  0.11364770  0.49152879  1
  O  O317  1  0.00368179  0.62028801  0.00311190  1
  O  O318  1  0.00250388  0.61519751  0.50895133  1
  O  O319  1  0.51281675  0.12305078  -0.00153778  1
  O  O320  1  0.50592422  0.11763650  0.49791205  1
  O  O321  1  0.51053232  0.63364834  0.01115634  1
  O  O322  1  0.50633568  0.61491132  0.50421818  1
  O  O323  1  0.51852130  0.39133629  0.48454920  1
  O  O324  1  0.53105635  0.41468341  1.06384645  1
  O  O325  1  0.49277248  0.88344943  0.49499639  1
  O  O326  1  0.49040024  0.87170899  0.99084470  1
  O  O327  1  0.98929031  0.38927314  0.49952429  1
  O  O328  1  0.99137886  0.37788031  1.00586980  1
  O  O329  1  0.98631571  0.88011633  0.49308923  1
  O  O330  1  1.00141942  0.88402588  0.99154345  1
  O  O331  1  0.49338218  0.49371583  0.37796513  1
  O  O332  1  0.50417584  0.50505307  0.88594039  1
  O  O333  1  0.49261136  0.99346795  0.38408742  1
  O  O334  1  0.50905055  0.98399346  0.87535822  1
  O  O335  1  0.98867265  0.50993017  0.38466430  1
  O  O336  1  0.98612776  0.48257215  0.86670394  1
  O  O337  1  0.98891431  0.99310952  0.38075495  1
  O  O338  1  0.99684183  0.98927127  0.88039110  1
  O  O339  1  -0.00547699  -0.00495916  0.10845059  1
  O  O340  1  0.00029879  -0.00584792  0.61155756  1
  O  O341  1  0.00536847  0.50757501  0.12266409  1
  O  O342  1  0.00943770  0.50788641  0.61747577  1
  O  O343  1  0.50479655  0.00065471  0.12081889  1
  O  O344  1  0.50696688  -0.00461964  0.61846404  1
  O  O345  1  0.49862734  0.52572277  0.14954105  1
  O  O346  1  0.50873959  0.50803998  0.61865200  1
  O  O347  1  0.24307941  0.38335698  0.24079196  1
  O  O348  1  0.25618743  0.38523018  0.74576651  1
  O  O349  1  0.23057066  0.86766565  0.25372492  1
  O  O350  1  0.24315416  0.87932135  0.74389889  1
  O  O351  1  0.74773926  0.37812449  0.24641806  1
  O  O352  1  0.76723864  0.40160945  0.79799591  1
  O  O353  1  0.74685844  0.88127166  0.24361581  1
  O  O354  1  0.75376530  0.88327669  0.74027681  1
  O  O355  1  0.24284026  0.10249117  0.19965360  1
  O  O356  1  0.23235071  0.09795339  0.76267709  1
  O  O357  1  0.25296936  0.62070044  0.25720017  1
  O  O358  1  0.25590288  0.61289346  0.74747792  1
  O  O359  1  0.74722690  0.11988000  0.26028212  1
  O  O360  1  0.75608994  0.11832901  0.75561710  1
  O  O361  1  0.75342119  0.61732362  0.25226706  1
  O  O362  1  0.75741262  0.63301419  0.75942739  1
  O  O363  1  0.37788572  0.10948033  0.37036834  1
  O  O364  1  0.36858304  0.12661978  0.86661444  1
  O  O365  1  0.37086891  0.61704821  0.37014182  1
  O  O366  1  0.37511912  0.60394740  0.87472344  1
  O  O367  1  0.86318986  0.11993717  0.37283695  1
  O  O368  1  0.86646314  0.12628911  0.86096747  1
  O  O369  1  0.86725331  0.61630342  0.37145371  1
  O  O370  1  0.86752478  0.63156079  0.86323723  1
  O  O371  1  0.13199826  0.38331261  0.13518714  1
  O  O372  1  0.11740046  0.38864803  0.61707625  1
  O  O373  1  0.11714782  0.86127135  0.14212660  1
  O  O374  1  0.12971219  0.87270828  0.63183646  1
  O  O375  1  0.64758982  0.36970297  0.13373975  1
  O  O376  1  0.62946886  0.39204772  0.62815541  1
  O  O377  1  0.63663619  0.87298655  0.12584948  1
  O  O378  1  0.63303446  0.88639720  0.61654429  1
  O  O379  1  0.12084073  0.25784259  0.25653253  1
  O  O380  1  0.11808470  0.23610164  0.73738070  1
  O  O381  1  0.11624694  0.75314428  0.25730226  1
  O  O382  1  0.12892420  0.75721475  0.75564956  1
  O  O383  1  0.61925826  0.26131134  0.24668828  1
  O  O384  1  0.63816346  0.25562474  0.77141366  1
  O  O385  1  0.61369550  0.75190478  0.25532414  1
  O  O386  1  0.61411779  0.74578057  0.75937486  1
  O  O387  1  0.38482888  0.25663116  0.23833205  1
  O  O388  1  0.39824220  0.26079941  0.75149851  1
  O  O389  1  0.37899632  0.74786342  0.24435622  1
  O  O390  1  0.38260461  0.74321276  0.74900234  1
  O  O391  1  0.88901676  0.25546210  0.26297781  1
  O  O392  1  0.87079918  0.24099535  0.73575058  1
  O  O393  1  0.87737732  0.74123419  0.24292028  1
  O  O394  1  0.87371826  0.73984754  0.73460721  1
  O  O395  1  0.38577787  0.50420596  0.49086081  1
  O  O396  1  0.38554144  0.50448711  1.00264484  1
  O  O397  1  0.38182113  0.99842367  0.50130828  1
  O  O398  1  0.37553031  0.98436150  1.00387254  1
  O  O399  1  0.87996946  0.49585720  0.49562766  1
  O  O400  1  0.86941340  0.48360251  0.98182227  1
  O  O401  1  0.87802763  0.99383849  0.49595797  1
  O  O402  1  0.88559145  0.99520554  0.99169838  1
  O  O403  1  0.10677079  0.01508494  -0.01056460  1
  O  O404  1  0.11246674  0.00245607  0.50134201  1
  O  O405  1  0.12053124  0.51041233  0.00064085  1
  O  O406  1  0.11877303  0.50491705  0.50534374  1
  O  O407  1  0.62823558  0.01091158  0.00034042  1
  O  O408  1  0.61379538  0.00703347  0.50694918  1
  O  O409  1  0.63929554  0.51602565  0.00848763  1
  O  O410  1  0.61968376  0.51127035  0.50996384  1
  O  O411  1  0.36505175  0.36795340  0.12759458  1
  O  O412  1  0.42656700  0.35841949  0.61088954  1
  O  O413  1  0.38121108  0.85921440  0.11535728  1
  O  O414  1  0.36453526  0.87215241  0.61781772  1
  O  O415  1  0.86873437  0.37992941  0.11847073  1
  O  O416  1  0.87489313  0.36801486  0.61257539  1
  O  O417  1  0.86162481  0.86690497  0.12332870  1
  O  O418  1  0.86866201  0.86694388  0.61904960  1
  O  O419  1  0.12636414  0.13172647  0.37007636  1
  O  O420  1  0.12457180  0.13351813  0.88723443  1
  O  O421  1  0.12997940  0.63040520  0.38187983  1
  O  O422  1  0.11839729  0.62705696  0.87948319  1
  O  O423  1  0.63276916  0.12035650  0.39243558  1
  O  O424  1  0.63899216  0.13208139  0.88316382  1
  O  O425  1  0.63138105  0.62133476  0.38107041  1
  O  O426  1  0.63146542  0.63577488  0.88164036  1
