# generated using pymatgen
data_V85Zn86O256
_symmetry_space_group_name_H-M   'P 1'
_cell_length_a   16.93390536
_cell_length_b   16.94128860
_cell_length_c   16.92412722
_cell_angle_alpha   90.00784899
_cell_angle_beta   90.01507323
_cell_angle_gamma   90.02097633
_symmetry_Int_Tables_number   1
_chemical_formula_structural   V85Zn86O256
_chemical_formula_sum   'V85 Zn86 O256'
_cell_volume   4855.22993530
_cell_formula_units_Z   1
loop_
 _symmetry_equiv_pos_site_id
 _symmetry_equiv_pos_as_xyz
  1  'x, y, z'
loop_
 _atom_site_type_symbol
 _atom_site_label
 _atom_site_symmetry_multiplicity
 _atom_site_fract_x
 _atom_site_fract_y
 _atom_site_fract_z
 _atom_site_occupancy
  V  V0  1  0.25570849  0.74953383  0.49298290  1
  V  V1  1  0.75193186  0.61098192  0.87265179  1
  V  V2  1  0.63091262  0.87223028  0.25128399  1
  V  V3  1  0.00279878  0.50818516  -0.00504728  1
  V  V4  1  0.49725534  0.37256252  0.87146853  1
  V  V5  1  0.61884484  0.37050257  0.24933406  1
  V  V6  1  0.24760024  0.25551582  -0.00384984  1
  V  V7  1  0.87243052  0.87562365  0.49949805  1
  V  V8  1  0.62267602  0.87317092  0.75154014  1
  V  V9  1  0.12319509  0.36877389  0.24708266  1
  V  V10  1  0.49676778  0.00015345  0.50085979  1
  V  V11  1  0.24697172  0.24332686  0.49911371  1
  V  V12  1  0.49141928  0.61809292  0.62538552  1
  V  V13  1  0.00631370  0.49101529  0.49955967  1
  V  V14  1  0.49834001  0.50755266  0.00400192  1
  V  V15  1  -0.00095782  0.36436579  0.36810835  1
  V  V16  1  0.87801587  0.87532638  0.00368920  1
  V  V17  1  0.49921177  0.87042012  0.37469434  1
  V  V18  1  0.75402236  0.12739255  0.87287676  1
  V  V19  1  0.75235923  0.74783992  -0.00355476  1
  V  V20  1  0.25005415  0.62856595  0.87502303  1
  V  V21  1  0.49075748  0.87374377  0.87815580  1
  V  V22  1  0.87596320  0.37332722  0.00931238  1
  V  V23  1  -0.01142611  0.37650900  0.87171958  1
  V  V24  1  0.49085693  0.74331863  0.75131652  1
  V  V25  1  0.62720518  0.38112329  0.75227817  1
  V  V26  1  0.38817358  0.74690366  0.12452579  1
  V  V27  1  0.00232410  0.01578418  0.50041275  1
  V  V28  1  0.37725688  0.38394267  0.49827632  1
  V  V29  1  0.12555594  0.87551124  0.74180712  1
  V  V30  1  0.62167972  0.12601505  0.50031405  1
  V  V31  1  0.62076010  0.24913190  0.86830483  1
  V  V32  1  0.88569136  0.62410710  0.24775375  1
  V  V33  1  0.62851165  -0.00109406  0.12350432  1
  V  V34  1  0.87107605  0.61158957  0.75103205  1
  V  V35  1  0.87457726  0.49789511  0.37519191  1
  V  V36  1  0.87928580  0.14054777  0.24536928  1
  V  V37  1  0.24715683  0.75279408  0.01071970  1
  V  V38  1  0.87094582  0.37107499  0.50067736  1
  V  V39  1  0.09521073  0.84361408  0.27247349  1
  V  V40  1  0.12703686  0.12602163  -0.00126915  1
  V  V41  1  0.00387649  0.24332393  0.74761346  1
  V  V42  1  0.37733737  0.50786974  0.87284456  1
  V  V43  1  0.61065516  0.24819597  0.37380631  1
  V  V44  1  0.62690645  0.12667680  -0.00173496  1
  V  V45  1  0.74862809  0.12678705  0.37288926  1
  V  V46  1  0.62119023  0.50747924  0.12755918  1
  V  V47  1  0.25043729  0.13220855  0.86780453  1
  V  V48  1  0.50367750  0.13510151  0.13198285  1
  V  V49  1  0.49633132  -0.00222502  0.00216731  1
  V  V50  1  0.75166116  -0.00320012  0.74830004  1
  V  V51  1  0.88037785  -0.00204283  0.37310002  1
  V  V52  1  0.26254581  0.62116344  0.37837957  1
  V  V53  1  0.12635189  0.37500742  0.75836055  1
  V  V54  1  0.11885305  0.01387197  0.61967136  1
  V  V55  1  0.62396148  0.74922044  0.87653902  1
  V  V56  1  0.87791470  -0.00082751  0.87418747  1
  V  V57  1  0.76021984  -0.00085088  0.24629136  1
  V  V58  1  0.25601605  0.49953534  0.25599135  1
  V  V59  1  0.09839278  0.65866406  0.47571137  1
  V  V60  1  0.62688633  0.63298375  0.50450189  1
  V  V61  1  0.25458825  0.50857833  0.74785912  1
  V  V62  1  0.00286596  0.87586796  0.87493537  1
  V  V63  1  0.86409601  0.74925538  0.62286440  1
  V  V64  1  0.74951149  0.50010819  0.24918298  1
  V  V65  1  0.49550623  0.39154575  0.37854796  1
  V  V66  1  0.25263697  0.37687917  0.12588390  1
  V  V67  1  0.88381753  0.74708355  0.12521048  1
  V  V68  1  0.24721801  0.87551955  0.61605896  1
  V  V69  1  0.75020613  0.37553708  0.63058950  1
  V  V70  1  0.37614258  0.24642546  0.63491733  1
  V  V71  1  0.62209001  0.00015093  0.62652298  1
  V  V72  1  0.00596325  0.00096287  0.00929338  1
  V  V73  1  -0.00258225  0.62308743  0.62525419  1
  V  V74  1  -0.00106768  0.74878595  0.74424511  1
  V  V75  1  0.37462345  0.00194308  0.36431478  1
  V  V76  1  0.37195850  0.00659679  0.87036357  1
  V  V77  1  0.62288981  0.49794765  0.61932652  1
  V  V78  1  0.12530949  0.74594679  0.87722586  1
  V  V79  1  0.00229098  0.14449480  0.12802611  1
  V  V80  1  0.24271394  0.12195290  0.36754480  1
  V  V81  1  0.25140141  0.37536454  0.62350382  1
  V  V82  1  0.12545907  0.50284625  0.62342721  1
  V  V83  1  0.75162922  0.63364334  0.38076482  1
  V  V84  1  0.49451363  0.12740516  0.63851787  1
  Zn  Zn85  1  0.63261062  0.75443355  0.38253812  1
  Zn  Zn86  1  0.74624646  0.24901369  0.50154610  1
  Zn  Zn87  1  0.50735949  0.74267663  0.24756738  1
  Zn  Zn88  1  0.32051931  0.91516299  0.05361463  1
  Zn  Zn89  1  0.74323976  0.86838711  0.61871782  1
  Zn  Zn90  1  0.38376937  0.62022354  0.24786210  1
  Zn  Zn91  1  0.75298596  0.87362272  0.12356592  1
  Zn  Zn92  1  0.12155073  0.24661884  0.37735945  1
  Zn  Zn93  1  0.37405764  0.87427617  0.49779932  1
  Zn  Zn94  1  0.12854402  0.50776037  0.12029834  1
  Zn  Zn95  1  0.37635348  0.13207803  0.25101376  1
  Zn  Zn96  1  0.25299892  0.00634134  0.74306319  1
  Zn  Zn97  1  0.37361352  0.74744205  0.62854754  1
  Zn  Zn98  1  0.38069312  0.25640019  0.12873479  1
  Zn  Zn99  1  0.01286233  0.62766145  0.12287314  1
  Zn  Zn100  1  0.75242254  0.36808527  0.12952850  1
  Zn  Zn101  1  0.18917731  -0.04741396  0.18781783  1
  Zn  Zn102  1  0.75858093  0.24807165  0.00326690  1
  Zn  Zn103  1  0.88412701  0.12085493  0.74408391  1
  Zn  Zn104  1  0.87883026  0.24263973  0.62362280  1
  Zn  Zn105  1  0.62347806  0.62658229  0.00475062  1
  Zn  Zn106  1  0.37630412  0.37637082  0.00018301  1
  Zn  Zn107  1  0.18740007  0.18958567  0.18578841  1
  Zn  Zn108  1  0.18673007  0.19226072  0.68782741  1
  Zn  Zn109  1  0.18206038  0.68841403  0.19513120  1
  Zn  Zn110  1  0.18544169  0.68834606  0.68038972  1
  Zn  Zn111  1  0.69061411  0.18978274  0.18703996  1
  Zn  Zn112  1  0.68862960  0.18869701  0.68810292  1
  Zn  Zn113  1  0.69571721  0.68762103  0.18823287  1
  Zn  Zn114  1  0.68353319  0.68344968  0.69285585  1
  Zn  Zn115  1  0.31793414  0.30796733  0.30983041  1
  Zn  Zn116  1  0.31246543  0.31707969  0.81315886  1
  Zn  Zn117  1  0.30730503  0.81184669  0.30110889  1
  Zn  Zn118  1  0.30945005  0.81720558  0.81178336  1
  Zn  Zn119  1  0.80447258  0.31252021  0.31652273  1
  Zn  Zn120  1  0.81459435  0.31138414  0.81160567  1
  Zn  Zn121  1  0.82456605  0.81410819  0.30930329  1
  Zn  Zn122  1  0.81434287  0.80957001  0.81116411  1
  Zn  Zn123  1  0.18930583  0.43360898  0.43435003  1
  Zn  Zn124  1  0.18615747  0.44037241  0.93650997  1
  Zn  Zn125  1  0.19831706  0.91862345  0.39270103  1
  Zn  Zn126  1  0.18480473  0.93959023  0.93455891  1
  Zn  Zn127  1  0.68490708  0.44011660  0.43828362  1
  Zn  Zn128  1  0.68648116  0.43586260  0.94206768  1
  Zn  Zn129  1  0.69029387  0.94094243  0.43609105  1
  Zn  Zn130  1  0.68715598  0.93647252  0.93636029  1
  Zn  Zn131  1  0.31318080  0.07545658  0.06394796  1
  Zn  Zn132  1  0.31120722  0.06247397  0.55860683  1
  Zn  Zn133  1  0.30911239  0.56670382  0.06213446  1
  Zn  Zn134  1  0.31079995  0.56478003  0.55826337  1
  Zn  Zn135  1  0.81926954  0.06584135  0.06359773  1
  Zn  Zn136  1  0.81215893  0.06389832  0.56261624  1
  Zn  Zn137  1  0.81663161  0.55646184  0.06054199  1
  Zn  Zn138  1  0.81006499  0.55631949  0.56438073  1
  Zn  Zn139  1  0.43819830  0.43726040  0.18888944  1
  Zn  Zn140  1  0.43775033  0.43509457  0.68842029  1
  Zn  Zn141  1  0.44165708  0.93420538  0.18887646  1
  Zn  Zn142  1  0.43427689  0.93647247  0.68893488  1
  Zn  Zn143  1  0.94191970  0.44047453  0.18345533  1
  Zn  Zn144  1  0.93730752  0.43241441  0.68579165  1
  Zn  Zn145  1  0.98206625  0.95126142  0.20823266  1
  Zn  Zn146  1  0.93832482  0.93618479  0.68126306  1
  Zn  Zn147  1  0.06380193  0.06515740  0.31258948  1
  Zn  Zn148  1  0.06949149  0.06129953  0.81536046  1
  Zn  Zn149  1  0.06810873  0.55448213  0.31104904  1
  Zn  Zn150  1  0.06231336  0.56130026  0.81364842  1
  Zn  Zn151  1  0.56502357  0.05632953  0.31133274  1
  Zn  Zn152  1  0.56301118  0.06051368  0.81492814  1
  Zn  Zn153  1  0.56408202  0.56621036  0.31500332  1
  Zn  Zn154  1  0.56551597  0.56185877  0.81130228  1
  Zn  Zn155  1  0.43039699  0.18836138  0.44305723  1
  Zn  Zn156  1  0.43486457  0.18893211  0.94118856  1
  Zn  Zn157  1  0.44112400  0.68533482  0.44050737  1
  Zn  Zn158  1  0.43110817  0.68755108  0.94216249  1
  Zn  Zn159  1  0.93417559  0.18560105  0.43780420  1
  Zn  Zn160  1  0.94293126  0.19183572  0.93137140  1
  Zn  Zn161  1  0.92630768  0.68638038  0.44277445  1
  Zn  Zn162  1  0.93548954  0.68774469  0.93141570  1
  Zn  Zn163  1  0.06825890  0.31804359  0.05585128  1
  Zn  Zn164  1  0.06587462  0.31162621  0.56604441  1
  Zn  Zn165  1  0.07185535  0.81454746  0.07124001  1
  Zn  Zn166  1  0.05537550  0.81508362  0.53611798  1
  Zn  Zn167  1  0.57065354  0.31745221  0.05597816  1
  Zn  Zn168  1  0.55874813  0.31077325  0.56289301  1
  Zn  Zn169  1  0.56399134  0.81435567  0.06221820  1
  Zn  Zn170  1  0.55975926  0.80987495  0.56454377  1
  O  O171  1  0.11337396  0.12962611  0.11505844  1
  O  O172  1  0.13056420  0.11167696  0.62587800  1
  O  O173  1  0.12574745  0.62196795  0.12612794  1
  O  O174  1  0.11422902  0.61948159  0.61368180  1
  O  O175  1  0.61928876  0.11855755  0.11875073  1
  O  O176  1  0.61820553  0.11954943  0.61990813  1
  O  O177  1  0.63373304  0.61151721  0.12605169  1
  O  O178  1  0.62141341  0.61604253  0.62200834  1
  O  O179  1  0.38865497  0.37244445  0.38143369  1
  O  O180  1  0.38188803  0.38715015  0.87629559  1
  O  O181  1  0.38408682  0.88244614  0.37333022  1
  O  O182  1  0.38622928  0.88128975  0.87386123  1
  O  O183  1  0.87906458  0.37873068  0.38058554  1
  O  O184  1  0.88531746  0.37843406  0.87651382  1
  O  O185  1  0.87163135  0.88973635  0.38190294  1
  O  O186  1  0.88344720  0.87670790  0.88361609  1
  O  O187  1  0.26138730  0.01529481  0.38761466  1
  O  O188  1  0.25685441  0.00929165  0.87387651  1
  O  O189  1  0.24829993  0.50627638  0.36791925  1
  O  O190  1  0.25534255  0.50919623  0.86975462  1
  O  O191  1  0.75831065  0.00822181  0.36583428  1
  O  O192  1  0.75510967  0.00413241  0.86584956  1
  O  O193  1  0.75585654  0.50580220  0.36869922  1
  O  O194  1  0.74469804  0.51290425  0.87759243  1
  O  O195  1  0.24950935  0.48991653  0.12770579  1
  O  O196  1  0.24575380  0.49910395  0.63193193  1
  O  O197  1  0.25975921  0.99150949  0.11328338  1
  O  O198  1  0.23801399  0.99454411  0.62052066  1
  O  O199  1  0.74480640  0.49405543  0.13411170  1
  O  O200  1  0.74038267  0.48517703  0.62399142  1
  O  O201  1  0.74771771  0.99963395  0.12943346  1
  O  O202  1  0.74152203  0.99876506  0.63817443  1
  O  O203  1  0.00761756  0.38188793  0.25812211  1
  O  O204  1  0.00715811  0.37317244  0.75598247  1
  O  O205  1  -0.00742446  0.84886509  0.25653749  1
  O  O206  1  0.00956406  0.87049953  0.75113280  1
  O  O207  1  0.50747815  0.38108457  0.26520627  1
  O  O208  1  0.50813232  0.37859372  0.76376622  1
  O  O209  1  0.51305190  0.87056486  0.25842446  1
  O  O210  1  0.50482596  0.86938072  0.75804716  1
  O  O211  1  0.50853194  0.12094302  0.23354400  1
  O  O212  1  0.50343241  0.11938333  0.73753736  1
  O  O213  1  0.49689272  0.63103973  0.25831361  1
  O  O214  1  0.50719273  0.63352423  0.74127640  1
  O  O215  1  0.99643280  0.12991973  0.23547016  1
  O  O216  1  1.00595098  0.14005470  0.75813795  1
  O  O217  1  0.98811264  0.61504791  0.25170421  1
  O  O218  1  0.99269311  0.62863381  0.74487319  1
  O  O219  1  0.36319139  0.25361800  0.00646437  1
  O  O220  1  0.36425399  0.25935825  0.50823000  1
  O  O221  1  0.36331949  0.75005514  0.01151535  1
  O  O222  1  0.36827612  0.75241046  0.50547223  1
  O  O223  1  0.87764548  0.26840908  -0.01054248  1
  O  O224  1  0.87067500  0.26098631  0.49998798  1
  O  O225  1  0.86924468  0.75613626  -0.00030320  1
  O  O226  1  0.87110501  0.76135579  0.50983988  1
  O  O227  1  0.14159032  0.25880772  0.49850804  1
  O  O228  1  0.13834477  0.24414738  1.00001815  1
  O  O229  1  0.14762645  0.74753176  0.52057300  1
  O  O230  1  0.13509975  0.75555488  0.98931934  1
  O  O231  1  0.62343146  0.24105769  0.49343745  1
  O  O232  1  0.62911759  0.24438185  0.98507221  1
  O  O233  1  0.62920601  0.73823566  0.50431845  1
  O  O234  1  0.63385376  0.74780372  0.99563398  1
  O  O235  1  0.50834712  0.23661689  0.11487711  1
  O  O236  1  0.48967726  0.23900295  0.62074317  1
  O  O237  1  0.49190402  0.74715009  0.12174889  1
  O  O238  1  0.49677948  0.74192616  0.63533796  1
  O  O239  1  1.00219999  0.24231447  0.11714518  1
  O  O240  1  0.99911008  0.25792053  0.64194688  1
  O  O241  1  0.98606502  0.74334904  0.10906288  1
  O  O242  1  0.98910308  0.74226829  0.62607279  1
  O  O243  1  0.00034905  0.26084831  0.37993269  1
  O  O244  1  0.00323310  0.26390269  0.86172056  1
  O  O245  1  0.02878044  0.73359974  0.44192611  1
  O  O246  1  0.00769556  0.75592705  0.86819485  1
  O  O247  1  0.50873528  0.25026040  0.37928791  1
  O  O248  1  0.50675318  0.25940416  0.88089521  1
  O  O249  1  0.50532590  0.76293129  0.37919242  1
  O  O250  1  0.50136434  0.75582220  0.87310562  1
  O  O251  1  0.25567283  0.13609128  0.48935463  1
  O  O252  1  0.24336533  0.13563448  0.99416680  1
  O  O253  1  0.24404095  0.63205082  0.49316639  1
  O  O254  1  0.25201427  0.63822662  0.98425889  1
  O  O255  1  0.73733142  0.12175163  0.49115717  1
  O  O256  1  0.74783452  0.12164948  0.98653742  1
  O  O257  1  0.74432404  0.61772609  0.49141831  1
  O  O258  1  0.75256427  0.63007584  0.98901055  1
  O  O259  1  0.24954119  0.37160919  0.00521721  1
  O  O260  1  0.25779158  0.36897864  0.50473918  1
  O  O261  1  0.24932703  0.85724257  -0.01391325  1
  O  O262  1  0.25068159  0.86739436  0.49897757  1
  O  O263  1  0.76712833  0.37754159  -0.00184415  1
  O  O264  1  0.75651408  0.37519698  0.50524359  1
  O  O265  1  0.75982684  0.86705868  -0.00266860  1
  O  O266  1  0.76433044  0.88748098  0.50419320  1
  O  O267  1  0.13780698  0.48776228  0.24811644  1
  O  O268  1  0.13405066  0.49665960  0.74430293  1
  O  O269  1  0.09250600  0.98101096  0.24676510  1
  O  O270  1  0.12510373  0.99274344  0.73684137  1
  O  O271  1  0.63146119  0.49334068  0.24734642  1
  O  O272  1  0.62436839  0.48734800  0.74208668  1
  O  O273  1  0.63529564  0.98866908  0.24499374  1
  O  O274  1  0.63122654  0.99213137  0.74835653  1
  O  O275  1  0.38470195  0.00572879  0.26170016  1
  O  O276  1  0.37177893  -0.00333054  0.76467666  1
  O  O277  1  0.36053424  0.50088241  0.24495466  1
  O  O278  1  0.36213981  0.49506354  0.75685006  1
  O  O279  1  0.88106457  0.00723737  0.25803988  1
  O  O280  1  0.86796835  -0.00351961  0.75554940  1
  O  O281  1  0.86751282  0.50369806  0.25353527  1
  O  O282  1  0.87749248  0.51251696  0.74273554  1
  O  O283  1  0.11457923  0.37310846  0.36736045  1
  O  O284  1  0.11898260  0.38163662  0.86167097  1
  O  O285  1  0.09959580  0.87033055  0.37398193  1
  O  O286  1  0.12124165  0.86769370  0.86266861  1
  O  O287  1  0.61422899  0.36882160  0.37266568  1
  O  O288  1  0.62026600  0.37026289  0.86968957  1
  O  O289  1  0.62131360  0.87517270  0.36877874  1
  O  O290  1  0.61379314  0.86934312  0.87124717  1
  O  O291  1  0.39487342  0.12712298  0.12490036  1
  O  O292  1  0.38231958  0.13231324  0.62095803  1
  O  O293  1  0.36745798  0.64219783  0.12650011  1
  O  O294  1  0.38794469  0.62284200  0.62263832  1
  O  O295  1  0.89001594  0.12745178  0.13109522  1
  O  O296  1  0.86336242  0.13073461  0.63372137  1
  O  O297  1  0.87583415  0.62900239  0.13256577  1
  O  O298  1  0.87668368  0.62959781  0.62923858  1
  O  O299  1  0.24909474  0.26334043  0.11761356  1
  O  O300  1  0.25536130  0.25460535  0.61788369  1
  O  O301  1  0.24977380  0.74971448  0.11207987  1
  O  O302  1  0.25662340  0.75872300  0.62186698  1
  O  O303  1  0.74212479  0.25590271  0.11563180  1
  O  O304  1  0.74619613  0.26305589  0.62129560  1
  O  O305  1  0.76044151  0.74855667  0.11030112  1
  O  O306  1  0.76006963  0.74864351  0.63417771  1
  O  O307  1  0.25104020  0.23801592  0.38179407  1
  O  O308  1  0.25627519  0.24469676  0.88213981  1
  O  O309  1  0.25594501  0.73949135  0.38573120  1
  O  O310  1  0.24455942  0.74424856  0.87540567  1
  O  O311  1  0.73563032  0.24265318  0.37888962  1
  O  O312  1  0.74428268  0.24071481  0.87541534  1
  O  O313  1  0.75473043  0.73663343  0.37056217  1
  O  O314  1  0.74600783  0.74603445  0.88403282  1
  O  O315  1  0.00683202  0.12255411  0.00369602  1
  O  O316  1  -0.00599111  0.11527093  0.50693714  1
  O  O317  1  -0.00744302  0.61043220  -0.00706963  1
  O  O318  1  -0.00246193  0.60503832  0.50587397  1
  O  O319  1  0.50678404  0.11438714  0.00527932  1
  O  O320  1  0.50508858  0.11662249  0.50506159  1
  O  O321  1  0.50416286  0.61204801  -0.00844943  1
  O  O322  1  0.51227425  0.62815623  0.51280394  1
  O  O323  1  0.49291976  0.37005085  0.48750015  1
  O  O324  1  0.50177940  0.38709674  0.98722753  1
  O  O325  1  0.49957347  0.88251207  0.49406359  1
  O  O326  1  0.50673742  0.88847894  0.99244630  1
  O  O327  1  0.99192419  0.37666947  0.49573355  1
  O  O328  1  0.99315195  0.38014603  0.99080531  1
  O  O329  1  0.97944225  0.89432179  0.50988132  1
  O  O330  1  0.99813854  0.88287569  0.99754567  1
  O  O331  1  0.50603970  0.48911080  0.38225316  1
  O  O332  1  0.49273441  0.49663670  0.87773857  1
  O  O333  1  0.49662070  0.99085549  0.38163742  1
  O  O334  1  0.49354365  0.99481730  0.88183257  1
  O  O335  1  0.99411261  0.48885888  0.38310179  1
  O  O336  1  1.00315132  0.49111263  0.88303852  1
  O  O337  1  0.99173239  1.01144424  0.39080644  1
  O  O338  1  0.99667372  0.99452478  0.88187765  1
  O  O339  1  -0.00759653  0.01137812  0.11012524  1
  O  O340  1  0.01084612  0.00211438  0.62033358  1
  O  O341  1  0.00195006  0.50410588  0.10913672  1
  O  O342  1  0.00485353  0.50068355  0.61803932  1
  O  O343  1  0.50765320  0.00479623  0.11775401  1
  O  O344  1  0.50212262  0.00413743  0.61841276  1
  O  O345  1  0.50767803  0.49618549  0.11594316  1
  O  O346  1  0.50911046  0.50697603  0.63213635  1
  O  O347  1  0.24590445  0.37993186  0.24418638  1
  O  O348  1  0.24291227  0.38442587  0.74495491  1
  O  O349  1  0.22458293  0.88414117  0.28085283  1
  O  O350  1  0.23755431  0.87762521  0.74058253  1
  O  O351  1  0.74036085  0.38626078  0.25395333  1
  O  O352  1  0.74121160  0.37074077  0.74348424  1
  O  O353  1  0.74904389  0.88160886  0.24749099  1
  O  O354  1  0.74183547  0.88153225  0.75255803  1
  O  O355  1  0.24991218  0.12528734  0.26306403  1
  O  O356  1  0.24233317  0.12537181  0.76382845  1
  O  O357  1  0.25196606  0.61683014  0.26318078  1
  O  O358  1  0.24465168  0.61836016  0.75785118  1
  O  O359  1  0.75842826  0.11810024  0.25231812  1
  O  O360  1  0.74564937  0.11543911  0.76164417  1
  O  O361  1  0.75668648  0.61373470  0.25851765  1
  O  O362  1  0.75593878  0.62744647  0.76390451  1
  O  O363  1  0.36927560  0.11821806  0.37315673  1
  O  O364  1  0.36488959  0.11789894  0.88112920  1
  O  O365  1  0.36550640  0.62289758  0.37922196  1
  O  O366  1  0.36796735  0.61540429  0.87317439  1
  O  O367  1  0.86917310  0.11861809  0.36763009  1
  O  O368  1  0.86932505  0.11877194  0.86982588  1
  O  O369  1  0.87037509  0.61804141  0.37001610  1
  O  O370  1  0.86101107  0.62797685  0.86537895  1
  O  O371  1  0.13242638  0.37978447  0.13097267  1
  O  O372  1  0.13279452  0.38427599  0.63388770  1
  O  O373  1  0.12165097  0.85932390  0.15941641  1
  O  O374  1  0.13213704  0.88090198  0.62605073  1
  O  O375  1  0.62339936  0.38547073  0.13560107  1
  O  O376  1  0.62638373  0.37950467  0.63141910  1
  O  O377  1  0.63014756  0.88077862  0.13200534  1
  O  O378  1  0.62389032  0.88150074  0.63234568  1
  O  O379  1  0.13048496  0.26455499  0.25383392  1
  O  O380  1  0.11598767  0.26253696  0.74547881  1
  O  O381  1  0.12126765  0.74577181  0.27221036  1
  O  O382  1  0.11891692  0.75717791  0.75186882  1
  O  O383  1  0.62779999  0.26323889  0.25821448  1
  O  O384  1  0.62695505  0.25944139  0.76171500  1
  O  O385  1  0.63167826  0.76245136  0.25087702  1
  O  O386  1  0.61487019  0.75538039  0.75734912  1
  O  O387  1  0.37721419  0.24517508  0.24126936  1
  O  O388  1  0.36948418  0.25661708  0.73435667  1
  O  O389  1  0.37536670  0.74755558  0.23581605  1
  O  O390  1  0.38749956  0.75538302  0.75146459  1
  O  O391  1  0.86922952  0.23907321  0.25677207  1
  O  O392  1  0.89152541  0.25019523  0.75008998  1
  O  O393  1  0.86772713  0.73681160  0.23665963  1
  O  O394  1  0.88187009  0.74293149  0.74293472  1
  O  O395  1  0.37124343  0.48354403  0.50555156  1
  O  O396  1  0.38079398  0.50109781  0.99148499  1
  O  O397  1  0.38747248  0.99936573  0.49189713  1
  O  O398  1  0.38288361  0.99921961  0.99104969  1
  O  O399  1  0.88250505  0.48723037  0.49733353  1
  O  O400  1  0.88767535  0.48593740  0.99960468  1
  O  O401  1  0.88123071  0.99985658  0.49330483  1
  O  O402  1  0.88086313  0.99185457  0.99303602  1
  O  O403  1  0.11632421  0.00888156  -0.00301463  1
  O  O404  1  0.10792067  -0.00164231  0.51058597  1
  O  O405  1  0.10769007  0.49422384  -0.00063654  1
  O  O406  1  0.11427969  0.48988156  0.50537924  1
  O  O407  1  0.62010162  0.00676391  0.00274857  1
  O  O408  1  0.61436210  0.00486183  0.50411688  1
  O  O409  1  0.61819153  0.50080788  0.01019550  1
  O  O410  1  0.62739132  0.50827685  0.51360633  1
  O  O411  1  0.36756527  0.37612949  0.12014365  1
  O  O412  1  0.37075446  0.36862447  0.61900530  1
  O  O413  1  0.38082141  0.85800537  0.12933944  1
  O  O414  1  0.35855811  0.87957388  0.62217372  1
  O  O415  1  0.87662715  0.37495793  0.11273741  1
  O  O416  1  0.86605071  0.37165286  0.61760337  1
  O  O417  1  0.87511592  0.86625112  0.11033880  1
  O  O418  1  0.86868236  0.86550382  0.62144855  1
  O  O419  1  0.13802236  0.12705476  0.37472800  1
  O  O420  1  0.13480458  0.12243183  0.88898613  1
  O  O421  1  0.13179061  0.61558436  0.38764428  1
  O  O422  1  0.13096568  0.63936713  0.86829299  1
  O  O423  1  0.62638885  0.12984827  0.37806307  1
  O  O424  1  0.63067332  0.13156621  0.87784013  1
  O  O425  1  0.63509931  0.62714213  0.38698285  1
  O  O426  1  0.63694499  0.63152143  0.87554962  1
