# generated using pymatgen
data_V85Zn86O256
_symmetry_space_group_name_H-M   'P 1'
_cell_length_a   16.94150936
_cell_length_b   16.95583708
_cell_length_c   16.95100262
_cell_angle_alpha   90.02050406
_cell_angle_beta   89.91394833
_cell_angle_gamma   89.99927940
_symmetry_Int_Tables_number   1
_chemical_formula_structural   V85Zn86O256
_chemical_formula_sum   'V85 Zn86 O256'
_cell_volume   4869.29636720
_cell_formula_units_Z   1
loop_
 _symmetry_equiv_pos_site_id
 _symmetry_equiv_pos_as_xyz
  1  'x, y, z'
loop_
 _atom_site_type_symbol
 _atom_site_label
 _atom_site_symmetry_multiplicity
 _atom_site_fract_x
 _atom_site_fract_y
 _atom_site_fract_z
 _atom_site_occupancy
  V  V0  1  0.25405937  0.12505542  0.37700507  1
  V  V1  1  0.37231982  0.48959357  0.38103373  1
  V  V2  1  0.50558107  0.12356271  0.61326183  1
  V  V3  1  0.62028400  0.62401167  0.00084284  1
  V  V4  1  0.25165194  -0.00034004  0.25316855  1
  V  V5  1  0.75102034  0.37216721  0.62343642  1
  V  V6  1  0.88356610  0.62709082  0.75357111  1
  V  V7  1  0.75099621  0.49637457  0.24290972  1
  V  V8  1  0.74309216  0.24491336  0.50002509  1
  V  V9  1  0.24669099  0.75189010  0.00256560  1
  V  V10  1  0.87658535  0.12138783  0.75018089  1
  V  V11  1  0.49453236  0.49119759  0.50223470  1
  V  V12  1  0.37047524  0.75808343  0.62487726  1
  V  V13  1  0.49919711  0.75075323  0.25558933  1
  V  V14  1  0.87682942  -0.00332359  0.37406129  1
  V  V15  1  0.75332921  0.49857290  0.75015272  1
  V  V16  1  0.00465160  0.25131488  0.76245544  1
  V  V17  1  0.37450826  0.62558886  0.25423445  1
  V  V18  1  0.01551134  0.49287878  0.00213248  1
  V  V19  1  0.37578144  0.88696637  0.00257284  1
  V  V20  1  0.62454098  0.49909158  0.62461015  1
  V  V21  1  0.92995732  0.69477218  0.57726373  1
  V  V22  1  0.62673386  0.37348743  0.25100255  1
  V  V23  1  0.75280637  -0.00450520  0.74360975  1
  V  V24  1  0.24717626  0.62677605  0.38331942  1
  V  V25  1  0.12170844  0.74511079  0.87811857  1
  V  V26  1  0.25218572  0.37553418  0.12325816  1
  V  V27  1  0.37510508  0.62576206  0.75119229  1
  V  V28  1  0.11760107  0.87696663  0.24999507  1
  V  V29  1  0.37748448  0.25368348  0.11522619  1
  V  V30  1  0.00307097  0.12507695  0.62496891  1
  V  V31  1  0.88422093  0.62550285  0.23977475  1
  V  V32  1  0.01091445  0.01081199  0.00158439  1
  V  V33  1  0.87190096  0.25614216  0.11381610  1
  V  V34  1  0.12303525  0.37173963  0.75789565  1
  V  V35  1  0.88290377  0.75819422  0.12335122  1
  V  V36  1  0.13441354  -0.00148440  0.62591433  1
  V  V37  1  0.24694032  0.62444519  0.88077391  1
  V  V38  1  0.37899258  0.12853659  0.74943155  1
  V  V39  1  0.75111656  0.62245541  0.36962543  1
  V  V40  1  0.11746185  0.51073516  0.62223646  1
  V  V41  1  0.49861308  0.62560341  0.62435249  1
  V  V42  1  0.75350630  0.76013482  0.00029157  1
  V  V43  1  0.62780849  0.87611870  0.74299606  1
  V  V44  1  0.25086624  0.49988597  0.25178250  1
  V  V45  1  0.75088954  0.62585429  0.87613108  1
  V  V46  1  0.62471961  0.75160430  0.87498279  1
  V  V47  1  0.49605004  0.37317218  0.88659939  1
  V  V48  1  0.87980478  0.12389299  0.24065599  1
  V  V49  1  0.37755115  0.12107240  0.25446655  1
  V  V50  1  0.23309481  0.25412948  -0.00576550  1
  V  V51  1  0.74895674  0.12785155  0.87673362  1
  V  V52  1  0.50026055  0.25052707  0.24773765  1
  V  V53  1  0.62445733  0.62292388  0.49830479  1
  V  V54  1  0.49928600  0.87916802  0.87848779  1
  V  V55  1  0.12364312  0.75295018  0.37352860  1
  V  V56  1  0.37575681  0.88786389  0.50046996  1
  V  V57  1  0.87280238  -0.00661614  0.88587098  1
  V  V58  1  0.38015213  0.49994770  0.88932719  1
  V  V59  1  0.49989221  0.75121999  0.74907577  1
  V  V60  1  0.37776629  0.25726180  0.62010905  1
  V  V61  1  0.11976793  0.37735301  0.25580311  1
  V  V62  1  0.37586475  0.75263627  0.12539117  1
  V  V63  1  0.24056346  0.13141204  0.87424333  1
  V  V64  1  0.87898205  0.48550215  0.88728989  1
  V  V65  1  0.62429272  0.74915205  0.37458470  1
  V  V66  1  0.88611654  0.37417926  0.49286689  1
  V  V67  1  0.24704218  0.75515453  0.50389768  1
  V  V68  1  0.62569453  0.12193779  -0.00417988  1
  V  V69  1  0.87456853  0.87705133  0.51475605  1
  V  V70  1  0.74924066  0.75011984  0.51152120  1
  V  V71  1  0.49845328  0.61814363  0.12367125  1
  V  V72  1  0.49555174  0.12073398  0.11452453  1
  V  V73  1  0.25063570  0.37726057  0.61744202  1
  V  V74  1  0.49825047  0.89221282  0.37973499  1
  V  V75  1  0.87732377  0.24791669  0.62396347  1
  V  V76  1  0.74612021  0.12335956  0.37496603  1
  V  V77  1  0.24926576  0.50014329  0.75026487  1
  V  V78  1  0.62522303  0.00215390  0.61429065  1
  V  V79  1  0.62177608  -0.00379901  0.12127564  1
  V  V80  1  -0.00251293  0.25366683  0.25258990  1
  V  V81  1  -0.00299248  0.87198201  0.88271699  1
  V  V82  1  0.13035573  0.87364042  0.74894312  1
  V  V83  1  0.37711671  0.00530098  0.87683329  1
  V  V84  1  0.12587695  0.12914277  0.49881893  1
  Zn  Zn85  1  0.62182835  0.24513999  0.37744659  1
  Zn  Zn86  1  0.75025578  0.87600443  0.12689636  1
  Zn  Zn87  1  0.00313991  0.50546284  0.50085094  1
  Zn  Zn88  1  0.01292092  0.63212708  0.11377777  1
  Zn  Zn89  1  0.13044322  0.50949148  0.12343823  1
  Zn  Zn90  1  0.75023521  -0.00274483  0.24646721  1
  Zn  Zn91  1  0.25550877  0.25618037  0.49513799  1
  Zn  Zn92  1  0.50705846  0.25188942  0.75491207  1
  Zn  Zn93  1  -0.00335244  0.75042100  0.74899826  1
  Zn  Zn94  1  0.62205768  0.49754681  0.12240708  1
  Zn  Zn95  1  0.62616575  0.87632553  0.24942096  1
  Zn  Zn96  1  0.65375362  0.27864822  0.89259132  1
  Zn  Zn97  1  0.11991375  0.25463005  0.37804651  1
  Zn  Zn98  1  0.61935248  0.37224398  0.74957448  1
  Zn  Zn99  1  0.11564585  0.01154945  0.12977546  1
  Zn  Zn100  1  0.88640554  0.49089258  0.36353484  1
  Zn  Zn101  1  0.24828381  0.87671619  0.12744533  1
  Zn  Zn102  1  0.25331596  -0.00205632  0.74925074  1
  Zn  Zn103  1  0.00161343  -0.00133818  0.49873294  1
  Zn  Zn104  1  -0.00499757  0.86820591  0.37395873  1
  Zn  Zn105  1  0.49742299  0.36911345  0.37980515  1
  Zn  Zn106  1  0.75215302  0.37248711  0.09660121  1
  Zn  Zn107  1  0.18266052  0.19107473  0.18856855  1
  Zn  Zn108  1  0.19157588  0.19049621  0.68832408  1
  Zn  Zn109  1  0.18676580  0.68945023  0.19032255  1
  Zn  Zn110  1  0.18839364  0.69027097  0.69153600  1
  Zn  Zn111  1  0.68952410  0.18520544  0.18498308  1
  Zn  Zn112  1  0.68323510  0.18869076  0.69634491  1
  Zn  Zn113  1  0.68846871  0.68950234  0.18542673  1
  Zn  Zn114  1  0.68836738  0.68308747  0.69061186  1
  Zn  Zn115  1  0.31027093  0.30845672  0.30916901  1
  Zn  Zn116  1  0.31515594  0.31515298  0.81054581  1
  Zn  Zn117  1  0.31346565  0.81668725  0.31794434  1
  Zn  Zn118  1  0.31132891  0.81352836  0.81447141  1
  Zn  Zn119  1  0.81159780  0.30923723  0.31150948  1
  Zn  Zn120  1  0.81654183  0.31004015  0.80741031  1
  Zn  Zn121  1  0.81179660  0.81114573  0.31063389  1
  Zn  Zn122  1  0.81306963  0.81180330  0.80924580  1
  Zn  Zn123  1  0.18296491  0.43985164  0.43974857  1
  Zn  Zn124  1  0.19261393  0.43338032  0.93729655  1
  Zn  Zn125  1  0.19027073  0.93999053  0.43711445  1
  Zn  Zn126  1  0.18985858  0.93729242  0.93398855  1
  Zn  Zn127  1  0.68892473  0.43551087  0.43430431  1
  Zn  Zn128  1  0.68334920  0.44599184  0.93599865  1
  Zn  Zn129  1  0.69319592  0.93201023  0.43376598  1
  Zn  Zn130  1  0.68379656  0.94261778  0.93666298  1
  Zn  Zn131  1  0.27480612  0.08552856  0.08113288  1
  Zn  Zn132  1  0.31327939  0.06860841  0.56420451  1
  Zn  Zn133  1  0.30857048  0.56705746  0.06494042  1
  Zn  Zn134  1  0.31012779  0.56537592  0.56416675  1
  Zn  Zn135  1  0.81048402  0.06148220  0.06165989  1
  Zn  Zn136  1  0.81152212  0.06112594  0.56137050  1
  Zn  Zn137  1  0.80982431  0.56615275  0.06187582  1
  Zn  Zn138  1  0.81046521  0.55605182  0.55747375  1
  Zn  Zn139  1  0.43596972  0.43549032  0.19037610  1
  Zn  Zn140  1  0.43553910  0.43680173  0.69348973  1
  Zn  Zn141  1  0.43742036  0.94008501  0.19086752  1
  Zn  Zn142  1  0.43984107  0.94126940  0.68750617  1
  Zn  Zn143  1  0.93837351  0.43435013  0.17742781  1
  Zn  Zn144  1  0.93903123  0.43635538  0.68848547  1
  Zn  Zn145  1  0.93861573  0.93862261  0.18451164  1
  Zn  Zn146  1  0.94563280  0.93725517  0.69178066  1
  Zn  Zn147  1  0.06109863  0.06467863  0.31351214  1
  Zn  Zn148  1  0.06122411  0.05923683  0.81303521  1
  Zn  Zn149  1  0.06714846  0.56336610  0.30821476  1
  Zn  Zn150  1  0.06084657  0.55730012  0.81681572  1
  Zn  Zn151  1  0.56587364  0.06472171  0.30586268  1
  Zn  Zn152  1  0.56170980  0.06132573  0.80814204  1
  Zn  Zn153  1  0.56099531  0.55859778  0.31276558  1
  Zn  Zn154  1  0.56244099  0.55975172  0.81308612  1
  Zn  Zn155  1  0.43767540  0.18746799  0.43777819  1
  Zn  Zn156  1  0.43581748  0.18875456  0.93983897  1
  Zn  Zn157  1  0.43368011  0.68642753  0.44091008  1
  Zn  Zn158  1  0.43470489  0.69096757  0.93890669  1
  Zn  Zn159  1  0.93522445  0.18625050  0.43396627  1
  Zn  Zn160  1  0.93628796  0.18317615  0.93709917  1
  Zn  Zn161  1  0.96161158  0.65294122  0.40475160  1
  Zn  Zn162  1  0.93684497  0.68086446  0.94153148  1
  Zn  Zn163  1  0.05657078  0.31734856  0.06922810  1
  Zn  Zn164  1  0.06658094  0.31252768  0.56986074  1
  Zn  Zn165  1  0.06483979  0.82092313  0.06292584  1
  Zn  Zn166  1  0.06717898  0.82049688  0.55789962  1
  Zn  Zn167  1  0.58838720  0.32205435  0.04783730  1
  Zn  Zn168  1  0.56322047  0.31094930  0.56574043  1
  Zn  Zn169  1  0.56033874  0.81020146  0.06247200  1
  Zn  Zn170  1  0.56199062  0.81443251  0.56020258  1
  O  O171  1  0.16494373  0.11133247  0.11596666  1
  O  O172  1  0.12079309  0.12210662  0.62007124  1
  O  O173  1  0.12570985  0.62365116  0.12782615  1
  O  O174  1  0.12994283  0.60878574  0.63511519  1
  O  O175  1  0.61653627  0.11941885  0.11663342  1
  O  O176  1  0.61322297  0.11941929  0.63082748  1
  O  O177  1  0.61511283  0.62733842  0.11830392  1
  O  O178  1  0.61927883  0.61768102  0.61962743  1
  O  O179  1  0.37284263  0.38650773  0.37272600  1
  O  O180  1  0.38069010  0.39239136  0.87188159  1
  O  O181  1  0.39039509  0.87408087  0.38423217  1
  O  O182  1  0.38030383  0.88298608  0.87923807  1
  O  O183  1  0.87109597  0.37553251  0.38914413  1
  O  O184  1  0.87000276  0.38821950  0.87036169  1
  O  O185  1  0.87660253  0.88152505  0.37900099  1
  O  O186  1  0.88397595  0.88265356  0.86804904  1
  O  O187  1  0.24771891  0.01450698  0.36737103  1
  O  O188  1  0.26181355  0.00976222  0.87389942  1
  O  O189  1  0.25506413  0.50854637  0.37578759  1
  O  O190  1  0.25881496  0.50738676  0.87245167  1
  O  O191  1  0.76099012  0.00537711  0.37303213  1
  O  O192  1  0.75826885  0.00200030  0.86611174  1
  O  O193  1  0.75367119  0.51028287  0.36831872  1
  O  O194  1  0.75620758  0.50421755  0.86690265  1
  O  O195  1  0.25327729  0.49259697  0.13142942  1
  O  O196  1  0.24421562  0.49547101  0.63132947  1
  O  O197  1  0.26409369  0.99152539  0.14604555  1
  O  O198  1  0.23807169  1.00841610  0.62958153  1
  O  O199  1  0.74583442  0.49365122  0.12959337  1
  O  O200  1  0.74728188  0.49153432  0.63065647  1
  O  O201  1  0.73974304  0.99600034  0.12352710  1
  O  O202  1  0.74353878  1.00647094  0.63774866  1
  O  O203  1  0.00806743  0.37025371  0.24678289  1
  O  O204  1  0.01324812  0.36621885  0.74417269  1
  O  O205  1  0.01330270  0.88136556  0.25359910  1
  O  O206  1  0.01131672  0.87317114  0.76289305  1
  O  O207  1  0.50463195  0.36440766  0.25330902  1
  O  O208  1  0.50016505  0.37341444  0.75976794  1
  O  O209  1  0.49914365  0.86794744  0.26402473  1
  O  O210  1  0.50487716  0.87070313  0.75977253  1
  O  O211  1  0.49461535  0.13351734  0.24332213  1
  O  O212  1  0.49034597  0.12893876  0.74634078  1
  O  O213  1  0.49385443  0.63198951  0.24660499  1
  O  O214  1  0.49578116  0.63104393  0.74476369  1
  O  O215  1  0.98655230  0.13050824  0.25084426  1
  O  O216  1  0.99670297  0.12929554  0.74382297  1
  O  O217  1  0.98681297  0.62214111  0.24245380  1
  O  O218  1  0.98702563  0.62300841  0.75469566  1
  O  O219  1  0.37307012  0.25150138  0.01378690  1
  O  O220  1  0.37537981  0.24769374  0.51515191  1
  O  O221  1  0.36437026  0.76028617  0.00251485  1
  O  O222  1  0.36852012  0.75761951  0.50833544  1
  O  O223  1  0.87834246  0.24020246  0.01592561  1
  O  O224  1  0.86827842  0.25886900  0.50422910  1
  O  O225  1  0.86505981  0.74462552  0.01114780  1
  O  O226  1  0.87128346  0.75221700  0.51062495  1
  O  O227  1  0.12693141  0.23972533  0.50117701  1
  O  O228  1  0.13488746  0.25581004  1.00372287  1
  O  O229  1  0.13962262  0.75847198  0.49312744  1
  O  O230  1  0.13863417  0.75874387  0.99321349  1
  O  O231  1  0.63930551  0.25581099  0.49851035  1
  O  O232  1  0.60755063  0.22493402  0.98729188  1
  O  O233  1  0.63041166  0.74402449  0.49369173  1
  O  O234  1  0.63006366  0.74384421  0.99316274  1
  O  O235  1  0.49336212  0.24229858  0.13181968  1
  O  O236  1  0.49719110  0.24086014  0.62906727  1
  O  O237  1  0.49530301  0.74455394  0.13908964  1
  O  O238  1  0.49452906  0.74462122  0.62985672  1
  O  O239  1  0.98505855  0.25385860  0.13780749  1
  O  O240  1  0.99807658  0.23851729  0.63158624  1
  O  O241  1  0.98661513  0.75051122  0.11398260  1
  O  O242  1  0.99898510  0.75168544  0.62743964  1
  O  O243  1  0.00002622  0.24612360  0.35961651  1
  O  O244  1  -0.00561297  0.24494207  0.86119083  1
  O  O245  1  0.01912978  0.74715800  0.37765347  1
  O  O246  1  0.00664746  0.75331265  0.87880235  1
  O  O247  1  0.50190178  0.24980946  0.36557447  1
  O  O248  1  0.48508823  0.26880957  0.87394510  1
  O  O249  1  0.50313192  0.74781401  0.36645497  1
  O  O250  1  0.50402745  0.75696649  0.86736172  1
  O  O251  1  0.24395370  0.12852006  0.49394150  1
  O  O252  1  0.25915891  0.14638308  0.98609230  1
  O  O253  1  0.25581967  0.63778488  0.49222692  1
  O  O254  1  0.25547541  0.63583226  0.98826848  1
  O  O255  1  0.75893508  0.13516900  0.49065384  1
  O  O256  1  0.73928782  0.11754394  0.98946911  1
  O  O257  1  0.74634262  0.62814730  0.49008442  1
  O  O258  1  0.74054088  0.63521222  0.99397250  1
  O  O259  1  0.25042240  0.36415650  0.00744304  1
  O  O260  1  0.24569517  0.37544577  0.51300685  1
  O  O261  1  0.25913208  0.86951291  0.00057286  1
  O  O262  1  0.26275655  0.86711168  0.49295242  1
  O  O263  1  0.69637829  0.35493537  -0.00160383  1
  O  O264  1  0.75804262  0.37056437  0.50945518  1
  O  O265  1  0.74378942  0.86268537  -0.00293765  1
  O  O266  1  0.76275679  0.85952436  0.49200290  1
  O  O267  1  0.13371080  0.49337131  0.24928300  1
  O  O268  1  0.12820227  0.49140039  0.74410942  1
  O  O269  1  0.13344392  0.99540853  0.25130123  1
  O  O270  1  0.12693127  0.99211263  0.74374808  1
  O  O271  1  0.63191981  0.49302480  0.24898294  1
  O  O272  1  0.63905441  0.50213222  0.74349350  1
  O  O273  1  0.62772531  0.99980098  0.23512544  1
  O  O274  1  0.63315649  0.99260174  0.74290356  1
  O  O275  1  0.37278334  0.01443220  0.25342724  1
  O  O276  1  0.37320515  0.00817435  0.75662998  1
  O  O277  1  0.37046548  0.50565529  0.26141135  1
  O  O278  1  0.36617965  0.51011987  0.75535216  1
  O  O279  1  0.87568539  0.00941134  0.25378774  1
  O  O280  1  0.86961006  0.00263553  0.75538960  1
  O  O281  1  0.86812504  0.50513046  0.24547174  1
  O  O282  1  0.86702613  0.50407692  0.75439425  1
  O  O283  1  0.13068022  0.37409192  0.36168979  1
  O  O284  1  0.13025236  0.38032439  0.85644340  1
  O  O285  1  0.12322365  0.87033165  0.37036416  1
  O  O286  1  0.12009936  0.86402800  0.86992816  1
  O  O287  1  0.62155200  0.37229124  0.36418482  1
  O  O288  1  0.60606018  0.38565861  0.86871131  1
  O  O289  1  0.61272366  0.86779748  0.37589369  1
  O  O290  1  0.61584793  0.87404672  0.86668072  1
  O  O291  1  0.37805799  0.13319853  0.13303625  1
  O  O292  1  0.38619463  0.13083966  0.63156262  1
  O  O293  1  0.38022028  0.63299223  0.13199856  1
  O  O294  1  0.37938901  0.63638745  0.63075644  1
  O  O295  1  0.86994863  0.12911709  0.13780869  1
  O  O296  1  0.88420306  0.12752560  0.62900789  1
  O  O297  1  0.87390457  0.63496217  0.12816032  1
  O  O298  1  0.87126675  0.62772495  0.63147314  1
  O  O299  1  0.25659009  0.25774979  0.11511014  1
  O  O300  1  0.25901752  0.25998717  0.62319284  1
  O  O301  1  0.25803199  0.75460190  0.11783553  1
  O  O302  1  0.25901984  0.74765874  0.61851298  1
  O  O303  1  0.76621610  0.25180599  0.13118055  1
  O  O304  1  0.75440684  0.25433388  0.62054848  1
  O  O305  1  0.75607011  0.75276194  0.11504819  1
  O  O306  1  0.74068633  0.74534077  0.61083618  1
  O  O307  1  0.24567816  0.23969281  0.37639388  1
  O  O308  1  0.25427756  0.24986486  0.88640888  1
  O  O309  1  0.24759457  0.74452892  0.38422193  1
  O  O310  1  0.24409741  0.74339581  0.88149257  1
  O  O311  1  0.74979726  0.24150264  0.38334192  1
  O  O312  1  0.75925613  0.23266351  0.87089079  1
  O  O313  1  0.74316034  0.73840394  0.37975381  1
  O  O314  1  0.74440475  0.74536190  0.88034563  1
  O  O315  1  0.00474829  0.10923251  -0.00901780  1
  O  O316  1  0.00680902  0.12481852  0.50760335  1
  O  O317  1  -0.00986978  0.60100357  0.00064870  1
  O  O318  1  -0.01414338  0.63588669  0.51765645  1
  O  O319  1  0.49790270  0.12021926  0.01071200  1
  O  O320  1  0.50051525  0.12658817  0.51451207  1
  O  O321  1  0.50580544  0.63880690  0.01288007  1
  O  O322  1  0.50532761  0.61715550  0.50572664  1
  O  O323  1  0.50398002  0.38741294  0.50065115  1
  O  O324  1  0.50275633  0.37638510  0.98627302  1
  O  O325  1  0.49322365  0.87085306  0.48637316  1
  O  O326  1  0.49137362  0.86644911  0.98560805  1
  O  O327  1  0.98787118  0.37123175  0.50457639  1
  O  O328  1  0.99946847  0.39202606  1.00220191  1
  O  O329  1  0.98976545  0.87835204  0.49514483  1
  O  O330  1  1.00252637  0.88299417  0.98637096  1
  O  O331  1  0.48952134  0.49903244  0.38457871  1
  O  O332  1  0.48562396  0.49646651  0.87193495  1
  O  O333  1  0.50598193  0.99013201  0.37318230  1
  O  O334  1  0.48709893  0.99265623  0.87025610  1
  O  O335  1  0.99131315  0.53536207  0.38863347  1
  O  O336  1  0.98620198  0.49931387  0.88483907  1
  O  O337  1  0.98623242  1.00241649  0.37761292  1
  O  O338  1  0.99278087  0.99249245  0.88083383  1
  O  O339  1  -0.00082191  -0.00201475  0.10654680  1
  O  O340  1  0.01031746  0.01277531  0.62583785  1
  O  O341  1  0.00566944  0.50095560  0.11202914  1
  O  O342  1  0.01323625  0.49809383  0.62438298  1
  O  O343  1  0.50612170  0.01115053  0.13189314  1
  O  O344  1  0.50909161  0.01484755  0.62996302  1
  O  O345  1  0.49832123  0.51473958  0.13261406  1
  O  O346  1  0.50200617  0.50518150  0.61967567  1
  O  O347  1  0.24507248  0.38113958  0.24412224  1
  O  O348  1  0.24131976  0.37988740  0.74215142  1
  O  O349  1  0.24511705  0.88610606  0.25671827  1
  O  O350  1  0.23576068  0.87667352  0.75636434  1
  O  O351  1  0.74433118  0.38648627  0.25552574  1
  O  O352  1  0.75197992  0.38078353  0.73799421  1
  O  O353  1  0.74422181  0.87772488  0.24796950  1
  O  O354  1  0.73930491  0.88235722  0.75389680  1
  O  O355  1  0.25914377  0.12175116  0.25890512  1
  O  O356  1  0.26383609  0.12766845  0.75609543  1
  O  O357  1  0.25880810  0.61955160  0.25903632  1
  O  O358  1  0.25522936  0.62286986  0.76347097  1
  O  O359  1  0.76222698  0.12312788  0.25701263  1
  O  O360  1  0.75645681  0.11495179  0.75608459  1
  O  O361  1  0.75116703  0.61305517  0.25156566  1
  O  O362  1  0.75782238  0.61644722  0.75557971  1
  O  O363  1  0.36724345  0.13084919  0.36755831  1
  O  O364  1  0.37302367  0.11996353  0.86811795  1
  O  O365  1  0.36638261  0.61902158  0.37186463  1
  O  O366  1  0.37018178  0.61849618  0.87120955  1
  O  O367  1  0.86711532  0.11749915  0.36632034  1
  O  O368  1  0.86846735  0.11299279  0.86869507  1
  O  O369  1  0.86143522  0.63009751  0.35588987  1
  O  O370  1  0.86740663  0.61530978  0.86854412  1
  O  O371  1  0.13792903  0.37791761  0.13629174  1
  O  O372  1  0.13362531  0.38448020  0.63353569  1
  O  O373  1  0.12903355  0.88292244  0.13571784  1
  O  O374  1  0.11961894  0.88693408  0.63457430  1
  O  O375  1  0.62221375  0.37790988  0.14255054  1
  O  O376  1  0.63435761  0.38093112  0.62721973  1
  O  O377  1  0.62089773  0.88320407  0.12543932  1
  O  O378  1  0.61439759  0.88259243  0.63763272  1
  O  O379  1  0.11520849  0.25826245  0.24981183  1
  O  O380  1  0.11958564  0.26291302  0.74399081  1
  O  O381  1  0.13845459  0.76617885  0.26178832  1
  O  O382  1  0.12088894  0.75576855  0.75907885  1
  O  O383  1  0.61746322  0.25446221  0.25049980  1
  O  O384  1  0.62620412  0.25448067  0.76826818  1
  O  O385  1  0.61576806  0.74992741  0.25633001  1
  O  O386  1  0.62188787  0.75721938  0.75508364  1
  O  O387  1  0.38225966  0.24184770  0.24305317  1
  O  O388  1  0.37652570  0.24369229  0.73898938  1
  O  O389  1  0.38092989  0.74650978  0.24839007  1
  O  O390  1  0.37833327  0.74711770  0.74395412  1
  O  O391  1  0.87922468  0.24003329  0.24671745  1
  O  O392  1  0.88385328  0.24256413  0.74119772  1
  O  O393  1  0.86811404  0.74053129  0.23195889  1
  O  O394  1  0.87696994  0.73694651  0.75214136  1
  O  O395  1  0.38339145  0.50697557  0.49375654  1
  O  O396  1  0.37290270  0.50735247  0.98746530  1
  O  O397  1  0.37221512  0.98682289  0.51093402  1
  O  O398  1  0.37055469  0.98891353  0.99272340  1
  O  O399  1  0.87915158  0.48351765  0.50129732  1
  O  O400  1  0.86532093  0.49537940  0.98778508  1
  O  O401  1  0.87418417  0.99162689  0.49244656  1
  O  O402  1  0.88279777  1.00261916  0.98892512  1
  O  O403  1  0.11328566  -0.00461185  -0.00328305  1
  O  O404  1  0.12463678  0.01072415  0.50746974  1
  O  O405  1  0.11898171  0.49786615  -0.00242889  1
  O  O406  1  0.12232071  0.50067949  0.51611200  1
  O  O407  1  0.62095307  0.00601458  0.01042765  1
  O  O408  1  0.63680640  -0.00975276  0.51598009  1
  O  O409  1  0.62304672  0.52021028  0.00205924  1
  O  O410  1  0.61920912  0.50426981  0.50467188  1
  O  O411  1  0.36310953  0.36656729  0.13428556  1
  O  O412  1  0.36510982  0.36878102  0.63113231  1
  O  O413  1  0.37988776  0.86952164  0.11700469  1
  O  O414  1  0.38483186  0.86404598  0.61956843  1
  O  O415  1  0.86756116  0.36197318  0.12211556  1
  O  O416  1  0.86936214  0.36788681  0.61857698  1
  O  O417  1  0.87302332  0.86143549  0.12775046  1
  O  O418  1  0.87903862  0.88304586  0.61465784  1
  O  O419  1  0.13085214  0.12725516  0.38451176  1
  O  O420  1  0.14200765  0.12203398  0.86433804  1
  O  O421  1  0.14042445  0.63558209  0.36761449  1
  O  O422  1  0.13206108  0.63556647  0.87063533  1
  O  O423  1  0.64126726  0.12420622  0.36959889  1
  O  O424  1  0.63687503  0.10848834  0.88075828  1
  O  O425  1  0.63093334  0.62785847  0.37916803  1
  O  O426  1  0.62852724  0.63117111  0.87996788  1
