# generated using pymatgen
data_V85Zn86O256
_symmetry_space_group_name_H-M   'P 1'
_cell_length_a   16.94020664
_cell_length_b   16.93656712
_cell_length_c   16.94858405
_cell_angle_alpha   90.08278242
_cell_angle_beta   90.08956164
_cell_angle_gamma   90.07232210
_symmetry_Int_Tables_number   1
_chemical_formula_structural   V85Zn86O256
_chemical_formula_sum   'V85 Zn86 O256'
_cell_volume   4862.68549597
_cell_formula_units_Z   1
loop_
 _symmetry_equiv_pos_site_id
 _symmetry_equiv_pos_as_xyz
  1  'x, y, z'
loop_
 _atom_site_type_symbol
 _atom_site_label
 _atom_site_symmetry_multiplicity
 _atom_site_fract_x
 _atom_site_fract_y
 _atom_site_fract_z
 _atom_site_occupancy
  V  V0  1  0.37242395  0.49589160  0.87137805  1
  V  V1  1  0.87732379  0.25378873  0.12254607  1
  V  V2  1  0.13425581  0.39128264  0.24887274  1
  V  V3  1  0.36075691  0.24860699  0.62430559  1
  V  V4  1  -0.00211299  0.38158002  0.87589831  1
  V  V5  1  0.87883711  0.74893192  0.12631037  1
  V  V6  1  0.87064140  0.61986147  0.24909079  1
  V  V7  1  0.49840216  0.87329830  0.37556827  1
  V  V8  1  0.87311187  0.49936863  0.37618302  1
  V  V9  1  0.74442240  0.12619912  0.88264904  1
  V  V10  1  0.62891043  0.87190868  0.74880524  1
  V  V11  1  0.11457201  0.62917212  0.51510004  1
  V  V12  1  0.12498262  0.24744500  0.87518608  1
  V  V13  1  0.62398847  0.49824602  0.62507404  1
  V  V14  1  0.50382098  0.87414500  0.87710648  1
  V  V15  1  0.12423254  0.13182671  0.49870715  1
  V  V16  1  0.62561404  0.37292266  0.75169478  1
  V  V17  1  0.62766838  0.74681596  0.87498026  1
  V  V18  1  0.24926775  0.48353031  0.73642263  1
  V  V19  1  0.36534419  0.36880802  0.00477329  1
  V  V20  1  0.75075526  0.38462973  0.13839941  1
  V  V21  1  0.86908908  0.24818905  0.61753497  1
  V  V22  1  0.88166498  0.74415271  0.62338298  1
  V  V23  1  0.75063375  0.14285091  0.37979355  1
  V  V24  1  0.38120181  0.75683362  0.13815933  1
  V  V25  1  0.24394501  0.12564056  0.36835706  1
  V  V26  1  0.36711326  0.37340333  0.49336266  1
  V  V27  1  0.36702144  0.00083603  0.36419451  1
  V  V28  1  0.50938359  0.01140288  -0.00226863  1
  V  V29  1  0.37440358  0.61636184  0.26022125  1
  V  V30  1  0.87399998  0.12540736  0.74983146  1
  V  V31  1  0.74766409  0.37120517  0.61325335  1
  V  V32  1  0.75368378  0.87775893  0.13877178  1
  V  V33  1  0.00780740  0.61648675  0.12853500  1
  V  V34  1  0.25081344  0.87961775  0.63720504  1
  V  V35  1  0.75454956  0.49541789  0.75383758  1
  V  V36  1  0.61081718  0.87754057  0.24824633  1
  V  V37  1  0.37923690  0.87547655  0.00251951  1
  V  V38  1  0.00530462  0.25431985  0.74962305  1
  V  V39  1  0.24878157  0.75043674  0.50028827  1
  V  V40  1  -0.00095321  -0.00183135  0.49039173  1
  V  V41  1  0.75844853  0.61745399  0.87833677  1
  V  V42  1  0.74751135  0.74750001  0.49753372  1
  V  V43  1  0.49829630  0.62667590  0.13116926  1
  V  V44  1  0.12209000  0.75251140  0.37692604  1
  V  V45  1  -0.00376372  0.12262065  0.62366727  1
  V  V46  1  0.74061776  0.25264517  0.00364574  1
  V  V47  1  0.11671994  0.48574250  0.62744980  1
  V  V48  1  0.00155481  0.86986741  0.87565031  1
  V  V49  1  0.12633216  0.00007539  0.63097362  1
  V  V50  1  0.49630312  0.48908339  0.49002320  1
  V  V51  1  0.86721637  0.12606497  0.24656671  1
  V  V52  1  0.12876290  0.61940261  0.00017330  1
  V  V53  1  0.59335337  0.37925391  0.25088500  1
  V  V54  1  0.75164135  0.87335377  0.62342770  1
  V  V55  1  0.62150159  0.00631123  0.61995067  1
  V  V56  1  0.24558108  0.24157058  0.00434536  1
  V  V57  1  0.75213977  0.74950783  0.00176164  1
  V  V58  1  0.25302175  0.74963626  -0.00011652  1
  V  V59  1  0.74345796  0.61778363  0.36926431  1
  V  V60  1  0.87806281  0.87397589  0.49343141  1
  V  V61  1  0.25190155  0.88245148  0.12877177  1
  V  V62  1  0.50094995  0.23795493  0.73927902  1
  V  V63  1  0.87600545  -0.00004471  0.87635915  1
  V  V64  1  0.88134778  0.62174849  0.74780400  1
  V  V65  1  0.12533361  0.87999417  0.25177099  1
  V  V66  1  0.62134934  0.62425151  0.49780952  1
  V  V67  1  0.12826478  0.01125188  0.12441665  1
  V  V68  1  0.49938783  0.37138710  0.87202492  1
  V  V69  1  0.87740759  0.87503971  0.00272039  1
  V  V70  1  0.36790127  0.00085999  0.86996264  1
  V  V71  1  0.75164782  -0.00065576  0.75038614  1
  V  V72  1  0.50263420  0.74572527  0.75012656  1
  V  V73  1  0.37534217  0.74935776  0.62575577  1
  V  V74  1  0.00492860  0.01062907  0.00046220  1
  V  V75  1  0.62264553  0.62207852  0.00184855  1
  V  V76  1  0.00461472  0.37481604  0.37734494  1
  V  V77  1  0.01566927  0.25110120  0.25120508  1
  V  V78  1  0.63104514  0.00621947  0.12416233  1
  V  V79  1  0.86415440  -0.00188454  0.36806198  1
  V  V80  1  0.49918991  0.62170923  0.62443723  1
  V  V81  1  0.37124956  0.62204668  0.74485275  1
  V  V82  1  0.37411547  0.88148438  0.50315526  1
  V  V83  1  0.59834153  0.25706733  0.37232060  1
  V  V84  1  0.00116511  0.75332920  0.25363104  1
  Zn  Zn85  1  0.12683500  0.87412337  0.75459987  1
  Zn  Zn86  1  0.12694772  0.74807991  0.87374580  1
  Zn  Zn87  1  -0.00669843  0.50423274  0.50728051  1
  Zn  Zn88  1  0.49837454  0.49746951  0.00140416  1
  Zn  Zn89  1  0.16983842  0.49423531  0.12571292  1
  Zn  Zn90  1  0.61947837  0.74712831  0.36678159  1
  Zn  Zn91  1  0.36943428  0.11380818  0.73768202  1
  Zn  Zn92  1  0.23964118  0.25338815  0.49975123  1
  Zn  Zn93  1  0.24084080  0.12012962  0.86789742  1
  Zn  Zn94  1  0.87119732  0.37067765  0.49497160  1
  Zn  Zn95  1  0.86941662  0.38853412  -0.00566467  1
  Zn  Zn96  1  -0.00054984  0.49893277  0.00035969  1
  Zn  Zn97  1  0.62649289  0.50519654  0.13446585  1
  Zn  Zn98  1  0.40539780  0.16722357  0.24899774  1
  Zn  Zn99  1  0.00603332  0.74627963  0.74646642  1
  Zn  Zn100  1  0.49498004  0.14718452  0.11563252  1
  Zn  Zn101  1  0.62007428  0.24366658  0.87739829  1
  Zn  Zn102  1  0.00612577  0.13114562  0.12391837  1
  Zn  Zn103  1  0.24848027  0.62214406  0.87207778  1
  Zn  Zn104  1  0.62480543  0.13992257  0.50444009  1
  Zn  Zn105  1  0.24471835  0.61358947  0.36466064  1
  Zn  Zn106  1  0.49749898  0.00829991  0.50151661  1
  Zn  Zn107  1  0.22398176  0.21254555  0.20978444  1
  Zn  Zn108  1  0.18784066  0.18118441  0.69199317  1
  Zn  Zn109  1  0.19209575  0.68873889  0.18662698  1
  Zn  Zn110  1  0.18808836  0.68905201  0.68770690  1
  Zn  Zn111  1  0.65591953  0.20963529  0.17541421  1
  Zn  Zn112  1  0.68874836  0.18742733  0.69161980  1
  Zn  Zn113  1  0.68621149  0.69276380  0.18857135  1
  Zn  Zn114  1  0.69276442  0.68371186  0.68631359  1
  Zn  Zn115  1  0.31302551  0.31403045  0.32196927  1
  Zn  Zn116  1  0.31252605  0.30604402  0.81022780  1
  Zn  Zn117  1  0.30824644  0.81434987  0.31523212  1
  Zn  Zn118  1  0.31507017  0.81184852  0.81560776  1
  Zn  Zn119  1  0.81917396  0.31157798  0.30752411  1
  Zn  Zn120  1  0.81593601  0.31041798  0.81187955  1
  Zn  Zn121  1  0.81124983  0.80714842  0.31439681  1
  Zn  Zn122  1  0.81627791  0.80873847  0.81312704  1
  Zn  Zn123  1  0.18530556  0.44047474  0.43640209  1
  Zn  Zn124  1  0.18467172  0.43324284  0.92970128  1
  Zn  Zn125  1  0.18574188  0.93715387  0.44110423  1
  Zn  Zn126  1  0.18608926  0.93581954  0.94271974  1
  Zn  Zn127  1  0.67941677  0.43494554  0.42932798  1
  Zn  Zn128  1  0.68649701  0.43605898  0.94135515  1
  Zn  Zn129  1  0.69152077  0.93906031  0.43346226  1
  Zn  Zn130  1  0.69110210  0.93565681  0.94046941  1
  Zn  Zn131  1  0.31485727  0.06700949  0.05768230  1
  Zn  Zn132  1  0.30917844  0.06591576  0.56385869  1
  Zn  Zn133  1  0.31892071  0.56801766  0.05963112  1
  Zn  Zn134  1  0.29201539  0.54386583  0.53155762  1
  Zn  Zn135  1  0.81331974  0.06423905  0.06349303  1
  Zn  Zn136  1  0.80722043  0.06187210  0.55788691  1
  Zn  Zn137  1  0.81756339  0.55787196  0.06213970  1
  Zn  Zn138  1  0.80907634  0.56068378  0.56172946  1
  Zn  Zn139  1  0.38538756  0.45290569  0.17238356  1
  Zn  Zn140  1  0.43617704  0.43098460  0.68128541  1
  Zn  Zn141  1  0.43724068  1.01068696  0.18658062  1
  Zn  Zn142  1  0.44306937  0.93444762  0.68933198  1
  Zn  Zn143  1  0.93856673  0.43588353  0.19075410  1
  Zn  Zn144  1  0.93509633  0.43323711  0.68924819  1
  Zn  Zn145  1  0.94225311  0.94066160  0.18861499  1
  Zn  Zn146  1  0.93898136  0.93479911  0.68631442  1
  Zn  Zn147  1  0.06033887  0.06447829  0.31079321  1
  Zn  Zn148  1  0.06073622  0.06296259  0.81224781  1
  Zn  Zn149  1  0.06165233  0.56478631  0.31829453  1
  Zn  Zn150  1  0.06810495  0.56168418  0.80920674  1
  Zn  Zn151  1  0.56713399  0.06173158  0.31621628  1
  Zn  Zn152  1  0.56328616  0.06001653  0.80996710  1
  Zn  Zn153  1  0.55293417  0.56080170  0.30906992  1
  Zn  Zn154  1  0.56362602  0.55867355  0.81415278  1
  Zn  Zn155  1  0.43470317  0.18028800  0.44533867  1
  Zn  Zn156  1  0.43396808  0.18734530  0.93320861  1
  Zn  Zn157  1  0.43917978  0.69053979  0.43996547  1
  Zn  Zn158  1  0.43669506  0.68614418  0.93776707  1
  Zn  Zn159  1  0.93920103  0.18785439  0.43361073  1
  Zn  Zn160  1  0.93348219  0.19241513  0.93748876  1
  Zn  Zn161  1  0.93740766  0.68702915  0.43467098  1
  Zn  Zn162  1  0.93984864  0.68181929  0.94013924  1
  Zn  Zn163  1  0.07006018  0.31748055  0.06391082  1
  Zn  Zn164  1  0.05448260  0.31325792  0.56165678  1
  Zn  Zn165  1  0.06553125  0.81140794  0.06335716  1
  Zn  Zn166  1  0.06085000  0.81713771  0.56355336  1
  Zn  Zn167  1  0.55844388  0.31934274  0.06316305  1
  Zn  Zn168  1  0.56206924  0.31112536  0.55984575  1
  Zn  Zn169  1  0.56355932  0.81383085  0.06505520  1
  Zn  Zn170  1  0.56242747  0.81435856  0.55974808  1
  O  O171  1  0.12638245  0.11074653  0.13497360  1
  O  O172  1  0.11735075  0.11678106  0.61810923  1
  O  O173  1  0.12355216  0.61911447  0.12095217  1
  O  O174  1  0.12268840  0.62259112  0.61900006  1
  O  O175  1  0.63862975  0.10609719  0.12848146  1
  O  O176  1  0.63640304  0.10961653  0.62352878  1
  O  O177  1  0.61880530  0.62569052  0.12048366  1
  O  O178  1  0.62078702  0.61849060  0.61893113  1
  O  O179  1  0.37994157  0.36978170  0.39464462  1
  O  O180  1  0.38097094  0.38143011  0.87345565  1
  O  O181  1  0.37688071  0.88084420  0.38514218  1
  O  O182  1  0.38391879  0.88160026  0.88023274  1
  O  O183  1  0.88059925  0.38476037  0.37371431  1
  O  O184  1  0.89198339  0.36616565  0.87796586  1
  O  O185  1  0.86782399  0.88335846  0.38150304  1
  O  O186  1  0.88063117  0.87996772  0.88186618  1
  O  O187  1  0.26208013  0.00529314  0.38743655  1
  O  O188  1  0.26531080  -0.00495847  0.88134561  1
  O  O189  1  0.26076144  0.51955228  0.42215984  1
  O  O190  1  0.25595547  0.49854929  0.85795762  1
  O  O191  1  0.76048808  0.01144467  0.37424676  1
  O  O192  1  0.75699188  0.00563173  0.87221921  1
  O  O193  1  0.75376528  0.51046503  0.37747602  1
  O  O194  1  0.74370065  0.50704277  0.86706971  1
  O  O195  1  0.28218048  0.49184969  0.12955107  1
  O  O196  1  0.24066252  0.50300946  0.63226036  1
  O  O197  1  0.24358181  0.98853539  0.11440799  1
  O  O198  1  0.23863190  0.99135073  0.61840593  1
  O  O199  1  0.74800185  0.48815921  0.12379048  1
  O  O200  1  0.74314851  0.49155113  0.63248902  1
  O  O201  1  0.74553348  0.98585301  0.11465441  1
  O  O202  1  0.74521472  0.99166015  0.63043731  1
  O  O203  1  0.00723524  0.37071092  0.25794330  1
  O  O204  1  -0.00665969  0.36429375  0.76046093  1
  O  O205  1  0.00734276  0.85991595  0.24167837  1
  O  O206  1  -0.00256366  0.87115294  0.76254789  1
  O  O207  1  0.49809890  0.37879432  0.23752804  1
  O  O208  1  0.50437952  0.36674999  0.75659186  1
  O  O209  1  0.50993501  0.88042779  0.25624153  1
  O  O210  1  0.50951055  0.86475167  0.75664340  1
  O  O211  1  0.49424742  0.10180966  0.24094054  1
  O  O212  1  0.49666348  0.13585543  0.75261651  1
  O  O213  1  0.48941741  0.63135485  0.24320272  1
  O  O214  1  0.49198955  0.62621967  0.74618986  1
  O  O215  1  0.99292244  0.13697421  0.25066402  1
  O  O216  1  0.99063827  0.12914202  0.74273161  1
  O  O217  1  0.99514764  0.63372526  0.24582216  1
  O  O218  1  0.98441065  0.62514992  0.75958944  1
  O  O219  1  0.36092199  0.26041430  -0.01479012  1
  O  O220  1  0.37367792  0.25671809  0.50969672  1
  O  O221  1  0.37020753  0.75537470  0.00565316  1
  O  O222  1  0.36799237  0.76086370  0.50594518  1
  O  O223  1  0.86896799  0.25390561  0.01340302  1
  O  O224  1  0.87950021  0.24874520  0.51404042  1
  O  O225  1  0.87266454  0.75276432  0.00818155  1
  O  O226  1  0.87007891  0.75475991  0.50356016  1
  O  O227  1  0.11882673  0.23568973  0.50528946  1
  O  O228  1  0.13657404  0.25576458  0.98931415  1
  O  O229  1  0.12695178  0.74917450  0.49607535  1
  O  O230  1  0.13575472  0.73857780  1.00219597  1
  O  O231  1  0.62073224  0.25653431  0.47741773  1
  O  O232  1  0.63778374  0.25517419  0.99485088  1
  O  O233  1  0.62957919  0.74281703  0.49648782  1
  O  O234  1  0.63159860  0.73978294  0.99690399  1
  O  O235  1  0.54686741  0.24155009  0.13975730  1
  O  O236  1  0.50126724  0.25045977  0.63760307  1
  O  O237  1  0.49098437  0.74126527  0.11750653  1
  O  O238  1  0.49526039  0.74448957  0.63004239  1
  O  O239  1  0.99473160  0.25220881  0.12993666  1
  O  O240  1  0.99122805  0.24383876  0.63238623  1
  O  O241  1  0.99810937  0.73839695  0.13114116  1
  O  O242  1  0.98518133  0.75505815  0.62579174  1
  O  O243  1  -0.00687044  0.26230180  0.36402373  1
  O  O244  1  0.00324574  0.25421325  0.86752317  1
  O  O245  1  0.00740014  0.74799322  0.36509455  1
  O  O246  1  -0.00108313  0.76117091  0.87831822  1
  O  O247  1  0.50101093  0.24066212  0.36467680  1
  O  O248  1  0.49870564  0.25513614  0.86305014  1
  O  O249  1  0.50162705  0.76839925  0.38184708  1
  O  O250  1  0.50738900  0.75247403  0.86976255  1
  O  O251  1  0.23743178  0.12537452  0.49541966  1
  O  O252  1  0.25532910  0.13759769  0.98761720  1
  O  O253  1  0.23817611  0.64636416  0.51402727  1
  O  O254  1  0.24766782  0.63261703  0.99733909  1
  O  O255  1  0.74328092  0.12320932  0.48366072  1
  O  O256  1  0.75808180  0.13638288  0.99206863  1
  O  O257  1  0.74006610  0.62690065  0.49200643  1
  O  O258  1  0.74407240  0.62830769  0.99487736  1
  O  O259  1  0.26045271  0.36766169  -0.00776152  1
  O  O260  1  0.26210317  0.37064118  0.49848552  1
  O  O261  1  0.25611932  0.86693743  0.00735377  1
  O  O262  1  0.25537125  0.86735189  0.50976768  1
  O  O263  1  0.75105052  0.36903608  0.00998048  1
  O  O264  1  0.74779561  0.38153446  0.51048575  1
  O  O265  1  0.75884452  0.86609490  0.00679532  1
  O  O266  1  0.75936866  0.86881887  0.50176003  1
  O  O267  1  0.12487332  0.49553402  0.24989938  1
  O  O268  1  0.13856728  0.50477669  0.73704498  1
  O  O269  1  0.11284773  0.98432723  0.24392584  1
  O  O270  1  0.11430323  0.99597909  0.73474869  1
  O  O271  1  0.61625332  0.48430014  0.25211807  1
  O  O272  1  0.63496477  0.49459713  0.74510506  1
  O  O273  1  0.62883789  0.98535765  0.24081329  1
  O  O274  1  0.63217289  0.99343968  0.74024172  1
  O  O275  1  0.36193530  -0.01747687  0.26721094  1
  O  O276  1  0.38494189  -0.00452743  0.76575728  1
  O  O277  1  0.38287308  0.51743899  0.26529462  1
  O  O278  1  0.36635691  0.50320458  0.74797136  1
  O  O279  1  0.88364169  0.01120751  0.25814665  1
  O  O280  1  0.87027359  0.00428874  0.75515784  1
  O  O281  1  0.87964640  0.51275405  0.26009806  1
  O  O282  1  0.86184750  0.50568638  0.74465533  1
  O  O283  1  0.11084855  0.38425841  0.37001612  1
  O  O284  1  0.11117154  0.36137780  0.87225382  1
  O  O285  1  0.12984413  0.86392873  0.36751151  1
  O  O286  1  0.11580140  0.87315069  0.87543245  1
  O  O287  1  0.60948054  0.36927582  0.36538091  1
  O  O288  1  0.61655123  0.37337429  0.86851500  1
  O  O289  1  0.61715212  0.88048944  0.36487744  1
  O  O290  1  0.62471519  0.86678491  0.86876842  1
  O  O291  1  0.38799768  0.10517663  0.13200670  1
  O  O292  1  0.37669942  0.14052517  0.62129931  1
  O  O293  1  0.38181440  0.63853567  0.13525494  1
  O  O294  1  0.38102577  0.63039885  0.63182998  1
  O  O295  1  0.87836234  0.13324055  0.13191710  1
  O  O296  1  0.87453449  0.12897043  0.62869105  1
  O  O297  1  0.88126839  0.62980899  0.13404645  1
  O  O298  1  0.86640517  0.63254888  0.63394732  1
  O  O299  1  0.23990965  0.24624720  0.10201738  1
  O  O300  1  0.25823264  0.24862459  0.62333222  1
  O  O301  1  0.25875237  0.75818141  0.11575381  1
  O  O302  1  0.25766118  0.76093150  0.62201726  1
  O  O303  1  0.75384724  0.26121219  0.12013677  1
  O  O304  1  0.75612615  0.25900841  0.63064378  1
  O  O305  1  0.75879713  0.75725696  0.12049665  1
  O  O306  1  0.75820135  0.75413426  0.61735706  1
  O  O307  1  0.24855041  0.22935484  0.38266781  1
  O  O308  1  0.23821314  0.25089394  0.87633273  1
  O  O309  1  0.24146845  0.74927610  0.38622184  1
  O  O310  1  0.25259484  0.74835240  0.88879706  1
  O  O311  1  0.76177214  0.24240077  0.38013711  1
  O  O312  1  0.75158990  0.24263176  0.88341878  1
  O  O313  1  0.74764725  0.73589325  0.38113105  1
  O  O314  1  0.74563178  0.74118769  0.88097192  1
  O  O315  1  -0.00590303  0.11357026  0.00044032  1
  O  O316  1  0.00302183  0.11696961  0.50403823  1
  O  O317  1  0.01293897  0.62428640  0.00975923  1
  O  O318  1  0.00947092  0.62443111  0.49710963  1
  O  O319  1  0.50110827  0.11556158  -0.00266334  1
  O  O320  1  0.51413445  0.11892897  0.49217221  1
  O  O321  1  0.50913987  0.62460127  0.00416358  1
  O  O322  1  0.50182460  0.61680096  0.50640694  1
  O  O323  1  0.49480805  0.38474897  0.50258959  1
  O  O324  1  0.49313915  0.37316718  0.98518112  1
  O  O325  1  0.49064956  0.88106368  0.49542391  1
  O  O326  1  0.49870723  0.87711462  0.99103232  1
  O  O327  1  0.99323952  0.37954538  0.49117649  1
  O  O328  1  1.00162730  0.37622936  0.98766042  1
  O  O329  1  0.98594852  0.88194881  0.50191982  1
  O  O330  1  0.99533354  0.88043974  0.99509971  1
  O  O331  1  0.49572993  0.50529126  0.39317393  1
  O  O332  1  0.49123811  0.48943529  0.87239251  1
  O  O333  1  0.48487339  0.99044487  0.37733429  1
  O  O334  1  0.50062390  0.99224300  0.88113640  1
  O  O335  1  0.98916869  0.49521046  0.37814846  1
  O  O336  1  1.00942709  0.48378711  0.87133437  1
  O  O337  1  0.98729398  1.00557137  0.38657966  1
  O  O338  1  0.99595224  0.99148656  0.88218474  1
  O  O339  1  0.00871747  0.00242699  0.11587906  1
  O  O340  1  0.00111461  0.00445910  0.61411799  1
  O  O341  1  -0.00275588  0.51341461  0.12769633  1
  O  O342  1  0.01158552  0.49691130  0.62968722  1
  O  O343  1  0.51709483  -0.01149098  0.10838299  1
  O  O344  1  0.51840134  -0.00604715  0.62587954  1
  O  O345  1  0.49231305  0.51835141  0.12027095  1
  O  O346  1  0.50786654  0.50426272  0.62321920  1
  O  O347  1  0.23085094  0.37914035  0.26867094  1
  O  O348  1  0.25563774  0.38568097  0.74417875  1
  O  O349  1  0.23807384  0.86773561  0.23918464  1
  O  O350  1  0.25204996  0.87346798  0.74032209  1
  O  O351  1  0.75529975  0.37745679  0.23812710  1
  O  O352  1  0.74610850  0.38022844  0.74600202  1
  O  O353  1  0.75053199  0.87335649  0.24093429  1
  O  O354  1  0.74774136  0.87878086  0.74603610  1
  O  O355  1  0.23051070  0.11297173  0.27032115  1
  O  O356  1  0.25690998  0.12276541  0.75533059  1
  O  O357  1  0.26750888  0.63132656  0.25068489  1
  O  O358  1  0.26323606  0.62223892  0.75024151  1
  O  O359  1  0.76538411  0.13412700  0.26043696  1
  O  O360  1  0.75711334  0.11894531  0.75796510  1
  O  O361  1  0.75867657  0.63000667  0.25649924  1
  O  O362  1  0.75660822  0.61593518  0.75881334  1
  O  O363  1  0.36329037  0.11279750  0.37247676  1
  O  O364  1  0.37774089  0.10608872  0.87299348  1
  O  O365  1  0.37464941  0.64249419  0.36001105  1
  O  O366  1  0.37685191  0.61040282  0.86639160  1
  O  O367  1  0.86599351  0.12033055  0.37100338  1
  O  O368  1  0.86790945  0.11956859  0.86943002  1
  O  O369  1  0.86633065  0.61944102  0.36841392  1
  O  O370  1  0.86266297  0.63082958  0.86807931  1
  O  O371  1  0.12386953  0.38471936  0.14257738  1
  O  O372  1  0.12295891  0.38701858  0.62106869  1
  O  O373  1  0.13323358  0.87923275  0.13204720  1
  O  O374  1  0.13397621  0.88136957  0.62669045  1
  O  O375  1  0.63418003  0.38118317  0.13926352  1
  O  O376  1  0.63103517  0.37717796  0.63156121  1
  O  O377  1  0.63374379  0.87767798  0.13433748  1
  O  O378  1  0.63284921  0.87867023  0.63085153  1
  O  O379  1  0.11789224  0.26082236  0.24584506  1
  O  O380  1  0.10967738  0.24621773  0.75081627  1
  O  O381  1  0.11960515  0.75449782  0.25686299  1
  O  O382  1  0.12266592  0.75326644  0.75496375  1
  O  O383  1  0.63425952  0.27161688  0.26939981  1
  O  O384  1  0.61444757  0.25290260  0.75270363  1
  O  O385  1  0.63055150  0.77086706  0.25160939  1
  O  O386  1  0.62337356  0.75051303  0.75448083  1
  O  O387  1  0.33225307  0.24602571  0.23772906  1
  O  O388  1  0.38486319  0.24909159  0.73733424  1
  O  O389  1  0.37454195  0.75714235  0.23937138  1
  O  O390  1  0.38181574  0.74101127  0.74739629  1
  O  O391  1  0.88492459  0.24594507  0.23724660  1
  O  O392  1  0.88128224  0.24235694  0.73996506  1
  O  O393  1  0.88297316  0.74102041  0.24747472  1
  O  O394  1  0.87356440  0.73959419  0.73979126  1
  O  O395  1  0.38868179  0.48092568  0.51884900  1
  O  O396  1  0.37616473  0.48734978  0.98528117  1
  O  O397  1  0.37421511  0.98976276  0.49922370  1
  O  O398  1  0.38782770  0.99264127  0.98844548  1
  O  O399  1  0.87410579  0.50043147  0.48833716  1
  O  O400  1  0.88401766  0.50221553  0.99503006  1
  O  O401  1  0.87774246  0.99202345  0.49244222  1
  O  O402  1  0.88307896  0.99369035  0.99578110  1
  O  O403  1  0.11575196  -0.00345925  0.01037206  1
  O  O404  1  0.11328181  0.00145558  0.50898823  1
  O  O405  1  0.13044060  0.50862376  0.00507741  1
  O  O406  1  0.12046820  0.51015982  0.51683441  1
  O  O407  1  0.61908669  -0.00620323  0.00665609  1
  O  O408  1  0.62934097  -0.00691759  0.51566039  1
  O  O409  1  0.62155952  0.51162307  0.00399727  1
  O  O410  1  0.61252671  0.50217033  0.50392710  1
  O  O411  1  0.38800362  0.36438736  0.10110596  1
  O  O412  1  0.38130699  0.35499884  0.61593214  1
  O  O413  1  0.36762082  0.87175650  0.11772120  1
  O  O414  1  0.37050780  0.87242520  0.62084939  1
  O  O415  1  0.86600464  0.37121295  0.12492685  1
  O  O416  1  0.86470660  0.36648435  0.62280824  1
  O  O417  1  0.87142537  0.87054510  0.12310323  1
  O  O418  1  0.86845293  0.86815729  0.61656314  1
  O  O419  1  0.13326911  0.10988143  0.38824868  1
  O  O420  1  0.12014686  0.13991871  0.87102848  1
  O  O421  1  0.12727759  0.63778525  0.38364757  1
  O  O422  1  0.12841151  0.62617334  0.88503526  1
  O  O423  1  0.63790595  0.14260689  0.36590253  1
  O  O424  1  0.64053387  0.12366167  0.86933737  1
  O  O425  1  0.62847557  0.62530706  0.37602000  1
  O  O426  1  0.63312747  0.62776285  0.88219656  1
