# generated using pymatgen
data_V85Zn86O256
_symmetry_space_group_name_H-M   'P 1'
_cell_length_a   16.96208865
_cell_length_b   16.93871208
_cell_length_c   16.95141540
_cell_angle_alpha   89.99310040
_cell_angle_beta   89.94401705
_cell_angle_gamma   89.96977132
_symmetry_Int_Tables_number   1
_chemical_formula_structural   V85Zn86O256
_chemical_formula_sum   'V85 Zn86 O256'
_cell_volume   4870.40874247
_cell_formula_units_Z   1
loop_
 _symmetry_equiv_pos_site_id
 _symmetry_equiv_pos_as_xyz
  1  'x, y, z'
loop_
 _atom_site_type_symbol
 _atom_site_label
 _atom_site_symmetry_multiplicity
 _atom_site_fract_x
 _atom_site_fract_y
 _atom_site_fract_z
 _atom_site_occupancy
  V  V0  1  -0.04695690  0.55602752  0.05756348  1
  V  V1  1  0.62569507  0.37555004  0.25201437  1
  V  V2  1  0.75049191  0.01063364  0.75158060  1
  V  V3  1  0.24803246  0.63236333  0.37630149  1
  V  V4  1  0.87747802  0.24487033  0.12644177  1
  V  V5  1  0.62634426  0.75195074  0.87129788  1
  V  V6  1  0.62587075  0.63252059  0.49668611  1
  V  V7  1  0.62303788  0.49791218  0.62728316  1
  V  V8  1  0.49695057  0.11042714  0.62498735  1
  V  V9  1  0.49467861  0.63271261  0.61882558  1
  V  V10  1  0.36940924  0.49936627  0.37362033  1
  V  V11  1  0.12139008  0.88293848  0.25023540  1
  V  V12  1  0.62612757  0.87968619  0.73705654  1
  V  V13  1  0.74532078  0.49496098  0.75008282  1
  V  V14  1  0.63029474  0.00059324  0.12481969  1
  V  V15  1  0.76523372  0.75145992  0.50583366  1
  V  V16  1  0.74814492  0.62577927  0.86998313  1
  V  V17  1  -0.00129591  -0.00769008  0.50264490  1
  V  V18  1  0.75725440  0.87268823  0.12862430  1
  V  V19  1  0.25203060  0.49838067  0.73895020  1
  V  V20  1  0.36641619  0.37249622  0.50762916  1
  V  V21  1  0.22971418  0.75662084  -0.00425596  1
  V  V22  1  0.24302208  0.88154641  0.12177206  1
  V  V23  1  0.49250412  0.00039050  0.00170686  1
  V  V24  1  0.87638965  0.01620780  0.86958353  1
  V  V25  1  0.87531293  -0.00889599  0.38161731  1
  V  V26  1  0.62805676  0.75708023  0.36023907  1
  V  V27  1  0.23978684  0.37574836  0.13192855  1
  V  V28  1  0.37811911  0.25566524  0.12585268  1
  V  V29  1  0.50254470  0.12794819  0.12591475  1
  V  V30  1  0.49981012  0.50100980  0.50044826  1
  V  V31  1  0.87406938  0.50385816  0.37237994  1
  V  V32  1  0.12961316  0.37263325  0.74411744  1
  V  V33  1  0.00004308  0.37669852  0.87463793  1
  V  V34  1  0.49581191  0.24622365  0.74800702  1
  V  V35  1  0.62522333  0.24902837  0.37925738  1
  V  V36  1  0.75070001  0.12426375  0.37794199  1
  V  V37  1  0.24948360  0.25201855  -0.00154124  1
  V  V38  1  0.12608012  0.24537850  0.87418343  1
  V  V39  1  -0.00720407  0.75362484  0.75125026  1
  V  V40  1  0.75774795  0.75095067  0.00077392  1
  V  V41  1  0.74996527  -0.00275663  0.25069332  1
  V  V42  1  0.50820952  0.88129893  0.35310423  1
  V  V43  1  0.25015601  0.86200954  0.60781724  1
  V  V44  1  0.37575146  0.00354124  0.86422878  1
  V  V45  1  -0.00104253  0.49944305  0.50219737  1
  V  V46  1  0.87357118  0.37311109  0.50051028  1
  V  V47  1  0.62841391  0.12436894  -0.00828751  1
  V  V48  1  0.75002087  0.24566795  -0.00316277  1
  V  V49  1  0.49944933  0.75087442  0.74593487  1
  V  V50  1  0.36933264  0.37892549  -0.00129997  1
  V  V51  1  0.42531176  0.81636014  0.06016644  1
  V  V52  1  0.00030715  0.12345272  0.62538915  1
  V  V53  1  0.00454677  0.37459920  0.37284390  1
  V  V54  1  0.12634540  0.63668966  0.50384637  1
  V  V55  1  0.62124722  0.10926512  0.50503871  1
  V  V56  1  0.36908696  0.24561544  0.62835489  1
  V  V57  1  0.62901922  0.25321604  0.86803127  1
  V  V58  1  -0.00468127  0.24487373  0.75096600  1
  V  V59  1  0.87943980  0.50148785  0.87188918  1
  V  V60  1  0.12712858  0.25103547  0.37650861  1
  V  V61  1  0.87140217  0.24540247  0.63076436  1
  V  V62  1  0.87711468  0.87698520  -0.00414010  1
  V  V63  1  0.37529775  0.12570840  0.25123605  1
  V  V64  1  0.12305177  0.49716736  0.62326426  1
  V  V65  1  0.12367295  0.12505851  0.01378665  1
  V  V66  1  0.00554217  0.24776339  0.24771949  1
  V  V67  1  0.76922737  0.87755264  0.62435122  1
  V  V68  1  0.87831656  0.37381604  0.00225749  1
  V  V69  1  0.61752650  0.62462933  0.00193307  1
  V  V70  1  0.61827543  0.50172471  0.12719557  1
  V  V71  1  0.39429164  0.86635241  0.50167943  1
  V  V72  1  0.50178337  0.37493172  0.86914820  1
  V  V73  1  0.37028024  0.63562774  0.74351723  1
  V  V74  1  0.13565352  0.87017670  0.75780160  1
  V  V75  1  0.00044607  0.74252759  0.23910877  1
  V  V76  1  0.49906326  0.37298239  0.37743544  1
  V  V77  1  0.12590957  0.51508883  0.12695679  1
  V  V78  1  0.00237667  0.00653038  0.01116220  1
  V  V79  1  0.87989574  0.12367204  0.25048870  1
  V  V80  1  0.74719916  0.24824599  0.50335313  1
  V  V81  1  0.25090200  0.12105656  0.37891870  1
  V  V82  1  0.74478948  0.37475032  0.62793966  1
  V  V83  1  0.49960674  0.87425053  0.87519642  1
  V  V84  1  0.37150033  0.50006886  0.87010315  1
  Zn  Zn85  1  0.87935495  0.62649528  0.23453960  1
  Zn  Zn86  1  0.12614874  0.12284187  0.50125977  1
  Zn  Zn87  1  0.24779447  0.24744191  0.50694682  1
  Zn  Zn88  1  0.75373623  0.62906874  0.37034721  1
  Zn  Zn89  1  0.00785183  0.87619759  0.87721105  1
  Zn  Zn90  1  0.50260084  0.24967863  0.25141125  1
  Zn  Zn91  1  0.12540444  0.75568475  0.37622043  1
  Zn  Zn92  1  0.38248973  0.00045228  0.37778341  1
  Zn  Zn93  1  0.24333148  0.00536594  0.24206876  1
  Zn  Zn94  1  0.87086135  0.63197266  0.74025890  1
  Zn  Zn95  1  -0.00152267  0.86975375  0.37940961  1
  Zn  Zn96  1  0.25260923  0.00453519  0.74099349  1
  Zn  Zn97  1  -0.00638888  0.63374109  0.62286729  1
  Zn  Zn98  1  0.49398637  0.50537005  0.00035467  1
  Zn  Zn99  1  0.25891844  0.12664724  0.87157135  1
  Zn  Zn100  1  0.23682422  0.49380793  0.25953717  1
  Zn  Zn101  1  0.13126117  -0.00126052  0.62450360  1
  Zn  Zn102  1  0.40673596  0.65997424  0.21480797  1
  Zn  Zn103  1  0.75007283  0.50435135  0.25117063  1
  Zn  Zn104  1  0.74798449  0.37161837  0.12800698  1
  Zn  Zn105  1  0.24265482  0.63631355  0.87086502  1
  Zn  Zn106  1  0.11732123  0.62486573  -0.00387427  1
  Zn  Zn107  1  0.19070926  0.19301544  0.19136133  1
  Zn  Zn108  1  0.18774204  0.18103535  0.69186959  1
  Zn  Zn109  1  0.22073533  0.71026313  0.20496195  1
  Zn  Zn110  1  0.18309945  0.69038120  0.68607262  1
  Zn  Zn111  1  0.69043279  0.18742223  0.18794457  1
  Zn  Zn112  1  0.67909241  0.18558232  0.68686999  1
  Zn  Zn113  1  0.69327392  0.68332578  0.18555511  1
  Zn  Zn114  1  0.68805373  0.68905533  0.68272974  1
  Zn  Zn115  1  0.31380006  0.31087358  0.31388980  1
  Zn  Zn116  1  0.31133591  0.31280018  0.80874875  1
  Zn  Zn117  1  0.31759890  0.81475118  0.31152122  1
  Zn  Zn118  1  0.31328407  0.81888049  0.81899253  1
  Zn  Zn119  1  0.81253684  0.31359155  0.31456349  1
  Zn  Zn120  1  0.81073578  0.31372758  0.81288826  1
  Zn  Zn121  1  0.81704984  0.80751771  0.31074503  1
  Zn  Zn122  1  0.81383108  0.81944735  0.81287020  1
  Zn  Zn123  1  0.18639505  0.43454026  0.44218431  1
  Zn  Zn124  1  0.17129339  0.46506548  0.92529710  1
  Zn  Zn125  1  0.18688107  0.94043908  0.43749421  1
  Zn  Zn126  1  0.18856820  0.94265326  0.93929028  1
  Zn  Zn127  1  0.68841738  0.44033986  0.43926976  1
  Zn  Zn128  1  0.68813425  0.43503721  0.93867406  1
  Zn  Zn129  1  0.69103535  0.93142851  0.43954820  1
  Zn  Zn130  1  0.68964074  0.93927652  0.93209547  1
  Zn  Zn131  1  0.31136615  0.06628475  0.06085735  1
  Zn  Zn132  1  0.31778967  0.05198590  0.55811354  1
  Zn  Zn133  1  0.30639609  0.57426080  0.06269121  1
  Zn  Zn134  1  0.31200154  0.56532796  0.55827439  1
  Zn  Zn135  1  0.81658924  0.06443780  0.06087251  1
  Zn  Zn136  1  0.81260789  0.06138822  0.56618992  1
  Zn  Zn137  1  0.78896905  0.55760171  0.06070314  1
  Zn  Zn138  1  0.81296826  0.56533995  0.56061024  1
  Zn  Zn139  1  0.41315024  0.47798163  0.16664258  1
  Zn  Zn140  1  0.43915207  0.43596487  0.68685785  1
  Zn  Zn141  1  0.43752063  0.94500022  0.19124322  1
  Zn  Zn142  1  0.43187729  0.92923731  0.68263616  1
  Zn  Zn143  1  0.93734122  0.43018679  0.19378789  1
  Zn  Zn144  1  0.93619478  0.43699736  0.68835733  1
  Zn  Zn145  1  0.93765608  0.93376384  0.18832955  1
  Zn  Zn146  1  0.94223642  0.93895534  0.69404431  1
  Zn  Zn147  1  0.06185513  0.06198311  0.31594142  1
  Zn  Zn148  1  0.06616886  0.05935963  0.81156323  1
  Zn  Zn149  1  0.06561987  0.56358499  0.31027180  1
  Zn  Zn150  1  0.06271204  0.56878362  0.81132125  1
  Zn  Zn151  1  0.56633623  0.06311824  0.31203576  1
  Zn  Zn152  1  0.56234435  0.06264170  0.80966573  1
  Zn  Zn153  1  0.55767217  0.56668165  0.31155521  1
  Zn  Zn154  1  0.55958594  0.56303061  0.80940272  1
  Zn  Zn155  1  0.43846191  0.18547830  0.44311522  1
  Zn  Zn156  1  0.43952137  0.18793028  0.93848853  1
  Zn  Zn157  1  0.44243874  0.68783142  0.40306802  1
  Zn  Zn158  1  0.43452757  0.68431909  0.92868550  1
  Zn  Zn159  1  0.93753296  0.18363283  0.44001044  1
  Zn  Zn160  1  0.94105499  0.18665251  0.93890422  1
  Zn  Zn161  1  0.94617556  0.68701479  0.43184656  1
  Zn  Zn162  1  0.93562617  0.69565680  0.92410430  1
  Zn  Zn163  1  0.06059104  0.31219907  0.06188011  1
  Zn  Zn164  1  0.06196813  0.31092177  0.56143110  1
  Zn  Zn165  1  0.06279318  0.81709617  0.06590384  1
  Zn  Zn166  1  0.06124276  0.81630999  0.57032627  1
  Zn  Zn167  1  0.55993047  0.31754090  0.05983086  1
  Zn  Zn168  1  0.55883042  0.30959444  0.56375645  1
  Zn  Zn169  1  0.58645381  0.80862226  0.07136376  1
  Zn  Zn170  1  0.56618111  0.81260560  0.55875025  1
  O  O171  1  0.13123637  0.13431479  0.11285746  1
  O  O172  1  0.11057921  0.12699663  0.62292503  1
  O  O173  1  0.13049655  0.61444279  0.12253571  1
  O  O174  1  0.12048738  0.61571517  0.61962383  1
  O  O175  1  0.62472561  0.11813860  0.11516578  1
  O  O176  1  0.60984858  0.12801687  0.61595620  1
  O  O177  1  0.62868948  0.61674206  0.11449304  1
  O  O178  1  0.61851717  0.61755176  0.61703306  1
  O  O179  1  0.38236997  0.37550621  0.38553705  1
  O  O180  1  0.38009195  0.37952527  0.87891655  1
  O  O181  1  0.39638177  0.87606350  0.36930981  1
  O  O182  1  0.38775436  0.88902336  0.87515668  1
  O  O183  1  0.88140578  0.38131228  0.38112305  1
  O  O184  1  0.87683939  0.38330697  0.88305873  1
  O  O185  1  0.87605645  0.88849701  0.37109512  1
  O  O186  1  0.87656340  0.88464777  0.88693651  1
  O  O187  1  0.24921698  0.01400674  0.36933291  1
  O  O188  1  0.27017259  -0.00071731  0.87969394  1
  O  O189  1  0.25422789  0.50044151  0.37848043  1
  O  O190  1  0.26423864  0.49072980  0.85812261  1
  O  O191  1  0.75576243  0.00356667  0.36848157  1
  O  O192  1  0.76528360  -0.00282167  0.86702982  1
  O  O193  1  0.76019551  0.50213596  0.37465094  1
  O  O194  1  0.75490828  0.50494363  0.86898234  1
  O  O195  1  0.23818913  0.49177724  0.12832792  1
  O  O196  1  0.24376070  0.50167284  0.63316302  1
  O  O197  1  0.25561017  0.98784100  0.12142704  1
  O  O198  1  0.25269122  0.98403235  0.62462837  1
  O  O199  1  0.73379961  0.48946138  0.13028298  1
  O  O200  1  0.74155467  0.49580282  0.63124244  1
  O  O201  1  0.74886028  0.99736243  0.13041838  1
  O  O202  1  0.75719739  0.98588610  0.63380272  1
  O  O203  1  -0.00494090  0.36152453  0.26538435  1
  O  O204  1  0.00689865  0.36472385  0.75440186  1
  O  O205  1  0.00889380  0.87015958  0.25075502  1
  O  O206  1  0.01192288  0.86829829  0.75139785  1
  O  O207  1  0.51193999  0.37205985  0.26779144  1
  O  O208  1  0.49737389  0.36696423  0.76204990  1
  O  O209  1  0.50758124  0.87776825  0.25397642  1
  O  O210  1  0.50746946  0.86903571  0.75116682  1
  O  O211  1  0.49540112  0.12736705  0.24375804  1
  O  O212  1  0.50584957  0.13336137  0.73693629  1
  O  O213  1  0.47820861  0.64174592  0.29800502  1
  O  O214  1  0.49146175  0.63053680  0.74031675  1
  O  O215  1  0.98728979  0.13259986  0.25765471  1
  O  O216  1  1.00464631  0.13812600  0.74449921  1
  O  O217  1  0.99954240  0.63708162  0.25068427  1
  O  O218  1  0.99979565  0.64073928  0.75215142  1
  O  O219  1  0.37072664  0.25785479  0.00517728  1
  O  O220  1  0.37562099  0.25664994  0.51059532  1
  O  O221  1  0.37367695  0.75259253  0.00043429  1
  O  O222  1  0.38473979  0.76828309  0.47822925  1
  O  O223  1  0.87000977  0.25291014  0.00619706  1
  O  O224  1  0.86774280  0.25391369  0.50798973  1
  O  O225  1  0.86486543  0.75909857  -0.00700479  1
  O  O226  1  0.86317103  0.74377332  0.49257369  1
  O  O227  1  0.12656874  0.24690349  0.48989427  1
  O  O228  1  0.12784720  0.24587183  0.99197434  1
  O  O229  1  0.11634939  0.73917213  0.50120803  1
  O  O230  1  0.12682933  0.74865298  0.99473805  1
  O  O231  1  0.63043708  0.24425780  0.49591251  1
  O  O232  1  0.63162110  0.24516508  0.99328370  1
  O  O233  1  0.63483508  0.74176537  0.49724762  1
  O  O234  1  0.63668035  0.74342426  0.99163446  1
  O  O235  1  0.49512698  0.24608177  0.12536933  1
  O  O236  1  0.49368611  0.24407112  0.63397718  1
  O  O237  1  0.49007177  0.76234526  0.11486656  1
  O  O238  1  0.50661091  0.73859286  0.62847076  1
  O  O239  1  0.99256916  0.25526661  0.13814850  1
  O  O240  1  0.99117928  0.24569157  0.63149211  1
  O  O241  1  1.00383083  0.75310021  0.13961748  1
  O  O242  1  1.00575204  0.75046788  0.64427412  1
  O  O243  1  0.00584373  0.25390252  0.37130795  1
  O  O244  1  0.00508120  0.25517357  0.86805468  1
  O  O245  1  0.00715360  0.75390736  0.36463468  1
  O  O246  1  0.00388662  0.75820095  0.86016112  1
  O  O247  1  0.50728763  0.25617008  0.37796604  1
  O  O248  1  0.50511169  0.25519335  0.86831466  1
  O  O249  1  0.52263695  0.76996892  0.38150807  1
  O  O250  1  0.50564800  0.75476565  0.86651873  1
  O  O251  1  0.25102232  0.12669076  0.49213743  1
  O  O252  1  0.24271820  0.13337159  0.99383421  1
  O  O253  1  0.23447641  0.61754431  0.49353520  1
  O  O254  1  0.24676288  0.64463839  0.99866348  1
  O  O255  1  0.74313782  0.13054118  0.49944749  1
  O  O256  1  0.74356357  0.13659919  1.00271778  1
  O  O257  1  0.74260572  0.63573488  0.49867139  1
  O  O258  1  0.74139522  0.63318589  0.98958928  1
  O  O259  1  0.25940080  0.37187583  0.00536962  1
  O  O260  1  0.26308794  0.36923074  0.50023188  1
  O  O261  1  0.24330416  0.86701560  0.00432201  1
  O  O262  1  0.24848265  0.86814983  0.50590429  1
  O  O263  1  0.76156955  0.36480471  0.00042930  1
  O  O264  1  0.75317719  0.36874469  0.50821348  1
  O  O265  1  0.75645529  0.86936699  0.00299864  1
  O  O266  1  0.75012764  0.86673953  0.51566446  1
  O  O267  1  0.11952552  0.49530262  0.23326192  1
  O  O268  1  0.13020364  0.49344234  0.73922975  1
  O  O269  1  0.12178446  0.98917518  0.25062047  1
  O  O270  1  0.12437653  0.98594116  0.74395917  1
  O  O271  1  0.62196916  0.49539772  0.24588801  1
  O  O272  1  0.63171434  0.50535030  0.73950942  1
  O  O273  1  0.64230881  1.01010643  0.23994503  1
  O  O274  1  0.63661568  0.98883821  0.76108553  1
  O  O275  1  0.37326802  0.01553948  0.25413481  1
  O  O276  1  0.37831084  -0.00342058  0.76200770  1
  O  O277  1  0.36998533  0.48833535  0.27216450  1
  O  O278  1  0.36840298  0.50646386  0.74914778  1
  O  O279  1  0.86962244  0.00758363  0.25502343  1
  O  O280  1  0.86981099  -0.00186787  0.76332715  1
  O  O281  1  0.87459997  0.49970486  0.25914169  1
  O  O282  1  0.86394468  0.49812057  0.75882519  1
  O  O283  1  0.11567125  0.36576506  0.38041089  1
  O  O284  1  0.11854015  0.37063193  0.86709813  1
  O  O285  1  0.12429509  0.87633827  0.36308302  1
  O  O286  1  0.12738627  0.88322272  0.86080262  1
  O  O287  1  0.61915795  0.37050945  0.37438531  1
  O  O288  1  0.61402121  0.36565190  0.88324771  1
  O  O289  1  0.62272106  0.86799916  0.37263446  1
  O  O290  1  0.62001146  0.86878703  0.86853379  1
  O  O291  1  0.38074059  0.13260409  0.13167662  1
  O  O292  1  0.38936455  0.13042648  0.61612219  1
  O  O293  1  0.39083366  0.58607142  0.13229730  1
  O  O294  1  0.38379237  0.62107458  0.63024737  1
  O  O295  1  0.87171630  0.13685470  0.13365432  1
  O  O296  1  0.88304690  0.13842154  0.62303333  1
  O  O297  1  0.88103477  0.60656835  0.11345330  1
  O  O298  1  0.88199527  0.61515464  0.62962495  1
  O  O299  1  0.25747711  0.26100070  0.12002809  1
  O  O300  1  0.26516154  0.24233209  0.62824890  1
  O  O301  1  0.24371349  0.76677540  0.10457384  1
  O  O302  1  0.25116808  0.76394432  0.62891934  1
  O  O303  1  0.75784711  0.25200497  0.11702684  1
  O  O304  1  0.75362982  0.25429352  0.62585033  1
  O  O305  1  0.74343444  0.76111113  0.11326931  1
  O  O306  1  0.75009345  0.76021265  0.61551287  1
  O  O307  1  0.24202490  0.24163535  0.37504612  1
  O  O308  1  0.24143389  0.25239296  0.88031938  1
  O  O309  1  0.24489366  0.73533795  0.37697213  1
  O  O310  1  0.25365780  0.75294019  0.89120205  1
  O  O311  1  0.74586188  0.24356869  0.38241634  1
  O  O312  1  0.74014249  0.25502374  0.88226923  1
  O  O313  1  0.74205750  0.75549573  0.38566272  1
  O  O314  1  0.74694824  0.74355502  0.87787300  1
  O  O315  1  0.00688308  0.11562016  0.00070544  1
  O  O316  1  0.00026396  0.11701746  0.51000736  1
  O  O317  1  -0.00285789  0.62509497  -0.00588307  1
  O  O318  1  0.00987017  0.61441585  0.50036089  1
  O  O319  1  0.50914474  0.11841265  0.00687401  1
  O  O320  1  0.50845868  0.12450628  0.51238179  1
  O  O321  1  0.51437715  0.62394885  -0.01213497  1
  O  O322  1  0.50694657  0.62290496  0.50330875  1
  O  O323  1  0.49538116  0.37916483  0.49234026  1
  O  O324  1  0.48608029  0.37576254  0.98758613  1
  O  O325  1  0.49658612  0.87901564  0.49869307  1
  O  O326  1  0.49694554  0.87712187  1.00281339  1
  O  O327  1  0.99351667  0.37776501  0.49155560  1
  O  O328  1  0.98589864  0.36723439  0.99220178  1
  O  O329  1  1.00130368  0.88776437  0.50205566  1
  O  O330  1  0.99459372  0.88670792  0.99852962  1
  O  O331  1  0.49320407  0.49079056  0.38464908  1
  O  O332  1  0.48901703  0.49292536  0.87164291  1
  O  O333  1  0.50655309  0.98546586  0.37027930  1
  O  O334  1  0.49684727  0.99526357  0.88335227  1
  O  O335  1  0.99628150  0.49051500  0.37983352  1
  O  O336  1  0.98495445  0.49502450  0.86590807  1
  O  O337  1  0.99102563  1.00001930  0.38530172  1
  O  O338  1  0.98808342  0.99994128  0.88007403  1
  O  O339  1  -0.00907395  0.00139397  0.10936879  1
  O  O340  1  -0.00357100  0.00947783  0.62057654  1
  O  O341  1  0.00601146  0.49515174  0.12522627  1
  O  O342  1  0.00828532  0.49610551  0.61960005  1
  O  O343  1  0.51113205  0.00485653  0.11905204  1
  O  O344  1  0.49551427  0.01171244  0.63233811  1
  O  O345  1  0.51630425  0.48480209  0.11572196  1
  O  O346  1  0.50616537  0.50920727  0.62082140  1
  O  O347  1  0.25445507  0.37374880  0.23563002  1
  O  O348  1  0.23794373  0.38124405  0.74925370  1
  O  O349  1  0.23821292  0.88087882  0.24200211  1
  O  O350  1  0.24392924  0.87806969  0.74678622  1
  O  O351  1  0.73579348  0.37662454  0.25430775  1
  O  O352  1  0.74896152  0.38698091  0.74519650  1
  O  O353  1  0.76002234  0.88402321  0.23975991  1
  O  O354  1  0.74532464  0.87862456  0.73911549  1
  O  O355  1  0.25937049  0.12601782  0.25546250  1
  O  O356  1  0.24408610  0.11610968  0.76039394  1
  O  O357  1  0.23765210  0.61318196  0.27340910  1
  O  O358  1  0.25511568  0.61879896  0.74902245  1
  O  O359  1  0.76115132  0.11958565  0.25568335  1
  O  O360  1  0.74413542  0.10990762  0.74171605  1
  O  O361  1  0.76235886  0.62335408  0.25152949  1
  O  O362  1  0.74836885  0.61664279  0.75521234  1
  O  O363  1  0.37005641  0.12632647  0.36888203  1
  O  O364  1  0.38165901  0.10874166  0.87960341  1
  O  O365  1  0.35341239  0.61180979  0.39564997  1
  O  O366  1  0.37024098  0.61512988  0.86214073  1
  O  O367  1  0.86806107  0.11924924  0.36863475  1
  O  O368  1  0.87507605  0.11512430  0.87744412  1
  O  O369  1  0.87708085  0.60979457  0.37876003  1
  O  O370  1  0.86212157  0.61789880  0.87125615  1
  O  O371  1  0.13883234  0.37120252  0.12166724  1
  O  O372  1  0.12005935  0.37987288  0.63439976  1
  O  O373  1  0.13089569  0.87873628  0.13651687  1
  O  O374  1  0.13950668  0.87530930  0.63280941  1
  O  O375  1  0.62525669  0.37583473  0.13694196  1
  O  O376  1  0.62627666  0.39009278  0.61731525  1
  O  O377  1  0.64201065  0.89269495  0.11976559  1
  O  O378  1  0.63094017  0.87272281  0.63520018  1
  O  O379  1  0.11433854  0.24476173  0.26153542  1
  O  O380  1  0.11910591  0.25708714  0.75599268  1
  O  O381  1  0.12001127  0.76319227  0.25097810  1
  O  O382  1  0.12124872  0.76492810  0.75116051  1
  O  O383  1  0.62573762  0.25612317  0.25945175  1
  O  O384  1  0.61612179  0.24860484  0.76206927  1
  O  O385  1  0.63341720  0.74834601  0.26204987  1
  O  O386  1  0.62144407  0.75671527  0.75388606  1
  O  O387  1  0.37911355  0.24202903  0.24442544  1
  O  O388  1  0.38693551  0.25214637  0.74479705  1
  O  O389  1  0.33172944  0.73972543  0.23148318  1
  O  O390  1  0.37832245  0.73994555  0.75574999  1
  O  O391  1  0.87985123  0.24405997  0.24494578  1
  O  O392  1  0.88298963  0.25616812  0.74320748  1
  O  O393  1  0.89337524  0.74782134  0.25085460  1
  O  O394  1  0.88743165  0.75208614  0.75533550  1
  O  O395  1  0.38050905  0.48953330  0.49702248  1
  O  O396  1  0.37217658  0.49493545  0.98645976  1
  O  O397  1  0.36784579  0.97423751  0.48847572  1
  O  O398  1  0.39032940  1.00470066  0.99699088  1
  O  O399  1  0.87925294  0.49089833  0.49377810  1
  O  O400  1  0.87804256  0.49509360  0.99770649  1
  O  O401  1  0.88155874  1.00736855  0.49068554  1
  O  O402  1  0.88288704  0.99878133  0.99055810  1
  O  O403  1  0.11061758  0.01030949  -0.00640397  1
  O  O404  1  0.11467055  0.00369762  0.50456555  1
  O  O405  1  0.11802947  0.49602589  0.02237800  1
  O  O406  1  0.11973171  0.49868263  0.51278730  1
  O  O407  1  0.62045291  0.00777488  0.00227935  1
  O  O408  1  0.63349490  0.01108146  0.49817366  1
  O  O409  1  0.62700284  0.50864826  0.00578845  1
  O  O410  1  0.62133042  0.51328792  0.50454661  1
  O  O411  1  0.36672470  0.37919908  0.11525441  1
  O  O412  1  0.38414852  0.36294085  0.61696459  1
  O  O413  1  0.37061482  0.87757342  0.12257701  1
  O  O414  1  0.36840457  0.86874490  0.60916314  1
  O  O415  1  0.87316164  0.36424444  0.11946049  1
  O  O416  1  0.86803240  0.36490820  0.62094633  1
  O  O417  1  0.86518912  0.88311035  0.11009797  1
  O  O418  1  0.86718465  0.87408538  0.63035791  1
  O  O419  1  0.13289492  0.13273231  0.37680324  1
  O  O420  1  0.12048932  0.13922472  0.88144443  1
  O  O421  1  0.13238842  0.62158181  0.38791426  1
  O  O422  1  0.14093939  0.58339294  0.88888553  1
  O  O423  1  0.63103972  0.13012812  0.38313002  1
  O  O424  1  0.61869197  0.13442198  0.88634289  1
  O  O425  1  0.62997975  0.63877899  0.38166845  1
  O  O426  1  0.63403349  0.62808516  0.87732268  1
