# generated using pymatgen
data_V85Zn86O256
_symmetry_space_group_name_H-M   'P 1'
_cell_length_a   16.96629259
_cell_length_b   16.95906951
_cell_length_c   16.97512960
_cell_angle_alpha   89.93759270
_cell_angle_beta   90.00315669
_cell_angle_gamma   90.03677785
_symmetry_Int_Tables_number   1
_chemical_formula_structural   V85Zn86O256
_chemical_formula_sum   'V85 Zn86 O256'
_cell_volume   4884.29316872
_cell_formula_units_Z   1
loop_
 _symmetry_equiv_pos_site_id
 _symmetry_equiv_pos_as_xyz
  1  'x, y, z'
loop_
 _atom_site_type_symbol
 _atom_site_label
 _atom_site_symmetry_multiplicity
 _atom_site_fract_x
 _atom_site_fract_y
 _atom_site_fract_z
 _atom_site_occupancy
  V  V0  1  0.74869295  -0.00330024  0.24961647  1
  V  V1  1  0.76099895  0.63186139  0.35828591  1
  V  V2  1  0.50016296  0.50539396  0.00922321  1
  V  V3  1  0.87457866  0.87272352  0.50071210  1
  V  V4  1  0.61386841  0.87303206  0.25694902  1
  V  V5  1  0.62364628  0.37698589  0.74852863  1
  V  V6  1  0.88429473  0.25375221  0.11817670  1
  V  V7  1  0.25194992  0.37638182  0.63015907  1
  V  V8  1  0.75378052  0.37776251  0.11150369  1
  V  V9  1  0.62327598  -0.00203553  0.12489912  1
  V  V10  1  0.25217453  -0.00385130  0.24133469  1
  V  V11  1  0.49558551  0.13286245  0.13574198  1
  V  V12  1  0.37235845  0.62492077  0.75365595  1
  V  V13  1  0.75110672  0.87507145  0.62497688  1
  V  V14  1  0.38020221  0.74131837  0.12253865  1
  V  V15  1  0.24900400  0.49905176  0.75586842  1
  V  V16  1  0.37685669  0.00781991  0.36631966  1
  V  V17  1  0.87526332  -0.00121593  0.37441822  1
  V  V18  1  0.50267146  0.73337510  0.24899557  1
  V  V19  1  0.24926322  0.12380277  0.87756650  1
  V  V20  1  -0.00154219  0.00597496  0.50013795  1
  V  V21  1  0.49440702  0.37422364  0.88284214  1
  V  V22  1  0.75249068  0.50451124  0.76480223  1
  V  V23  1  0.12266205  0.87851624  0.24922760  1
  V  V24  1  0.74998033  0.12334168  0.87471067  1
  V  V25  1  -0.00264154  0.62293258  0.62993859  1
  V  V26  1  0.37970515  0.87140931  0.48640738  1
  V  V27  1  0.12413859  0.00446031  0.62152339  1
  V  V28  1  0.00600970  0.10987769  0.11878692  1
  V  V29  1  0.62527897  0.50982201  0.62833412  1
  V  V30  1  0.62480021  0.24984328  0.87536102  1
  V  V31  1  -0.05634028  0.43088186  0.93631889  1
  V  V32  1  0.37547077  0.12360104  0.75117386  1
  V  V33  1  0.25880499  0.26024545  -0.00203269  1
  V  V34  1  0.00438319  0.13637675  0.62687107  1
  V  V35  1  0.50231335  0.87431884  0.87683501  1
  V  V36  1  0.87710784  0.12149449  0.24482449  1
  V  V37  1  0.24734872  0.62762173  0.37439098  1
  V  V38  1  0.77143962  0.46723627  0.28116489  1
  V  V39  1  0.00085410  0.74953033  0.75583586  1
  V  V40  1  0.86498375  0.25211736  0.61020341  1
  V  V41  1  0.88185112  -0.00037261  0.87598378  1
  V  V42  1  0.24554021  0.86578486  0.12025974  1
  V  V43  1  0.74580172  0.74146668  0.50250886  1
  V  V44  1  0.37737233  0.50450396  0.37456465  1
  V  V45  1  0.12555366  0.49373396  0.11920382  1
  V  V46  1  0.75552440  0.24878651  -0.00357949  1
  V  V47  1  0.12286810  0.49938373  0.62482159  1
  V  V48  1  0.62747777  0.87512790  0.75132532  1
  V  V49  1  0.00108968  0.61831294  0.12296812  1
  V  V50  1  0.11454668  0.25234396  0.87458172  1
  V  V51  1  0.63037201  0.74182656  0.87581591  1
  V  V52  1  0.11224041  0.37115777  0.75328673  1
  V  V53  1  0.24642448  0.49797796  0.24939667  1
  V  V54  1  0.38252167  0.37558245  0.50148005  1
  V  V55  1  -0.02894404  0.49598692  0.49057686  1
  V  V56  1  0.37017980  0.49544639  0.88541396  1
  V  V57  1  0.37944608  0.24954212  0.62685195  1
  V  V58  1  0.12511311  0.87179567  0.75036234  1
  V  V59  1  0.75155898  0.00010585  0.74895100  1
  V  V60  1  0.87895319  0.13631367  0.75062220  1
  V  V61  1  0.74981877  0.87310776  0.12556591  1
  V  V62  1  0.12326080  0.11405933  0.00144605  1
  V  V63  1  0.24962379  0.87609920  0.62355281  1
  V  V64  1  0.37141705  0.86731456  0.00051845  1
  V  V65  1  0.50039282  0.75047993  0.75232587  1
  V  V66  1  0.37472215  0.75175727  0.62675990  1
  V  V67  1  0.12632637  0.64118872  -0.00132118  1
  V  V68  1  0.24631164  0.63915394  0.88072300  1
  V  V69  1  0.00181633  0.73821666  0.25423449  1
  V  V70  1  0.74734829  0.12974776  0.37644622  1
  V  V71  1  0.37480259  -0.00179054  0.87490976  1
  V  V72  1  0.63397717  0.50371979  0.12628047  1
  V  V73  1  0.87691503  0.74444724  0.13200854  1
  V  V74  1  0.49952019  0.11981886  0.62356908  1
  V  V75  1  0.50510579  0.51276960  0.50348806  1
  V  V76  1  0.62485407  0.12938593  0.49796490  1
  V  V77  1  0.00782751  0.87532920  0.88028004  1
  V  V78  1  0.75350130  0.74247908  -0.00298924  1
  V  V79  1  0.61946035  0.74182557  0.37928645  1
  V  V80  1  0.87340050  0.62260013  0.76802295  1
  V  V81  1  0.24695919  0.75130459  0.50101093  1
  V  V82  1  0.50068714  0.00068693  0.00152508  1
  V  V83  1  0.24215919  0.23973376  0.50359990  1
  V  V84  1  0.87906055  0.87811318  0.00148056  1
  Zn  Zn85  1  0.87460650  0.74885142  0.62828585  1
  Zn  Zn86  1  0.62533706  -0.00049675  0.61918798  1
  Zn  Zn87  1  0.62467169  0.12442663  0.00015016  1
  Zn  Zn88  1  0.26024749  0.37657613  0.12259795  1
  Zn  Zn89  1  0.60921470  0.24646227  0.36017171  1
  Zn  Zn90  1  0.11697499  0.21702280  0.38566088  1
  Zn  Zn91  1  0.50043025  0.63069738  0.62727789  1
  Zn  Zn92  1  0.26414273  0.15183526  0.33396842  1
  Zn  Zn93  1  0.50282938  -0.00548203  0.49029452  1
  Zn  Zn94  1  0.12485714  0.75677443  0.37756715  1
  Zn  Zn95  1  0.76352900  0.38431332  0.62114232  1
  Zn  Zn96  1  0.24899602  0.00028346  0.74861268  1
  Zn  Zn97  1  0.50463902  0.37172682  0.36725201  1
  Zn  Zn98  1  0.62690838  0.62413212  0.00097339  1
  Zn  Zn99  1  0.00289275  0.25314272  0.26150330  1
  Zn  Zn100  1  0.49974161  0.25025487  0.75311650  1
  Zn  Zn101  1  0.62083162  0.36611680  0.24561061  1
  Zn  Zn102  1  0.11990345  0.62616080  0.50135765  1
  Zn  Zn103  1  0.11708411  0.36528616  0.26635254  1
  Zn  Zn104  1  0.36968618  0.24395253  0.15537813  1
  Zn  Zn105  1  0.37774134  0.62186493  0.24403410  1
  Zn  Zn106  1  0.00162748  0.87430605  0.37431452  1
  Zn  Zn107  1  0.19198898  0.19715898  0.19031502  1
  Zn  Zn108  1  0.18891049  0.18847834  0.69033413  1
  Zn  Zn109  1  0.18670978  0.68760548  0.18918828  1
  Zn  Zn110  1  0.18611034  0.68744344  0.69074283  1
  Zn  Zn111  1  0.68725308  0.18642506  0.18304626  1
  Zn  Zn112  1  0.68517220  0.18749273  0.68726815  1
  Zn  Zn113  1  0.68550754  0.68757926  0.18517583  1
  Zn  Zn114  1  0.69069782  0.68616895  0.69153141  1
  Zn  Zn115  1  0.31385742  0.31903589  0.31708571  1
  Zn  Zn116  1  0.30993351  0.31178678  0.81495075  1
  Zn  Zn117  1  0.31216498  0.80988562  0.30772389  1
  Zn  Zn118  1  0.31171937  0.81506169  0.81193021  1
  Zn  Zn119  1  0.80794226  0.30006976  0.30106373  1
  Zn  Zn120  1  0.81234917  0.31880098  0.81211104  1
  Zn  Zn121  1  0.81182946  0.81096076  0.31352204  1
  Zn  Zn122  1  0.81629287  0.81147133  0.81419210  1
  Zn  Zn123  1  0.19359342  0.43445151  0.44436423  1
  Zn  Zn124  1  0.17631638  0.43916949  0.93878664  1
  Zn  Zn125  1  0.16882718  0.98751272  0.41353172  1
  Zn  Zn126  1  0.19040470  0.93474998  0.93883919  1
  Zn  Zn127  1  0.71603171  0.41476668  0.42728356  1
  Zn  Zn128  1  0.68423302  0.43538935  0.93938033  1
  Zn  Zn129  1  0.68600006  0.93746128  0.43616128  1
  Zn  Zn130  1  0.69047204  0.93337589  0.93810741  1
  Zn  Zn131  1  0.31346412  0.06074369  0.06464175  1
  Zn  Zn132  1  0.31600246  0.05758175  0.55933784  1
  Zn  Zn133  1  0.30823280  0.56304935  0.06028354  1
  Zn  Zn134  1  0.31285964  0.56392447  0.56515374  1
  Zn  Zn135  1  0.81348791  0.06147507  0.06120455  1
  Zn  Zn136  1  0.81237781  0.06603372  0.56241853  1
  Zn  Zn137  1  0.82159483  0.56047857  0.05322150  1
  Zn  Zn138  1  0.80902553  0.56697432  0.57200238  1
  Zn  Zn139  1  0.43909516  0.42975588  0.18815650  1
  Zn  Zn140  1  0.44005383  0.43865136  0.69239032  1
  Zn  Zn141  1  0.43702609  0.93284833  0.18546935  1
  Zn  Zn142  1  0.43684688  0.93635606  0.68684784  1
  Zn  Zn143  1  0.93846569  0.43489269  0.18521322  1
  Zn  Zn144  1  0.93485846  0.43737558  0.69149729  1
  Zn  Zn145  1  0.94069714  0.93348526  0.18741853  1
  Zn  Zn146  1  0.93805189  0.93974774  0.68747106  1
  Zn  Zn147  1  0.06682534  0.06789516  0.30549420  1
  Zn  Zn148  1  0.06288595  0.06248215  0.80919345  1
  Zn  Zn149  1  0.07653880  0.52526044  0.33319662  1
  Zn  Zn150  1  0.06280869  0.56102958  0.81799558  1
  Zn  Zn151  1  0.55939146  0.06148404  0.31152143  1
  Zn  Zn152  1  0.56304697  0.06254846  0.81132469  1
  Zn  Zn153  1  0.56618264  0.53664904  0.29958662  1
  Zn  Zn154  1  0.55871240  0.56176268  0.81628649  1
  Zn  Zn155  1  0.44027415  0.18879725  0.43795336  1
  Zn  Zn156  1  0.43794153  0.18525400  0.94062771  1
  Zn  Zn157  1  0.43816145  0.68823493  0.43409206  1
  Zn  Zn158  1  0.43841956  0.68404731  0.93701496  1
  Zn  Zn159  1  0.93305951  0.18626080  0.43779478  1
  Zn  Zn160  1  0.93962292  0.18705621  0.93907094  1
  Zn  Zn161  1  0.93976580  0.68496934  0.44079792  1
  Zn  Zn162  1  0.94353189  0.68978564  0.94243238  1
  Zn  Zn163  1  0.06765491  0.31051662  0.06430816  1
  Zn  Zn164  1  0.05867481  0.31951455  0.55926437  1
  Zn  Zn165  1  0.06104648  0.81236437  0.06538859  1
  Zn  Zn166  1  0.06088463  0.81336263  0.56449119  1
  Zn  Zn167  1  0.56480539  0.31344645  0.06271323  1
  Zn  Zn168  1  0.59831080  0.33946556  0.53300690  1
  Zn  Zn169  1  0.56200527  0.81021848  0.06482192  1
  Zn  Zn170  1  0.56295947  0.81313863  0.56353335  1
  O  O171  1  0.11136372  0.13032541  0.11618479  1
  O  O172  1  0.11638671  0.11688966  0.63408210  1
  O  O173  1  0.12113049  0.62480006  0.11424868  1
  O  O174  1  0.11260012  0.61890693  0.63092478  1
  O  O175  1  0.61468097  0.11345105  0.12040316  1
  O  O176  1  0.61624956  0.12296926  0.61923094  1
  O  O177  1  0.63260112  0.60940902  0.12216229  1
  O  O178  1  0.61963388  0.61446782  0.63582447  1
  O  O179  1  0.37668413  0.38767980  0.38557957  1
  O  O180  1  0.38159116  0.38416976  0.87155015  1
  O  O181  1  0.37542620  0.87219471  0.38488060  1
  O  O182  1  0.38065012  0.87783586  0.88226224  1
  O  O183  1  0.80937546  0.39966109  0.35612635  1
  O  O184  1  0.88381719  0.37224891  0.87737385  1
  O  O185  1  0.87726660  0.88027959  0.38362302  1
  O  O186  1  0.88525460  0.88066663  0.88092748  1
  O  O187  1  0.26692537  -0.01503733  0.35682802  1
  O  O188  1  0.25686826  0.00672967  0.87314814  1
  O  O189  1  0.26370640  0.51027204  0.37513473  1
  O  O190  1  0.25503545  0.50437445  0.87362683  1
  O  O191  1  0.75656023  0.00291784  0.36615008  1
  O  O192  1  0.76089756  0.00096721  0.86865111  1
  O  O193  1  0.73987028  0.52587130  0.37037413  1
  O  O194  1  0.74325982  0.49870006  0.86322998  1
  O  O195  1  0.24630221  0.49879553  0.13327310  1
  O  O196  1  0.24628783  0.49708432  0.63741974  1
  O  O197  1  0.26419497  0.97673212  0.12826012  1
  O  O198  1  0.24125023  0.99516608  0.62447230  1
  O  O199  1  0.74618367  0.48797589  0.10333432  1
  O  O200  1  0.73873211  0.50220625  0.63803858  1
  O  O201  1  0.74363676  0.99407407  0.12943555  1
  O  O202  1  0.75052538  0.99529489  0.63430590  1
  O  O203  1  0.00487228  0.36430075  0.23581043  1
  O  O204  1  0.01379946  0.37386259  0.74396805  1
  O  O205  1  0.00870181  0.86516366  0.24841958  1
  O  O206  1  0.00500614  0.86906098  0.75557110  1
  O  O207  1  0.52103666  0.42804869  0.26393092  1
  O  O208  1  0.50447230  0.37401914  0.76523918  1
  O  O209  1  0.51159276  0.86525582  0.24453135  1
  O  O210  1  0.50624409  0.87045326  0.75656636  1
  O  O211  1  0.49927797  0.12060718  0.23384107  1
  O  O212  1  0.49376561  0.12658101  0.74381654  1
  O  O213  1  0.50358301  0.63018395  0.25276069  1
  O  O214  1  0.48970915  0.63320881  0.75426682  1
  O  O215  1  0.99339030  0.12365920  0.23528221  1
  O  O216  1  0.98973495  0.11799551  0.73863250  1
  O  O217  1  1.00648201  0.63717861  0.24035428  1
  O  O218  1  0.99692225  0.63197985  0.75019480  1
  O  O219  1  0.35835693  0.24743147  -0.00733630  1
  O  O220  1  0.36942066  0.25855406  0.51022511  1
  O  O221  1  0.38592730  0.76001765  0.00566804  1
  O  O222  1  0.37198844  0.75772797  0.50509913  1
  O  O223  1  0.86372629  0.24038062  0.00469534  1
  O  O224  1  0.86747311  0.24525273  0.51139811  1
  O  O225  1  0.87088971  0.75996101  0.00603243  1
  O  O226  1  0.86931540  0.75880715  0.50515027  1
  O  O227  1  0.13848562  0.25439832  0.50610402  1
  O  O228  1  0.13325781  0.24016822  0.98697705  1
  O  O229  1  0.13285095  0.74835280  0.49986215  1
  O  O230  1  0.12664322  0.74021021  1.00129460  1
  O  O231  1  0.61265499  0.23053693  0.49407670  1
  O  O232  1  0.63562342  0.24653372  0.99223859  1
  O  O233  1  0.63328324  0.75876670  0.49124336  1
  O  O234  1  0.63411651  0.75058467  0.99371115  1
  O  O235  1  0.50099424  0.23491081  0.11755640  1
  O  O236  1  0.48597238  0.23686291  0.62842643  1
  O  O237  1  0.49316668  0.75004593  0.13451155  1
  O  O238  1  0.49421892  0.75123448  0.63461897  1
  O  O239  1  0.98941371  0.23793947  0.11800926  1
  O  O240  1  0.99258765  0.23941421  0.61619102  1
  O  O241  1  0.99364099  0.74243655  0.13103787  1
  O  O242  1  0.99974225  0.74305427  0.63772890  1
  O  O243  1  0.00645885  0.23626642  0.37564082  1
  O  O244  1  0.01635092  0.23998427  0.87348314  1
  O  O245  1  0.00308260  0.75062332  0.36864945  1
  O  O246  1  -0.00174526  0.76096328  0.86377224  1
  O  O247  1  0.49248443  0.25785993  0.37135713  1
  O  O248  1  0.50570822  0.25621534  0.87719727  1
  O  O249  1  0.50824450  0.74763814  0.36546851  1
  O  O250  1  0.50819933  0.75662045  0.87199284  1
  O  O251  1  0.25292092  0.14127992  0.51212300  1
  O  O252  1  0.24561395  0.12743370  0.99065536  1
  O  O253  1  0.25362484  0.63926454  0.49662672  1
  O  O254  1  0.23859245  0.62624272  0.99283259  1
  O  O255  1  0.73951120  0.11538883  0.48838585  1
  O  O256  1  0.74776539  0.12809110  0.99102290  1
  O  O257  1  0.75149843  0.63998642  0.50268391  1
  O  O258  1  0.75199939  0.63976130  1.00106908  1
  O  O259  1  0.24751754  0.36258139  -0.00555831  1
  O  O260  1  0.26493143  0.37241924  0.51198165  1
  O  O261  1  0.26135071  0.87286729  0.00439335  1
  O  O262  1  0.26274631  0.86101555  0.50512775  1
  O  O263  1  0.74659204  0.36128179  0.00215039  1
  O  O264  1  0.70779198  0.37108210  0.52662098  1
  O  O265  1  0.75887727  0.86684577  0.00678584  1
  O  O266  1  0.75979983  0.87066557  0.50462344  1
  O  O267  1  0.13457888  0.51410207  0.23150719  1
  O  O268  1  0.13057591  0.49322777  0.74498520  1
  O  O269  1  0.13177103  0.98411377  0.24593022  1
  O  O270  1  0.12385997  0.98907115  0.73879456  1
  O  O271  1  0.66405481  0.49863724  0.23919079  1
  O  O272  1  0.63168248  0.49783243  0.74990549  1
  O  O273  1  0.62757873  0.99017073  0.24566409  1
  O  O274  1  0.63880847  0.99489529  0.75196655  1
  O  O275  1  0.37040394  -0.00863885  0.25891990  1
  O  O276  1  0.37328031  0.00512504  0.75744349  1
  O  O277  1  0.36776118  0.50461627  0.26065035  1
  O  O278  1  0.36933487  0.50604155  0.76199487  1
  O  O279  1  0.87200537  0.00585925  0.25154719  1
  O  O280  1  0.86635010  0.00564135  0.75605478  1
  O  O281  1  0.85297085  0.50073094  0.23665286  1
  O  O282  1  0.86086907  0.50637038  0.74893231  1
  O  O283  1  0.12006581  0.42233952  0.36532214  1
  O  O284  1  0.12946080  0.35992391  0.86882227  1
  O  O285  1  0.12154512  0.88013892  0.36489768  1
  O  O286  1  0.11469984  0.88323730  0.86713292  1
  O  O287  1  0.62564092  0.36851392  0.37040321  1
  O  O288  1  0.61799633  0.36970175  0.86593249  1
  O  O289  1  0.63311082  0.86275623  0.36342835  1
  O  O290  1  0.62056125  0.86811750  0.86978206  1
  O  O291  1  0.39083758  0.12819372  0.11780245  1
  O  O292  1  0.37937309  0.12764149  0.63053831  1
  O  O293  1  0.37092309  0.63738299  0.12278724  1
  O  O294  1  0.37238311  0.63487342  0.63688662  1
  O  O295  1  0.88411883  0.12613393  0.12766994  1
  O  O296  1  0.88079130  0.13441062  0.63203443  1
  O  O297  1  0.88653579  0.63569647  0.11549803  1
  O  O298  1  0.88675212  0.62662266  0.63847778  1
  O  O299  1  0.24649563  0.24903608  0.10298084  1
  O  O300  1  0.25982997  0.25579558  0.62187055  1
  O  O301  1  0.26229940  0.75881529  0.13090830  1
  O  O302  1  0.25378576  0.75420307  0.61965268  1
  O  O303  1  0.75961443  0.25055180  0.11184850  1
  O  O304  1  0.76452576  0.24685514  0.63058390  1
  O  O305  1  0.75852087  0.75465291  0.11885135  1
  O  O306  1  0.74986554  0.75707960  0.61978095  1
  O  O307  1  0.24848305  0.25424641  0.39898567  1
  O  O308  1  0.24399365  0.24054764  0.88195304  1
  O  O309  1  0.24824821  0.74454244  0.38237234  1
  O  O310  1  0.25246063  0.73812633  0.87112568  1
  O  O311  1  0.74786856  0.23072029  0.37028162  1
  O  O312  1  0.74590097  0.24445517  0.87882181  1
  O  O313  1  0.74408891  0.74540126  0.38381684  1
  O  O314  1  0.74183298  0.75969901  0.88465633  1
  O  O315  1  0.00727441  0.12324400  0.00938245  1
  O  O316  1  -0.00854871  0.11100788  0.51160705  1
  O  O317  1  0.01528201  0.63064159  0.00839031  1
  O  O318  1  -0.00113086  0.61466214  0.51403132  1
  O  O319  1  0.50256857  0.10998051  0.00089251  1
  O  O320  1  0.50136499  0.11637184  0.50858700  1
  O  O321  1  0.50479612  0.60991178  -0.00707833  1
  O  O322  1  0.49070492  0.61647341  0.50847771  1
  O  O323  1  0.49187598  0.38832052  0.50255606  1
  O  O324  1  0.50677915  0.38427205  0.98777416  1
  O  O325  1  0.48260807  0.87735179  0.50897098  1
  O  O326  1  0.49469990  0.88343097  0.99701011  1
  O  O327  1  1.00355892  0.40110833  0.50410440  1
  O  O328  1  1.00068038  0.37166808  0.99743258  1
  O  O329  1  0.98789016  0.88328537  0.50295426  1
  O  O330  1  0.99332376  0.86964443  0.99094434  1
  O  O331  1  0.48973209  0.51163568  0.39231815  1
  O  O332  1  0.49012694  0.49309227  0.88227756  1
  O  O333  1  0.48217657  0.99813152  0.37174147  1
  O  O334  1  0.49661069  0.99361672  0.88169176  1
  O  O335  1  0.97888189  0.51752328  0.39239723  1
  O  O336  1  1.00680821  0.48588590  0.87661336  1
  O  O337  1  0.99389980  1.00148678  0.38399403  1
  O  O338  1  0.98837490  0.99223739  0.86827238  1
  O  O339  1  -0.00357856  0.01111952  0.12256780  1
  O  O340  1  0.00550078  0.00709954  0.61960890  1
  O  O341  1  0.00852009  0.51317087  0.12966289  1
  O  O342  1  0.00631650  0.50774972  0.62702152  1
  O  O343  1  0.50311027  0.00341357  0.11716330  1
  O  O344  1  0.50051438  0.01087462  0.62665722  1
  O  O345  1  0.51217095  0.49307612  0.11378498  1
  O  O346  1  0.50021612  0.50670941  0.61900582  1
  O  O347  1  0.24405795  0.39364780  0.25666759  1
  O  O348  1  0.24473937  0.38118980  0.74653072  1
  O  O349  1  0.24258520  0.87475177  0.24007506  1
  O  O350  1  0.24078013  0.87733252  0.74487976  1
  O  O351  1  0.75001482  0.37214718  0.22491077  1
  O  O352  1  0.74156845  0.38702296  0.74644896  1
  O  O353  1  0.74398593  0.87792407  0.24305289  1
  O  O354  1  0.74927096  0.88157657  0.74589308  1
  O  O355  1  0.24115809  0.09629726  0.22704165  1
  O  O356  1  0.25564769  0.12271847  0.76195808  1
  O  O357  1  0.25256713  0.61899546  0.25937127  1
  O  O358  1  0.25202085  0.61892677  0.75983966  1
  O  O359  1  0.75827965  0.11429864  0.25065329  1
  O  O360  1  0.75608420  0.11663304  0.75498684  1
  O  O361  1  0.75992286  0.64348039  0.25917472  1
  O  O362  1  0.75879408  0.61462929  0.75201340  1
  O  O363  1  0.36622143  0.10905123  0.38194508  1
  O  O364  1  0.36863880  0.11871844  0.87150596  1
  O  O365  1  0.36464778  0.62136569  0.37410730  1
  O  O366  1  0.36525891  0.61796362  0.87247791  1
  O  O367  1  0.86717734  0.11690178  0.36433151  1
  O  O368  1  0.87254861  0.11648753  0.86916096  1
  O  O369  1  0.85833352  0.63554248  0.37875658  1
  O  O370  1  0.88098333  0.63093293  0.86689582  1
  O  O371  1  0.13532597  0.38421552  0.12427551  1
  O  O372  1  0.13128356  0.38127815  0.63340104  1
  O  O373  1  0.13555702  0.86710471  0.13124805  1
  O  O374  1  0.12970642  0.88164867  0.63144877  1
  O  O375  1  0.63470738  0.38509993  0.12140838  1
  O  O376  1  0.60692061  0.39124965  0.64532213  1
  O  O377  1  0.63055007  0.87935816  0.13224067  1
  O  O378  1  0.63258946  0.87828194  0.63336360  1
  O  O379  1  0.12679049  0.24783448  0.26673097  1
  O  O380  1  0.13260924  0.25715728  0.76438579  1
  O  O381  1  0.11807227  0.75783230  0.25413371  1
  O  O382  1  0.11766829  0.76391978  0.74682326  1
  O  O383  1  0.62654153  0.25197279  0.24616442  1
  O  O384  1  0.62359671  0.25942488  0.75600436  1
  O  O385  1  0.61818188  0.75502326  0.25378059  1
  O  O386  1  0.62283513  0.75587864  0.75805730  1
  O  O387  1  0.31249568  0.22764481  0.25476916  1
  O  O388  1  0.37433760  0.24212037  0.74399128  1
  O  O389  1  0.38625906  0.74639591  0.24230326  1
  O  O390  1  0.37986551  0.74710670  0.74628385  1
  O  O391  1  0.87473180  0.23359504  0.23685459  1
  O  O392  1  0.87157761  0.23733005  0.75059427  1
  O  O393  1  0.88523305  0.75987857  0.23782154  1
  O  O394  1  0.88291047  0.74293055  0.74944311  1
  O  O395  1  0.38100547  0.49453010  0.49840388  1
  O  O396  1  0.38169258  0.50334304  0.99166383  1
  O  O397  1  0.37142664  0.98589178  0.48602116  1
  O  O398  1  0.38283321  0.98921924  0.99460530  1
  O  O399  1  0.87273099  0.49469643  0.51190209  1
  O  O400  1  0.88644418  0.49447992  0.99178185  1
  O  O401  1  0.87957302  0.99289606  0.49692306  1
  O  O402  1  0.86953051  0.98654782  0.99067616  1
  O  O403  1  0.13019058  0.01469772  -0.00608135  1
  O  O404  1  0.11340487  -0.00586443  0.51339754  1
  O  O405  1  0.13140807  0.51165443  0.01518866  1
  O  O406  1  0.13806743  0.50729952  0.52228349  1
  O  O407  1  0.61714747  -0.00396388  0.00518052  1
  O  O408  1  0.61974317  0.00657097  0.50001126  1
  O  O409  1  0.61792725  0.50340454  0.00447524  1
  O  O410  1  0.60672621  0.50357559  0.51228811  1
  O  O411  1  0.37183833  0.35769061  0.14058721  1
  O  O412  1  0.37472517  0.36690562  0.62341483  1
  O  O413  1  0.37240379  0.86231019  0.11628993  1
  O  O414  1  0.36633621  0.87027165  0.62103282  1
  O  O415  1  0.86746771  0.36201128  0.12130549  1
  O  O416  1  0.87695915  0.35549016  0.63253233  1
  O  O417  1  0.87256292  0.86852259  0.11671685  1
  O  O418  1  0.86871126  0.87418685  0.61905201  1
  O  O419  1  0.15228078  0.10395312  0.37237285  1
  O  O420  1  0.13217088  0.12999737  0.87683830  1
  O  O421  1  0.13938703  0.62080328  0.38177603  1
  O  O422  1  0.13164238  0.62234935  0.88975446  1
  O  O423  1  0.63102067  0.12040280  0.37970026  1
  O  O424  1  0.63204753  0.13162266  0.87413710  1
  O  O425  1  0.63480648  0.64060873  0.36783832  1
  O  O426  1  0.62332926  0.63923662  0.87538326  1
