# generated using pymatgen
data_V85Zn86O256
_symmetry_space_group_name_H-M   'P 1'
_cell_length_a   16.95976039
_cell_length_b   17.00262632
_cell_length_c   17.01020142
_cell_angle_alpha   90.01231955
_cell_angle_beta   89.98358563
_cell_angle_gamma   90.02264980
_symmetry_Int_Tables_number   1
_chemical_formula_structural   V85Zn86O256
_chemical_formula_sum   'V85 Zn86 O256'
_cell_volume   4905.06895102
_cell_formula_units_Z   1
loop_
 _symmetry_equiv_pos_site_id
 _symmetry_equiv_pos_as_xyz
  1  'x, y, z'
loop_
 _atom_site_type_symbol
 _atom_site_label
 _atom_site_symmetry_multiplicity
 _atom_site_fract_x
 _atom_site_fract_y
 _atom_site_fract_z
 _atom_site_occupancy
  V  V0  1  0.00297658  0.62647862  0.12429024  1
  V  V1  1  0.49155493  0.63953955  0.61862861  1
  V  V2  1  0.87571177  0.62731889  0.24952671  1
  V  V3  1  0.49979138  0.62407455  0.12826579  1
  V  V4  1  0.24951070  0.74840497  0.50631099  1
  V  V5  1  0.49669694  0.00564470  0.50245842  1
  V  V6  1  0.00455151  0.75895691  0.25062623  1
  V  V7  1  0.73773156  0.49943513  0.73693304  1
  V  V8  1  0.62854906  0.25393352  0.87509594  1
  V  V9  1  0.75911935  0.01210340  0.26186361  1
  V  V10  1  0.11978626  0.12194612  0.00300892  1
  V  V11  1  0.13132178  0.49861528  0.12382435  1
  V  V12  1  0.49899200  0.37691455  0.37133814  1
  V  V13  1  0.50311417  0.24532787  0.75089670  1
  V  V14  1  0.12595998  0.00546622  0.60774040  1
  V  V15  1  0.49847041  0.87480806  0.37426251  1
  V  V16  1  0.13710929  0.51298089  0.62199990  1
  V  V17  1  -0.01915720  -0.00227122  -0.00480068  1
  V  V18  1  0.11385110  0.36477334  0.24977076  1
  V  V19  1  0.87814743  0.24925205  0.14250913  1
  V  V20  1  0.24724581  -0.00261799  0.74855623  1
  V  V21  1  0.00190215  0.37759829  0.87320749  1
  V  V22  1  0.50433793  0.87691650  0.87456380  1
  V  V23  1  0.37625945  0.49759613  0.38385788  1
  V  V24  1  0.12623924  0.25176322  0.87714971  1
  V  V25  1  0.00014394  0.25411534  0.74962258  1
  V  V26  1  0.75328452  0.24984135  0.00106451  1
  V  V27  1  0.87544154  0.12748937  0.74814757  1
  V  V28  1  0.12207550  0.23641110  0.38401308  1
  V  V29  1  0.75150387  0.37553925  0.12415682  1
  V  V30  1  0.75922631  0.74882855  0.00019754  1
  V  V31  1  0.37814091  -0.00077875  0.87423776  1
  V  V32  1  0.36376341  0.12504071  0.24982461  1
  V  V33  1  0.24998712  0.12504139  0.87756223  1
  V  V34  1  0.86808450  0.25684349  0.62568837  1
  V  V35  1  0.37338168  0.62431069  0.25222339  1
  V  V36  1  0.75040463  0.62628251  0.37201120  1
  V  V37  1  0.48829218  0.12860104  0.12495925  1
  V  V38  1  0.37429263  0.87106156  0.50806418  1
  V  V39  1  0.87551433  0.75623020  0.12559024  1
  V  V40  1  0.62546981  0.12285946  0.48889885  1
  V  V41  1  0.56196300  0.44964335  0.55697720  1
  V  V42  1  0.00390998  0.50036351  0.00072764  1
  V  V43  1  0.23994887  -0.01132409  0.25253722  1
  V  V44  1  -0.03464301  0.03612436  0.48146122  1
  V  V45  1  0.87847323  0.87080371  0.49716838  1
  V  V46  1  0.75126838  0.87189766  0.62196692  1
  V  V47  1  0.62323089  0.87762332  0.24717521  1
  V  V48  1  0.62521937  0.74871921  0.37122042  1
  V  V49  1  0.62565011  0.74365415  0.87098509  1
  V  V50  1  0.36935674  0.00130389  0.37344860  1
  V  V51  1  0.88011525  0.73618489  0.62654067  1
  V  V52  1  0.25419890  0.24654997  0.01602286  1
  V  V53  1  0.62289093  0.00768016  0.62327270  1
  V  V54  1  0.74815029  0.87611196  0.12386415  1
  V  V55  1  0.10059930  0.88516590  0.75141541  1
  V  V56  1  0.62482278  0.12676091  0.00243182  1
  V  V57  1  0.62273150  0.62472874  0.50242683  1
  V  V58  1  0.87033951  0.37947641  0.50517760  1
  V  V59  1  0.36970182  0.25557563  0.63025711  1
  V  V60  1  0.49814862  0.49847709  -0.00170725  1
  V  V61  1  0.00414544  0.50982284  0.51019073  1
  V  V62  1  0.13940014  0.37611675  0.73822019  1
  V  V63  1  0.38082721  0.12256666  0.74537920  1
  V  V64  1  0.62795485  0.87341257  0.74740133  1
  V  V65  1  0.62219970  0.00106410  0.12693407  1
  V  V66  1  0.62596319  0.62503811  -0.00181764  1
  V  V67  1  0.50225469  -0.00044270  0.00058035  1
  V  V68  1  0.74623805  0.25075793  0.49685411  1
  V  V69  1  -0.00716408  0.12722668  0.13618382  1
  V  V70  1  0.87596157  0.50908442  0.86623539  1
  V  V71  1  0.00346087  0.87829351  0.37836117  1
  V  V72  1  0.00870208  0.13253734  0.62135025  1
  V  V73  1  0.24755433  0.48849403  0.25098788  1
  V  V74  1  0.87735917  0.37286107  -0.00047223  1
  V  V75  1  0.87990517  0.50055799  0.37409443  1
  V  V76  1  -0.00267879  0.72826332  0.75303731  1
  V  V77  1  0.37177985  0.36945566  0.01516521  1
  V  V78  1  0.12201111  0.74785491  0.38328715  1
  V  V79  1  0.75346451  0.00234210  0.74517730  1
  V  V80  1  0.75601675  0.12312276  0.87418576  1
  V  V81  1  0.62570357  0.37519581  0.24872191  1
  V  V82  1  0.49645500  0.37283434  0.87737055  1
  V  V83  1  0.24212381  0.62096196  0.38012158  1
  V  V84  1  0.49038578  0.25032263  0.24908187  1
  Zn  Zn85  1  0.23988095  0.86531767  0.12269335  1
  Zn  Zn86  1  0.17649686  0.68726481  0.03842925  1
  Zn  Zn87  1  0.62893875  0.49987064  0.12373910  1
  Zn  Zn88  1  0.62711042  0.37399137  0.73155537  1
  Zn  Zn89  1  0.75225409  0.50071289  0.24719459  1
  Zn  Zn90  1  0.35716904  0.74475305  0.11541108  1
  Zn  Zn91  1  0.24154522  0.24770648  0.50078136  1
  Zn  Zn92  1  0.62691845  0.24621143  0.37063499  1
  Zn  Zn93  1  0.24686327  0.87401555  0.62445470  1
  Zn  Zn94  1  0.35944486  0.62945227  0.74853803  1
  Zn  Zn95  1  0.75098885  0.74732487  0.49998320  1
  Zn  Zn96  1  0.14254694  0.76660727  0.88046193  1
  Zn  Zn97  1  0.49287245  0.75318988  0.24971285  1
  Zn  Zn98  1  0.91455276  -0.05167561  0.84098477  1
  Zn  Zn99  1  0.49466131  0.75135988  0.74510011  1
  Zn  Zn100  1  0.11651470  -0.00355312  0.13221107  1
  Zn  Zn101  1  0.35373191  0.50517118  0.86814718  1
  Zn  Zn102  1  0.26033690  0.65076882  0.88709659  1
  Zn  Zn103  1  -0.00128115  0.37156024  0.37473568  1
  Zn  Zn104  1  0.32695538  0.83260377  -0.03205246  1
  Zn  Zn105  1  0.36865879  0.38014554  0.51346155  1
  Zn  Zn106  1  0.75210271  0.62211234  0.87053101  1
  Zn  Zn107  1  0.18205591  0.18193426  0.19099941  1
  Zn  Zn108  1  0.19012251  0.18792979  0.69111723  1
  Zn  Zn109  1  0.18548204  0.68603612  0.20182278  1
  Zn  Zn110  1  0.18158310  0.69390366  0.69184265  1
  Zn  Zn111  1  0.68446402  0.18849447  0.18851399  1
  Zn  Zn112  1  0.68655771  0.18849937  0.68290126  1
  Zn  Zn113  1  0.68511366  0.68747121  0.18661464  1
  Zn  Zn114  1  0.68939994  0.68192679  0.68854106  1
  Zn  Zn115  1  0.30771860  0.31087237  0.31961835  1
  Zn  Zn116  1  0.31409957  0.31007580  0.82042618  1
  Zn  Zn117  1  0.31123769  0.81105787  0.31550993  1
  Zn  Zn118  1  0.31527966  0.80965169  0.79799624  1
  Zn  Zn119  1  0.81003733  0.31511043  0.31707916  1
  Zn  Zn120  1  0.81126562  0.31955361  0.80937969  1
  Zn  Zn121  1  0.81319823  0.81827220  0.31155575  1
  Zn  Zn122  1  0.81738173  0.80023290  0.80791734  1
  Zn  Zn123  1  0.18838921  0.42727798  0.44128284  1
  Zn  Zn124  1  0.19144071  0.43394788  0.94215068  1
  Zn  Zn125  1  0.18872428  0.93467810  0.43202268  1
  Zn  Zn126  1  0.17797837  0.94141840  0.93528896  1
  Zn  Zn127  1  0.69566872  0.43454193  0.42964799  1
  Zn  Zn128  1  0.68825324  0.43917175  0.93548737  1
  Zn  Zn129  1  0.68870400  0.93617583  0.43630343  1
  Zn  Zn130  1  0.73049526  0.91648784  0.91667912  1
  Zn  Zn131  1  0.29747502  0.02322304  0.04852321  1
  Zn  Zn132  1  0.30838587  0.06721491  0.56324702  1
  Zn  Zn133  1  0.31517336  0.55696708  0.06203332  1
  Zn  Zn134  1  0.31205970  0.56430972  0.56094641  1
  Zn  Zn135  1  0.81013808  0.06424346  0.06990921  1
  Zn  Zn136  1  0.81261503  0.07077474  0.55262221  1
  Zn  Zn137  1  0.81753451  0.56356240  0.05866909  1
  Zn  Zn138  1  0.80654729  0.56081733  0.55943965  1
  Zn  Zn139  1  0.43640090  0.44169968  0.18892578  1
  Zn  Zn140  1  0.43222401  0.43705152  0.69617371  1
  Zn  Zn141  1  0.42690016  0.93097624  0.18234914  1
  Zn  Zn142  1  0.43927301  0.93605405  0.68711519  1
  Zn  Zn143  1  0.93820335  0.43863929  0.18603127  1
  Zn  Zn144  1  0.94013673  0.44149245  0.68957949  1
  Zn  Zn145  1  0.93601824  0.93990550  0.18733800  1
  Zn  Zn146  1  0.93310916  0.94722451  0.66229207  1
  Zn  Zn147  1  0.05731108  0.06446910  0.31538298  1
  Zn  Zn148  1  0.06240297  0.06610608  0.81227360  1
  Zn  Zn149  1  0.06134489  0.56209355  0.31191783  1
  Zn  Zn150  1  0.15997076  0.56120534  0.80993071  1
  Zn  Zn151  1  0.55684379  0.06078773  0.31090078  1
  Zn  Zn152  1  0.56985984  0.06317836  0.81354721  1
  Zn  Zn153  1  0.56293382  0.55877173  0.31220460  1
  Zn  Zn154  1  0.53245533  0.54621246  0.79252101  1
  Zn  Zn155  1  0.40203266  0.17230091  0.45392637  1
  Zn  Zn156  1  0.43478606  0.18642766  0.93796023  1
  Zn  Zn157  1  0.43657807  0.68696185  0.43769865  1
  Zn  Zn158  1  0.43560780  0.68482897  0.93420113  1
  Zn  Zn159  1  0.93949871  0.19929570  0.43591670  1
  Zn  Zn160  1  0.93735886  0.18727988  0.94010067  1
  Zn  Zn161  1  0.93780653  0.68702239  0.43936679  1
  Zn  Zn162  1  1.02378451  0.67564326  0.92485704  1
  Zn  Zn163  1  0.06495860  0.31083142  0.06705823  1
  Zn  Zn164  1  0.05862591  0.31805873  0.55865066  1
  Zn  Zn165  1  0.05893669  0.82668742  0.06357215  1
  Zn  Zn166  1  0.06164915  0.81185956  0.56565410  1
  Zn  Zn167  1  0.56138938  0.31033808  0.06545561  1
  Zn  Zn168  1  0.53178637  0.28111389  0.54622176  1
  Zn  Zn169  1  0.52448116  0.79402831  0.04342199  1
  Zn  Zn170  1  0.56599888  0.81560323  0.55612886  1
  O  O171  1  0.11029345  0.12138149  0.11992389  1
  O  O172  1  0.11783720  0.11841534  0.63454648  1
  O  O173  1  0.11734558  0.61594933  0.12814435  1
  O  O174  1  0.12777329  0.61109187  0.62567483  1
  O  O175  1  0.61481511  0.12074906  0.12107885  1
  O  O176  1  0.62683867  0.11177923  0.61607251  1
  O  O177  1  0.61923759  0.62056746  0.11839916  1
  O  O178  1  0.62397397  0.63248823  0.60482156  1
  O  O179  1  0.38384674  0.38223197  0.37202930  1
  O  O180  1  0.38844732  0.37477190  0.88196419  1
  O  O181  1  0.37988659  0.88397144  0.37982349  1
  O  O182  1  0.39090261  0.88430736  0.87249415  1
  O  O183  1  0.87583127  0.38560906  0.38255659  1
  O  O184  1  0.88719913  0.37538759  0.88027204  1
  O  O185  1  0.88365268  0.86900191  0.38813052  1
  O  O186  1  0.83471428  0.88337521  0.87738629  1
  O  O187  1  0.25937932  -0.00048961  0.36627003  1
  O  O188  1  0.25425806  0.00679872  0.86486264  1
  O  O189  1  0.25381772  0.50511934  0.37060069  1
  O  O190  1  0.24014535  0.50129651  0.87032914  1
  O  O191  1  0.74627464  -0.00380055  0.36049214  1
  O  O192  1  0.73701530  0.01906181  0.86300594  1
  O  O193  1  0.76426959  0.50718303  0.37130576  1
  O  O194  1  0.76529843  0.49946545  0.87584087  1
  O  O195  1  0.23930662  0.50360009  0.13619624  1
  O  O196  1  0.23631079  0.49911113  0.61520463  1
  O  O197  1  0.24513210  1.00570324  0.14793266  1
  O  O198  1  0.24232044  1.00298852  0.63135798  1
  O  O199  1  0.75465157  0.48635181  0.12456614  1
  O  O200  1  0.75158552  0.49990897  0.63850012  1
  O  O201  1  0.74085736  0.99195971  0.12869783  1
  O  O202  1  0.74399173  0.99418670  0.62657338  1
  O  O203  1  0.01083985  0.37931221  0.25214334  1
  O  O204  1  0.00652286  0.37113394  0.75825009  1
  O  O205  1  -0.01032485  0.86820241  0.26259165  1
  O  O206  1  -0.00083571  0.89878769  0.74838309  1
  O  O207  1  0.50473384  0.36968535  0.25144533  1
  O  O208  1  0.50766907  0.36493043  0.76354580  1
  O  O209  1  0.50700788  0.87531669  0.25561279  1
  O  O210  1  0.51028679  0.87640903  0.75887743  1
  O  O211  1  0.49462076  0.13324552  0.24298701  1
  O  O212  1  0.49179942  0.13202844  0.76473813  1
  O  O213  1  0.49109338  0.61938539  0.24361322  1
  O  O214  1  0.52096739  0.63436978  0.72037255  1
  O  O215  1  0.99712288  0.11837349  0.23484602  1
  O  O216  1  0.99489745  0.13344833  0.74139535  1
  O  O217  1  0.99322523  0.63361300  0.24429537  1
  O  O218  1  1.00867460  0.63342056  0.75189340  1
  O  O219  1  0.36618778  0.25591704  -0.00209303  1
  O  O220  1  0.41400354  0.26065695  0.52442868  1
  O  O221  1  0.40841036  0.76324087  0.00938309  1
  O  O222  1  0.36339298  0.76051794  0.48946398  1
  O  O223  1  0.86879619  0.25664045  0.00670879  1
  O  O224  1  0.86616189  0.26042317  0.50655105  1
  O  O225  1  0.86008408  0.74575198  0.01166775  1
  O  O226  1  0.87374065  0.75566862  0.50900833  1
  O  O227  1  0.12327176  0.25408315  0.48842206  1
  O  O228  1  0.12999591  0.24015965  0.99732017  1
  O  O229  1  0.12929245  0.75343299  0.48986974  1
  O  O230  1  0.09549642  0.75024662  0.98989074  1
  O  O231  1  0.62703391  0.23939337  0.49869113  1
  O  O232  1  0.63254761  0.24525943  0.99557467  1
  O  O233  1  0.62733121  0.74405974  0.48509019  1
  O  O234  1  0.62555447  0.73719189  0.99491338  1
  O  O235  1  0.50225024  0.24085969  0.13678258  1
  O  O236  1  0.49854204  0.24352968  0.64914008  1
  O  O237  1  0.50532472  0.73107368  0.13516626  1
  O  O238  1  0.50092089  0.74206576  0.61542485  1
  O  O239  1  0.99142935  0.23750917  0.12273613  1
  O  O240  1  0.99411185  0.24796404  0.63061318  1
  O  O241  1  0.99122044  0.75045673  0.13439381  1
  O  O242  1  0.98623478  0.75317435  0.63310269  1
  O  O243  1  0.01272956  0.25535355  0.37365060  1
  O  O244  1  0.00562351  0.25667066  0.87009920  1
  O  O245  1  0.00375341  0.75566913  0.37135663  1
  O  O246  1  -0.01596314  0.75404798  0.85104652  1
  O  O247  1  0.50306257  0.26607822  0.36487122  1
  O  O248  1  0.50777625  0.25441356  0.87206823  1
  O  O249  1  0.50746779  0.75551733  0.37149167  1
  O  O250  1  0.51396722  0.76028980  0.87281849  1
  O  O251  1  0.29462607  0.14818167  0.49089949  1
  O  O252  1  0.24089070  0.12232976  0.99557935  1
  O  O253  1  0.25673947  0.63346236  0.48664048  1
  O  O254  1  0.25805643  0.62563661  0.99826587  1
  O  O255  1  0.73561335  0.13664752  0.50225483  1
  O  O256  1  0.74626947  0.13061981  0.99264530  1
  O  O257  1  0.74149940  0.62618522  0.48896025  1
  O  O258  1  0.74232235  0.63160816  0.99971613  1
  O  O259  1  0.25998001  0.35940394  -0.00145670  1
  O  O260  1  0.26069517  0.36000077  0.49033302  1
  O  O261  1  0.25863849  0.91407813  0.00915769  1
  O  O262  1  0.25746236  0.86699129  0.49851926  1
  O  O263  1  0.75526219  0.36954013  0.00693174  1
  O  O264  1  0.76198283  0.37186994  0.49971008  1
  O  O265  1  0.73588275  0.86207216  0.01803110  1
  O  O266  1  0.75495132  0.87185132  0.50841611  1
  O  O267  1  0.12976818  0.49415244  0.24341414  1
  O  O268  1  0.12196387  0.48550986  0.73130123  1
  O  O269  1  0.13830556  1.00737346  0.25745953  1
  O  O270  1  0.12964924  0.99756906  0.74263504  1
  O  O271  1  0.62782912  0.48727021  0.24540834  1
  O  O272  1  0.63317147  0.49359147  0.75182024  1
  O  O273  1  0.62772712  0.99247599  0.24537085  1
  O  O274  1  0.63145854  0.99574737  0.73945876  1
  O  O275  1  0.36638310  0.00488544  0.25705419  1
  O  O276  1  0.36968185  0.00468353  0.75370501  1
  O  O277  1  0.36511116  0.50690707  0.25597596  1
  O  O278  1  0.41440316  0.51814528  0.76718229  1
  O  O279  1  0.85766003  -0.00112485  0.24613897  1
  O  O280  1  0.87003388  0.00839117  0.74362354  1
  O  O281  1  0.87692241  0.50707652  0.25825880  1
  O  O282  1  0.86755114  0.49327446  0.76269457  1
  O  O283  1  0.11976275  0.37792830  0.35911851  1
  O  O284  1  0.11456180  0.37034728  0.86840120  1
  O  O285  1  0.11084584  0.86599071  0.37901622  1
  O  O286  1  0.12218982  0.88118232  0.85489603  1
  O  O287  1  0.61928350  0.37613581  0.36433872  1
  O  O288  1  0.61775890  0.36120537  0.88393846  1
  O  O289  1  0.62094276  0.86730749  0.36685669  1
  O  O290  1  0.62869561  0.86686660  0.86544716  1
  O  O291  1  0.38690175  0.11614992  0.13428425  1
  O  O292  1  0.37802808  0.12855967  0.64277887  1
  O  O293  1  0.38253524  0.62452854  0.13496451  1
  O  O294  1  0.39032827  0.62087285  0.62311956  1
  O  O295  1  0.88394775  0.13625331  0.12233516  1
  O  O296  1  0.88327336  0.13885184  0.62807083  1
  O  O297  1  0.87960901  0.63566025  0.13053641  1
  O  O298  1  0.87025965  0.63857460  0.61561341  1
  O  O299  1  0.24526626  0.23974250  0.11423976  1
  O  O300  1  0.26709933  0.24470617  0.62767284  1
  O  O301  1  0.23911508  0.74499096  0.12269538  1
  O  O302  1  0.23833321  0.75340324  0.60887353  1
  O  O303  1  0.75569963  0.25921461  0.12203591  1
  O  O304  1  0.75804289  0.24884799  0.61432236  1
  O  O305  1  0.75473935  0.75601646  0.12253173  1
  O  O306  1  0.75863704  0.75590511  0.62390173  1
  O  O307  1  0.22527976  0.25170385  0.36843486  1
  O  O308  1  0.24388684  0.24063967  0.88301493  1
  O  O309  1  0.23879352  0.74241183  0.37991398  1
  O  O310  1  0.25903984  0.77352168  0.88990499  1
  O  O311  1  0.74558092  0.25534126  0.39081047  1
  O  O312  1  0.74417364  0.24524608  0.87852903  1
  O  O313  1  0.74225753  0.74513900  0.37377473  1
  O  O314  1  0.74133238  0.74337076  0.88422828  1
  O  O315  1  0.00426682  0.12287946  0.00851864  1
  O  O316  1  0.01030751  0.13420352  0.51387563  1
  O  O317  1  -0.00662320  0.60643588  0.00877745  1
  O  O318  1  -0.00259616  0.60780862  0.49809693  1
  O  O319  1  0.50490038  0.12376627  0.00799125  1
  O  O320  1  0.50228229  0.10941089  0.49849072  1
  O  O321  1  0.50640874  0.61510444  0.00747488  1
  O  O322  1  0.50695932  0.62541685  0.50713654  1
  O  O323  1  0.50515556  0.38853649  0.49115167  1
  O  O324  1  0.49513988  0.37807715  0.99780673  1
  O  O325  1  0.49310226  0.88168302  0.49282986  1
  O  O326  1  0.51638197  0.88881959  0.98320600  1
  O  O327  1  0.98567423  0.38484218  0.49659858  1
  O  O328  1  0.99726949  0.37935075  0.99480316  1
  O  O329  1  0.99154453  0.87229013  0.49330986  1
  O  O330  1  0.99114867  0.89939493  1.00241706  1
  O  O331  1  0.48982029  0.48718699  0.36471416  1
  O  O332  1  0.51354590  0.48663912  0.89179441  1
  O  O333  1  0.49477222  0.99066524  0.38230556  1
  O  O334  1  0.50232608  0.99534519  0.88039662  1
  O  O335  1  0.99021581  0.50091163  0.38370244  1
  O  O336  1  0.99046062  0.48975393  0.88427909  1
  O  O337  1  1.00538052  0.99352305  0.38981537  1
  O  O338  1  0.99470759  1.01177896  0.88745232  1
  O  O339  1  -0.00644168  0.01300844  0.11589703  1
  O  O340  1  0.00577200  0.01702395  0.60424215  1
  O  O341  1  0.00655256  0.50427410  0.11850763  1
  O  O342  1  0.00599137  0.49667724  0.61364030  1
  O  O343  1  0.50231997  0.00329375  0.11816971  1
  O  O344  1  0.51124920  -0.00903778  0.61446954  1
  O  O345  1  0.50206931  0.50703626  0.11517606  1
  O  O346  1  0.50426294  0.50594202  0.61773924  1
  O  O347  1  0.24113358  0.38600262  0.25445191  1
  O  O348  1  0.23682513  0.36755870  0.75541042  1
  O  O349  1  0.24684262  0.88760182  0.25831515  1
  O  O350  1  0.24534328  0.88944329  0.74373471  1
  O  O351  1  0.74218135  0.37568157  0.24250503  1
  O  O352  1  0.74221047  0.39056375  0.75549021  1
  O  O353  1  0.74183670  0.88070376  0.24105590  1
  O  O354  1  0.74616691  0.87918845  0.73422055  1
  O  O355  1  0.26174037  0.12223568  0.25044573  1
  O  O356  1  0.25684793  0.11531585  0.75678000  1
  O  O357  1  0.25500908  0.61447313  0.26337869  1
  O  O358  1  0.24291242  0.63357233  0.76248124  1
  O  O359  1  0.74275308  0.11100978  0.24686149  1
  O  O360  1  0.75537591  0.12369713  0.75386753  1
  O  O361  1  0.75631789  0.62306282  0.25415866  1
  O  O362  1  0.74528846  0.60678824  0.75476119  1
  O  O363  1  0.39120774  0.10751591  0.36038545  1
  O  O364  1  0.36865326  0.11921161  0.86739279  1
  O  O365  1  0.37031653  0.61520518  0.36945873  1
  O  O366  1  0.37499404  0.62224520  0.86971047  1
  O  O367  1  0.88801231  0.09824711  0.44130355  1
  O  O368  1  0.86406610  0.13552683  0.86534197  1
  O  O369  1  0.87105234  0.62058876  0.36956439  1
  O  O370  1  0.87775530  0.60649125  0.87729672  1
  O  O371  1  0.12081480  0.38292354  0.13986352  1
  O  O372  1  0.12485918  0.37192134  0.63686154  1
  O  O373  1  0.12624604  0.88474785  0.12859774  1
  O  O374  1  0.12111545  0.88949826  0.63413154  1
  O  O375  1  0.63447572  0.37550682  0.12996720  1
  O  O376  1  0.60606971  0.37779614  0.61200242  1
  O  O377  1  0.62809039  0.87811119  0.13887190  1
  O  O378  1  0.63342510  0.88176688  0.62532990  1
  O  O379  1  0.12389499  0.26271519  0.25068225  1
  O  O380  1  0.12029545  0.25940437  0.75497112  1
  O  O381  1  0.10937363  0.74634364  0.26468549  1
  O  O382  1  0.10427654  0.77093515  0.74173316  1
  O  O383  1  0.61666743  0.26098430  0.25060683  1
  O  O384  1  0.62191718  0.25201735  0.75826472  1
  O  O385  1  0.62406636  0.75711685  0.25931918  1
  O  O386  1  0.62741660  0.75600483  0.75663059  1
  O  O387  1  0.38269129  0.24123692  0.25761260  1
  O  O388  1  0.38242479  0.24276399  0.74996013  1
  O  O389  1  0.37314915  0.73232174  0.25642201  1
  O  O390  1  0.38243972  0.74430823  0.74219089  1
  O  O391  1  0.87012838  0.25477214  0.24139094  1
  O  O392  1  0.87823930  0.24950549  0.74180551  1
  O  O393  1  0.88178979  0.74626242  0.24500833  1
  O  O394  1  0.88205847  0.74427701  0.73487020  1
  O  O395  1  0.37318166  0.49849163  0.48654496  1
  O  O396  1  0.38460282  0.48777616  0.99570421  1
  O  O397  1  0.38053071  0.99311889  0.49263372  1
  O  O398  1  0.39503249  1.01095669  0.98952904  1
  O  O399  1  0.88094235  0.49631168  0.49585914  1
  O  O400  1  0.88248623  0.48996981  0.99375722  1
  O  O401  1  0.87946255  0.97880971  0.52455307  1
  O  O402  1  0.88074643  1.01074841  0.99824206  1
  O  O403  1  0.11129440  0.01513675  -0.00141077  1
  O  O404  1  0.13439383  0.00139572  0.50843121  1
  O  O405  1  0.11534967  0.48698625  0.01382310  1
  O  O406  1  0.11243352  0.49037064  0.51082068  1
  O  O407  1  0.61431472  0.01175343  0.00761185  1
  O  O408  1  0.61900709  0.00396140  0.50378263  1
  O  O409  1  0.62244587  0.51061589  0.00247550  1
  O  O410  1  0.62847546  0.50498510  0.49778860  1
  O  O411  1  0.37909382  0.37710787  0.11408768  1
  O  O412  1  0.38282672  0.36482704  0.62987400  1
  O  O413  1  0.35837149  0.86024289  0.13361586  1
  O  O414  1  0.37156730  0.88118985  0.61063894  1
  O  O415  1  0.87039449  0.36821643  0.12068725  1
  O  O416  1  0.88071307  0.36491931  0.61984439  1
  O  O417  1  0.86455771  0.86337330  0.13063963  1
  O  O418  1  0.86697182  0.86157787  0.61950494  1
  O  O419  1  0.11910356  0.13790554  0.37572361  1
  O  O420  1  0.12910293  0.13288860  0.88179723  1
  O  O421  1  0.13236355  0.63134753  0.37288697  1
  O  O422  1  0.12662707  0.64860413  0.87594995  1
  O  O423  1  0.61659145  0.12532836  0.38589097  1
  O  O424  1  0.63167451  0.13847354  0.88107984  1
  O  O425  1  0.62744105  0.63023819  0.37884630  1
  O  O426  1  0.62345573  0.63279333  0.88272674  1
