# generated using pymatgen
data_V85Zn86O256
_symmetry_space_group_name_H-M   'P 1'
_cell_length_a   16.94234808
_cell_length_b   16.94477787
_cell_length_c   16.94110315
_cell_angle_alpha   90.04765599
_cell_angle_beta   89.97182273
_cell_angle_gamma   90.05458578
_symmetry_Int_Tables_number   1
_chemical_formula_structural   V85Zn86O256
_chemical_formula_sum   'V85 Zn86 O256'
_cell_volume   4863.52068461
_cell_formula_units_Z   1
loop_
 _symmetry_equiv_pos_site_id
 _symmetry_equiv_pos_as_xyz
  1  'x, y, z'
loop_
 _atom_site_type_symbol
 _atom_site_label
 _atom_site_symmetry_multiplicity
 _atom_site_fract_x
 _atom_site_fract_y
 _atom_site_fract_z
 _atom_site_occupancy
  V  V0  1  0.13094916  0.51169951  0.62448774  1
  V  V1  1  -0.00176542  -0.01035544  -0.00101808  1
  V  V2  1  0.25132891  0.87595269  0.12313915  1
  V  V3  1  0.50040297  0.75257585  0.77264967  1
  V  V4  1  0.12620143  0.37393238  0.24914162  1
  V  V5  1  0.62634740  0.63901987  0.50038553  1
  V  V6  1  0.87727373  0.12617783  0.76391031  1
  V  V7  1  0.50450831  0.24373770  0.24861931  1
  V  V8  1  0.86544143  0.87444835  0.49939027  1
  V  V9  1  0.13258346  0.24188207  0.37781738  1
  V  V10  1  0.12672948  0.00040604  0.12347956  1
  V  V11  1  0.14264565  -0.00395858  0.62887810  1
  V  V12  1  0.37289763  0.24809927  0.11837131  1
  V  V13  1  -0.00082590  0.24791094  0.25178385  1
  V  V14  1  0.75100572  0.49892153  0.25399767  1
  V  V15  1  0.87186705  -0.00719272  0.88056735  1
  V  V16  1  0.87347903  0.50135862  0.87297882  1
  V  V17  1  0.88008348  0.62520799  0.74356642  1
  V  V18  1  0.75249244  0.37415005  0.62889852  1
  V  V19  1  0.37210488  0.87396829  0.49983354  1
  V  V20  1  0.72920930  0.87822705  0.12031478  1
  V  V21  1  0.87226349  0.74907121  0.62101744  1
  V  V22  1  0.49840788  0.49400175  0.50072472  1
  V  V23  1  0.87546396  0.37500651  -0.00275664  1
  V  V24  1  0.12476363  0.75065945  0.87307801  1
  V  V25  1  0.87592062  0.50180884  0.37721494  1
  V  V26  1  0.12568861  0.50182152  0.12414678  1
  V  V27  1  0.00417692  0.37941877  0.86954367  1
  V  V28  1  0.13852469  0.87670757  0.74802418  1
  V  V29  1  0.24491366  0.74881732  0.50615852  1
  V  V30  1  0.62486503  0.37153826  0.26020502  1
  V  V31  1  0.00594521  0.51467030  0.50428574  1
  V  V32  1  0.00305788  0.12283863  0.62518387  1
  V  V33  1  0.24906553  0.62452605  0.37571728  1
  V  V34  1  0.00728464  0.25186195  0.74602402  1
  V  V35  1  -0.00046139  0.75307306  0.74331179  1
  V  V36  1  0.75407494  0.23958008  -0.01095127  1
  V  V37  1  -0.00281765  0.62515734  0.12305648  1
  V  V38  1  0.50982697  0.37308237  0.87509796  1
  V  V39  1  0.49895374  0.62855302  0.62504522  1
  V  V40  1  0.74933135  0.63532011  0.37812027  1
  V  V41  1  0.74183544  0.24823043  0.49364527  1
  V  V42  1  0.73073426  -0.00615532  0.24858980  1
  V  V43  1  0.75179235  0.37371167  0.12501844  1
  V  V44  1  0.37628781  0.12524180  0.24643565  1
  V  V45  1  0.50277753  0.86746389  0.35986203  1
  V  V46  1  0.00146891  0.12196609  0.12308220  1
  V  V47  1  0.37176447  0.00271798  0.37556758  1
  V  V48  1  0.38523496  0.88012707  -0.00679537  1
  V  V49  1  0.49991282  0.49944977  0.00186617  1
  V  V50  1  0.87543800  0.24867481  0.12327344  1
  V  V51  1  0.25437447  0.36972791  0.61057337  1
  V  V52  1  0.62083217  0.00848846  0.62512732  1
  V  V53  1  0.37565542  0.49653751  0.37830733  1
  V  V54  1  0.38806017  0.62784996  0.24645881  1
  V  V55  1  0.37188269  0.00370823  0.86327044  1
  V  V56  1  0.37536411  0.49859104  0.87159739  1
  V  V57  1  0.62060856  0.49827879  0.12431871  1
  V  V58  1  0.00125464  0.75036600  0.25032043  1
  V  V59  1  0.13884631  0.37869506  0.74560716  1
  V  V60  1  0.36942422  0.62387763  0.75182820  1
  V  V61  1  0.12379775  0.74445000  0.38033863  1
  V  V62  1  0.74815443  0.50060821  0.74816823  1
  V  V63  1  0.49815555  0.36625747  0.38122658  1
  V  V64  1  -0.00079352  -0.00119240  0.50481035  1
  V  V65  1  0.38187977  0.14414567  0.73332175  1
  V  V66  1  0.87726434  0.76348129  0.11860683  1
  V  V67  1  0.62481955  0.24011116  0.87146617  1
  V  V68  1  0.57200914  0.32034846  0.69290725  1
  V  V69  1  0.37527999  0.75597178  0.62663265  1
  V  V70  1  0.50053692  0.00121390  0.50200305  1
  V  V71  1  0.24862658  0.00431385  0.25403641  1
  V  V72  1  0.74518325  0.87401014  0.62577041  1
  V  V73  1  0.00262597  0.37575424  0.37710683  1
  V  V74  1  0.50424185  0.01157124  0.00436982  1
  V  V75  1  0.74788131  0.00403543  0.75644600  1
  V  V76  1  0.62448306  0.50462134  0.62895861  1
  V  V77  1  0.25390620  0.75093592  -0.00089737  1
  V  V78  1  0.87762370  0.24754631  0.62301627  1
  V  V79  1  0.25022353  0.37119780  0.11721348  1
  V  V80  1  0.87270501  0.11716668  0.25107282  1
  V  V81  1  0.87869494  0.37500794  0.50074140  1
  V  V82  1  0.25081280  0.61870878  0.87475623  1
  V  V83  1  -0.00053209  0.87345929  0.37820230  1
  V  V84  1  0.63089305  0.62604005  -0.00142632  1
  Zn  Zn85  1  0.61284550  0.13562069  0.49800440  1
  Zn  Zn86  1  0.37461997  0.74712980  0.13319225  1
  Zn  Zn87  1  0.12648765  0.62506699  -0.00059137  1
  Zn  Zn88  1  0.25580782  0.13595501  0.87771530  1
  Zn  Zn89  1  0.87428011  0.62667905  0.24908347  1
  Zn  Zn90  1  0.26764811  0.24217871  0.49231690  1
  Zn  Zn91  1  0.14152697  0.25283572  0.88066658  1
  Zn  Zn92  1  0.37136130  0.36724318  -0.00970045  1
  Zn  Zn93  1  0.63179143  0.75962184  0.87981142  1
  Zn  Zn94  1  0.25327925  0.50087445  0.24853467  1
  Zn  Zn95  1  0.75943304  0.75913365  -0.00584098  1
  Zn  Zn96  1  0.62268896  0.75189309  0.35872778  1
  Zn  Zn97  1  0.13274280  0.12109339  0.49863641  1
  Zn  Zn98  1  -0.00068659  0.87361805  0.87467529  1
  Zn  Zn99  1  0.00044082  0.50174356  -0.00172405  1
  Zn  Zn100  1  0.62654744  0.12094848  0.01908284  1
  Zn  Zn101  1  0.74381450  0.12607245  0.37458371  1
  Zn  Zn102  1  0.75123862  0.62723857  0.87403694  1
  Zn  Zn103  1  0.87145269  -0.00008157  0.37638537  1
  Zn  Zn104  1  0.13423851  0.12934072  -0.00537114  1
  Zn  Zn105  1  0.12838014  0.87391390  0.25348502  1
  Zn  Zn106  1  0.61540020  0.88214132  0.75493972  1
  Zn  Zn107  1  0.18968272  0.18582912  0.18794709  1
  Zn  Zn108  1  0.19509727  0.18448803  0.69139253  1
  Zn  Zn109  1  0.18973307  0.68692491  0.19070741  1
  Zn  Zn110  1  0.18962277  0.69098941  0.68929299  1
  Zn  Zn111  1  0.68970991  0.18522212  0.18964077  1
  Zn  Zn112  1  0.69380622  0.18124353  0.68326846  1
  Zn  Zn113  1  0.69301344  0.68291115  0.18293421  1
  Zn  Zn114  1  0.68811957  0.68898387  0.69132963  1
  Zn  Zn115  1  0.31299820  0.31523319  0.30884855  1
  Zn  Zn116  1  0.31893044  0.30958356  0.80382634  1
  Zn  Zn117  1  0.31278043  0.81235612  0.31327544  1
  Zn  Zn118  1  0.31475431  0.81098972  0.81712374  1
  Zn  Zn119  1  0.81613578  0.31211916  0.31348677  1
  Zn  Zn120  1  0.81384520  0.31214994  0.81002305  1
  Zn  Zn121  1  0.81209097  0.81495122  0.30549427  1
  Zn  Zn122  1  0.80742003  0.81569638  0.81160532  1
  Zn  Zn123  1  0.18525141  0.43885096  0.43780679  1
  Zn  Zn124  1  0.18785092  0.43679568  0.93800676  1
  Zn  Zn125  1  0.18767395  0.93458988  0.44043529  1
  Zn  Zn126  1  0.18899089  0.94269493  0.93499528  1
  Zn  Zn127  1  0.68500429  0.43894984  0.44351754  1
  Zn  Zn128  1  0.68740767  0.43072710  0.93551397  1
  Zn  Zn129  1  0.68293772  0.93948490  0.43360613  1
  Zn  Zn130  1  0.68250764  0.93867878  0.93688038  1
  Zn  Zn131  1  0.31253911  0.06517566  0.05892499  1
  Zn  Zn132  1  0.31393398  0.07016183  0.55998172  1
  Zn  Zn133  1  0.31383569  0.56019358  0.06074696  1
  Zn  Zn134  1  0.31056940  0.56453593  0.56108520  1
  Zn  Zn135  1  0.81151540  0.05687797  0.06362850  1
  Zn  Zn136  1  0.81288513  0.06270769  0.56669254  1
  Zn  Zn137  1  0.81290741  0.56208422  0.06375714  1
  Zn  Zn138  1  0.81185143  0.56481672  0.55964629  1
  Zn  Zn139  1  0.43718772  0.43459383  0.19050604  1
  Zn  Zn140  1  0.43106776  0.44168009  0.68605849  1
  Zn  Zn141  1  0.43532084  0.94042297  0.18199458  1
  Zn  Zn142  1  0.43770229  0.93477611  0.68672014  1
  Zn  Zn143  1  0.93834926  0.43814701  0.18847317  1
  Zn  Zn144  1  0.94259325  0.44022869  0.68404685  1
  Zn  Zn145  1  0.93982666  0.93682359  0.19085259  1
  Zn  Zn146  1  0.93737739  0.93613320  0.69048111  1
  Zn  Zn147  1  0.06068577  0.05935534  0.31259040  1
  Zn  Zn148  1  0.06788175  0.06215259  0.81394722  1
  Zn  Zn149  1  0.06358043  0.56410006  0.31090494  1
  Zn  Zn150  1  0.06385849  0.56480761  0.80558713  1
  Zn  Zn151  1  0.56087930  0.06527398  0.32111417  1
  Zn  Zn152  1  0.55296241  0.05837414  0.81715677  1
  Zn  Zn153  1  0.56445055  0.56241401  0.31449337  1
  Zn  Zn154  1  0.55924899  0.56678021  0.81502703  1
  Zn  Zn155  1  0.43496474  0.18471946  0.43582048  1
  Zn  Zn156  1  0.43851995  0.18658814  0.93125425  1
  Zn  Zn157  1  0.43654038  0.68530687  0.43754655  1
  Zn  Zn158  1  0.48152107  0.72329584  0.99334945  1
  Zn  Zn159  1  0.93795018  0.18487650  0.43674002  1
  Zn  Zn160  1  0.96685385  0.19740757  0.94477509  1
  Zn  Zn161  1  0.93300991  0.68936241  0.43916012  1
  Zn  Zn162  1  0.93956795  0.68723226  0.93627856  1
  Zn  Zn163  1  0.06320841  0.31297139  0.05974128  1
  Zn  Zn164  1  0.06719124  0.31687671  0.56076174  1
  Zn  Zn165  1  0.06750518  0.81228126  0.06158550  1
  Zn  Zn166  1  0.06149127  0.81445884  0.56481894  1
  Zn  Zn167  1  0.57963602  0.28166307  0.08033330  1
  Zn  Zn168  1  0.40176068  0.25865714  0.61051385  1
  Zn  Zn169  1  0.55214112  0.79164776  0.17747016  1
  Zn  Zn170  1  0.55842082  0.81801866  0.56351070  1
  O  O171  1  0.11560439  0.11933169  0.12664399  1
  O  O172  1  0.12051559  0.11078897  0.62878294  1
  O  O173  1  0.11852942  0.61761421  0.12584063  1
  O  O174  1  0.13220574  0.61090096  0.62902439  1
  O  O175  1  0.60828297  0.17309035  0.11727032  1
  O  O176  1  0.62977644  0.11220901  0.61651816  1
  O  O177  1  0.63524656  0.60565031  0.11359250  1
  O  O178  1  0.62147519  0.62272587  0.61885943  1
  O  O179  1  0.38408941  0.38617079  0.36844690  1
  O  O180  1  0.38717060  0.38306459  0.87027274  1
  O  O181  1  0.38244635  0.88101867  0.37905722  1
  O  O182  1  0.36798328  0.88386358  0.88741535  1
  O  O183  1  0.88287589  0.38240573  0.38021305  1
  O  O184  1  0.88275664  0.38670497  0.87287528  1
  O  O185  1  0.87967541  0.87295037  0.38407539  1
  O  O186  1  0.87859622  0.88938680  0.86854761  1
  O  O187  1  0.25789870  -0.01025211  0.36540197  1
  O  O188  1  0.26809612  0.00338496  0.87965784  1
  O  O189  1  0.25636182  0.50696840  0.37659944  1
  O  O190  1  0.25727676  0.51011874  0.88062388  1
  O  O191  1  0.75190297  -0.00458541  0.35883241  1
  O  O192  1  0.75882029  0.00192013  0.86785264  1
  O  O193  1  0.75417365  0.50487833  0.37075043  1
  O  O194  1  0.75895953  0.49668138  0.86566800  1
  O  O195  1  0.24093054  0.49318061  0.12611506  1
  O  O196  1  0.23690661  0.49158286  0.61383657  1
  O  O197  1  0.24571660  0.99329188  0.13162796  1
  O  O198  1  0.24032896  0.99852674  0.62152275  1
  O  O199  1  0.74771495  0.49228265  0.13562455  1
  O  O200  1  0.74323763  0.49363842  0.62596529  1
  O  O201  1  0.75004269  0.98796319  0.13465248  1
  O  O202  1  0.74312025  0.99194716  0.63059023  1
  O  O203  1  0.00583225  0.36900135  0.25563696  1
  O  O204  1  0.01024973  0.37112136  0.75012571  1
  O  O205  1  0.00246044  0.86847336  0.26055273  1
  O  O206  1  0.00730367  0.86648135  0.75169717  1
  O  O207  1  0.50845153  0.37249403  0.26277612  1
  O  O208  1  0.50654315  0.37805952  0.74997805  1
  O  O209  1  0.49304130  0.87219893  0.25636314  1
  O  O210  1  0.49657739  0.85434924  0.74939634  1
  O  O211  1  0.49257693  0.13513121  0.25606775  1
  O  O212  1  0.47826434  0.11763871  0.75307847  1
  O  O213  1  0.48711102  0.62110473  0.25338614  1
  O  O214  1  0.48799919  0.63533815  0.74770774  1
  O  O215  1  0.99202803  0.12539122  0.24184474  1
  O  O216  1  0.99685208  0.13437493  0.74457740  1
  O  O217  1  0.99905178  0.63145193  0.23935253  1
  O  O218  1  0.98738030  0.63364244  0.75022700  1
  O  O219  1  0.38749343  0.25113672  0.01587935  1
  O  O220  1  0.38056141  0.25478051  0.50072022  1
  O  O221  1  0.36234717  0.76313248  -0.00582678  1
  O  O222  1  0.36995470  0.75453716  0.50774553  1
  O  O223  1  0.87404936  0.25488617  0.00153929  1
  O  O224  1  0.87575624  0.25757845  0.50652541  1
  O  O225  1  0.87671561  0.74558850  0.01434666  1
  O  O226  1  0.87724386  0.75840954  0.51304298  1
  O  O227  1  0.11992672  0.24968109  0.48274952  1
  O  O228  1  0.08163411  0.23626277  0.98160439  1
  O  O229  1  0.13426497  0.75445346  0.49617156  1
  O  O230  1  0.13729495  0.74830958  0.99368659  1
  O  O231  1  0.64414278  0.25312474  0.50423229  1
  O  O232  1  0.64004088  0.25640924  0.98368615  1
  O  O233  1  0.61929094  0.74072179  0.49853189  1
  O  O234  1  0.62351206  0.72845257  1.00055332  1
  O  O235  1  0.48440544  0.27049555  0.14655554  1
  O  O236  1  0.52022698  0.26837034  0.62825718  1
  O  O237  1  0.48276289  0.74936345  0.10365953  1
  O  O238  1  0.49035704  0.74370545  0.62711165  1
  O  O239  1  0.99478467  0.24086324  0.13242108  1
  O  O240  1  0.99959673  0.24746805  0.63149688  1
  O  O241  1  0.99407057  0.74562666  0.12731798  1
  O  O242  1  0.98976792  0.75473371  0.63502911  1
  O  O243  1  0.00541916  0.25537406  0.36834688  1
  O  O244  1  -0.00888144  0.26771185  0.85471515  1
  O  O245  1  0.00584999  0.75158278  0.37298400  1
  O  O246  1  0.00603840  0.75046116  0.86472147  1
  O  O247  1  0.49626725  0.26122987  0.36587921  1
  O  O248  1  0.51013438  0.26096942  0.87748039  1
  O  O249  1  0.49644873  0.76510947  0.37815814  1
  O  O250  1  0.50082034  0.74432878  0.87386638  1
  O  O251  1  0.24489925  0.13029680  0.49801699  1
  O  O252  1  0.24734791  0.12785716  0.99727869  1
  O  O253  1  0.25662630  0.63615928  0.48622000  1
  O  O254  1  0.25050402  0.63305602  0.99290229  1
  O  O255  1  0.75739589  0.14149735  0.50245197  1
  O  O256  1  0.74905456  0.13695684  1.00626930  1
  O  O257  1  0.73994351  0.62129737  0.48972702  1
  O  O258  1  0.74114115  0.62247298  0.99763933  1
  O  O259  1  0.25152735  0.37640714  0.01236919  1
  O  O260  1  0.24494513  0.37015879  0.50814873  1
  O  O261  1  0.25099695  0.86939136  0.00651978  1
  O  O262  1  0.26390271  0.86362224  0.49319206  1
  O  O263  1  0.75901243  0.36660788  0.00368833  1
  O  O264  1  0.75629413  0.36943759  0.50995088  1
  O  O265  1  0.74564416  0.87707990  0.01633173  1
  O  O266  1  0.75931384  0.88158878  0.50626068  1
  O  O267  1  0.12384832  0.49326195  0.23880041  1
  O  O268  1  0.11898900  0.49298716  0.73264617  1
  O  O269  1  0.13231347  0.99733348  0.24504521  1
  O  O270  1  0.12115964  0.99092548  0.73700510  1
  O  O271  1  0.63105810  0.49261663  0.24437161  1
  O  O272  1  0.62880730  0.51316877  0.73639443  1
  O  O273  1  0.63290899  1.00245509  0.24897949  1
  O  O274  1  0.63082972  1.00469686  0.74422826  1
  O  O275  1  0.36914229  0.00521961  0.25439739  1
  O  O276  1  0.37534044  -0.00915675  0.76273140  1
  O  O277  1  0.37454487  0.50822732  0.26124541  1
  O  O278  1  0.37912876  0.50999653  0.76197319  1
  O  O279  1  0.87372257  0.00909896  0.25170717  1
  O  O280  1  0.87064683  0.00824753  0.75675877  1
  O  O281  1  0.86749283  0.49991750  0.25833933  1
  O  O282  1  0.87349480  0.50774508  0.75190577  1
  O  O283  1  0.11953819  0.36871185  0.36843723  1
  O  O284  1  0.11893689  0.37826091  0.86415760  1
  O  O285  1  0.11820961  0.86241843  0.37715463  1
  O  O286  1  0.12437857  0.86936292  0.86642174  1
  O  O287  1  0.61495820  0.38432318  0.36940300  1
  O  O288  1  0.61564155  0.37091221  0.86758322  1
  O  O289  1  0.60643939  0.87196598  0.37662577  1
  O  O290  1  0.63086384  0.87188121  0.86545635  1
  O  O291  1  0.37232312  0.13288856  0.13830080  1
  O  O292  1  0.38153455  0.13007129  0.63033940  1
  O  O293  1  0.36646227  0.62001079  0.14401707  1
  O  O294  1  0.37808044  0.63165544  0.63270589  1
  O  O295  1  0.88043506  0.12760414  0.13302436  1
  O  O296  1  0.88485704  0.12970149  0.63304863  1
  O  O297  1  0.88318766  0.63131885  0.12741024  1
  O  O298  1  0.86826057  0.63648607  0.63068264  1
  O  O299  1  0.25978106  0.25916217  0.13311849  1
  O  O300  1  0.24300467  0.26625310  0.62039436  1
  O  O301  1  0.25209449  0.75667662  0.11791943  1
  O  O302  1  0.25964122  0.74357187  0.61482246  1
  O  O303  1  0.76073689  0.25680534  0.11847717  1
  O  O304  1  0.75771784  0.25791820  0.61841185  1
  O  O305  1  0.76227596  0.76266815  0.12363840  1
  O  O306  1  0.75627908  0.76518237  0.63360551  1
  O  O307  1  0.23489133  0.25679488  0.37218511  1
  O  O308  1  0.25440137  0.25590342  0.87504631  1
  O  O309  1  0.24210066  0.74474393  0.38182201  1
  O  O310  1  0.24500039  0.73938530  0.88084660  1
  O  O311  1  0.75607253  0.25271177  0.39028568  1
  O  O312  1  0.74406870  0.25480622  0.87964054  1
  O  O313  1  0.74983201  0.73805937  0.36704652  1
  O  O314  1  0.75113368  0.74532046  0.87916917  1
  O  O315  1  -0.00569902  0.10977090  0.01641741  1
  O  O316  1  0.00495821  0.11569111  0.50607906  1
  O  O317  1  0.00413266  0.62364227  0.01121735  1
  O  O318  1  -0.00333231  0.61286997  0.49818904  1
  O  O319  1  0.49849402  0.11438152  -0.00115412  1
  O  O320  1  0.49715439  0.10566856  0.49368863  1
  O  O321  1  0.51644959  0.60758000  -0.00271422  1
  O  O322  1  0.50766055  0.61776459  0.50454713  1
  O  O323  1  0.50555308  0.39206903  0.49207372  1
  O  O324  1  0.49936288  0.38770531  0.98773178  1
  O  O325  1  0.48755585  0.88082338  0.49269352  1
  O  O326  1  0.48312931  0.87717856  0.99554655  1
  O  O327  1  0.99650329  0.38372734  0.49430052  1
  O  O328  1  0.99364005  0.37975134  0.98623218  1
  O  O329  1  0.98882198  0.88046260  0.49796203  1
  O  O330  1  1.00336660  0.88548209  0.99905523  1
  O  O331  1  0.49348486  0.49525865  0.38179465  1
  O  O332  1  0.49396227  0.49474843  0.87893604  1
  O  O333  1  0.49089677  0.98595548  0.37867883  1
  O  O334  1  0.48287055  0.99890322  0.88837590  1
  O  O335  1  0.99884784  0.49755039  0.38485520  1
  O  O336  1  0.99481888  0.49261004  0.87063961  1
  O  O337  1  1.00010433  0.99366489  0.38860558  1
  O  O338  1  0.99337098  0.99942355  0.88386262  1
  O  O339  1  0.00575769  0.00356817  0.12161873  1
  O  O340  1  -0.00024535  0.00260887  0.61545323  1
  O  O341  1  0.00559016  0.50866352  0.12443109  1
  O  O342  1  0.01222487  0.49835425  0.61168313  1
  O  O343  1  0.49445473  -0.00407590  0.10387776  1
  O  O344  1  0.50963384  -0.00985996  0.61612872  1
  O  O345  1  0.51049416  0.48925185  0.11709691  1
  O  O346  1  0.50481501  0.50707997  0.61990808  1
  O  O347  1  0.24112298  0.37949613  0.24002711  1
  O  O348  1  0.24113384  0.37676249  0.73872097  1
  O  O349  1  0.25206848  0.88339401  0.24106655  1
  O  O350  1  0.23731162  0.86202605  0.74946524  1
  O  O351  1  0.74500654  0.38249850  0.25066658  1
  O  O352  1  0.75820291  0.38264034  0.73564527  1
  O  O353  1  0.75257169  0.88738702  0.23824065  1
  O  O354  1  0.75230163  0.89023103  0.74060464  1
  O  O355  1  0.25680445  0.11126784  0.24862713  1
  O  O356  1  0.27465270  0.13099325  0.75195264  1
  O  O357  1  0.25279370  0.62160232  0.26389186  1
  O  O358  1  0.26156489  0.63125463  0.75841161  1
  O  O359  1  0.75554624  0.11172976  0.24768554  1
  O  O360  1  0.76318814  0.11273893  0.74441013  1
  O  O361  1  0.75212295  0.61077248  0.25694973  1
  O  O362  1  0.76240010  0.61896360  0.75083744  1
  O  O363  1  0.37859055  0.10923740  0.36420963  1
  O  O364  1  0.37559719  0.11508142  0.86725269  1
  O  O365  1  0.36909373  0.61887353  0.36669614  1
  O  O366  1  0.36619915  0.61672822  0.86710614  1
  O  O367  1  0.86972377  0.12256993  0.36490133  1
  O  O368  1  0.88755661  0.12315874  0.86496718  1
  O  O369  1  0.86682479  0.61963139  0.37407289  1
  O  O370  1  0.87699901  0.61319803  0.86792482  1
  O  O371  1  0.12796128  0.37937822  0.12813257  1
  O  O372  1  0.13350062  0.38427597  0.62834517  1
  O  O373  1  0.13598351  0.88028021  0.12782724  1
  O  O374  1  0.12235844  0.88845097  0.63139946  1
  O  O375  1  0.63409052  0.37982391  0.13480061  1
  O  O376  1  0.63368708  0.38465132  0.63315104  1
  O  O377  1  0.63233368  0.86940546  0.12631942  1
  O  O378  1  0.63122432  0.88124563  0.63180247  1
  O  O379  1  0.11917116  0.25353822  0.25819563  1
  O  O380  1  0.11917737  0.26031395  0.74748445  1
  O  O381  1  0.11914521  0.75195061  0.25955433  1
  O  O382  1  0.11600765  0.75542738  0.75084230  1
  O  O383  1  0.61935617  0.26409262  0.25278854  1
  O  O384  1  0.63008829  0.25327556  0.74910201  1
  O  O385  1  0.62300913  0.74047357  0.24601775  1
  O  O386  1  0.60682594  0.74199944  0.75481951  1
  O  O387  1  0.37972066  0.24077408  0.24801360  1
  O  O388  1  0.38631574  0.24949384  0.73131056  1
  O  O389  1  0.36969569  0.73265470  0.25228308  1
  O  O390  1  0.38309721  0.74487049  0.74661005  1
  O  O391  1  0.87884572  0.23957445  0.24496832  1
  O  O392  1  0.88156852  0.24394612  0.74157336  1
  O  O393  1  0.88237946  0.74843198  0.23725992  1
  O  O394  1  0.88012487  0.74561538  0.74224693  1
  O  O395  1  0.38425580  0.50933688  0.48829831  1
  O  O396  1  0.38306216  0.49886033  0.98907762  1
  O  O397  1  0.37745365  0.99167233  0.49322056  1
  O  O398  1  0.37936621  0.99161293  0.99553557  1
  O  O399  1  0.88609731  0.49566148  0.49789930  1
  O  O400  1  0.87614741  0.49482174  0.98930779  1
  O  O401  1  0.88111892  0.99261953  0.49941801  1
  O  O402  1  0.88151990  1.00352404  0.98986219  1
  O  O403  1  0.11581019  0.00227588  0.00710418  1
  O  O404  1  0.11790301  -0.00343425  0.51214851  1
  O  O405  1  0.12221110  0.50103592  0.01231749  1
  O  O406  1  0.11387635  0.49986059  0.50808279  1
  O  O407  1  0.61014835  0.00754100  -0.00569401  1
  O  O408  1  0.61541414  -0.00615787  0.50916311  1
  O  O409  1  0.62244341  0.49882999  0.00719349  1
  O  O410  1  0.61936676  0.50867465  0.51313770  1
  O  O411  1  0.36373769  0.36966935  0.12574115  1
  O  O412  1  0.35710595  0.37981068  0.62593326  1
  O  O413  1  0.36191892  0.87682326  0.11315235  1
  O  O414  1  0.37739173  0.86321765  0.61663067  1
  O  O415  1  0.87260501  0.36968002  0.11916682  1
  O  O416  1  0.87069820  0.37067555  0.62002996  1
  O  O417  1  0.87800080  0.86426311  0.12508831  1
  O  O418  1  0.86705361  0.87035377  0.61910482  1
  O  O419  1  0.11847935  0.13953381  0.37255000  1
  O  O420  1  0.13221247  0.13094551  0.87238434  1
  O  O421  1  0.13131057  0.63607136  0.37336291  1
  O  O422  1  0.13311135  0.62923915  0.87352265  1
  O  O423  1  0.63152673  0.11961229  0.38714178  1
  O  O424  1  0.61892679  0.13900666  0.87230461  1
  O  O425  1  0.63183741  0.62614321  0.38389211  1
  O  O426  1  0.63092513  0.61940151  0.88858956  1
