# generated using pymatgen
data_V85Zn86O256
_symmetry_space_group_name_H-M   'P 1'
_cell_length_a   16.96903898
_cell_length_b   17.00259173
_cell_length_c   16.98227315
_cell_angle_alpha   90.01237897
_cell_angle_beta   90.00904924
_cell_angle_gamma   89.96750969
_symmetry_Int_Tables_number   1
_chemical_formula_structural   V85Zn86O256
_chemical_formula_sum   'V85 Zn86 O256'
_cell_volume   4899.68444017
_cell_formula_units_Z   1
loop_
 _symmetry_equiv_pos_site_id
 _symmetry_equiv_pos_as_xyz
  1  'x, y, z'
loop_
 _atom_site_type_symbol
 _atom_site_label
 _atom_site_symmetry_multiplicity
 _atom_site_fract_x
 _atom_site_fract_y
 _atom_site_fract_z
 _atom_site_occupancy
  V  V0  1  0.13593144  0.74598601  0.37757954  1
  V  V1  1  0.48969706  -0.00378056  -0.00085354  1
  V  V2  1  0.12787222  0.00055244  0.11571833  1
  V  V3  1  0.49856226  0.75234334  0.25140596  1
  V  V4  1  0.36958850  0.26734919  0.61992561  1
  V  V5  1  0.50278677  -0.00393969  0.49264100  1
  V  V6  1  0.87369973  0.12418501  0.75818038  1
  V  V7  1  0.75168301  0.24627443  0.00228157  1
  V  V8  1  0.37500983  0.49873862  0.87648743  1
  V  V9  1  0.25247717  0.26416229  0.50036094  1
  V  V10  1  0.12250189  0.25272017  0.37077203  1
  V  V11  1  0.74573715  0.87388305  0.62810588  1
  V  V12  1  0.12699179  0.12479893  0.50207809  1
  V  V13  1  0.87727317  0.87603485  0.50118997  1
  V  V14  1  0.49876702  0.37317988  0.87921343  1
  V  V15  1  0.62373692  0.49930632  0.12633620  1
  V  V16  1  0.36830013  0.63092808  0.25425778  1
  V  V17  1  0.87801843  0.00199205  0.37805495  1
  V  V18  1  0.37715424  0.87243817  0.49825299  1
  V  V19  1  0.00253369  0.25770984  0.74387267  1
  V  V20  1  0.12620022  0.87487050  0.25115194  1
  V  V21  1  0.75252311  0.37083812  0.12546453  1
  V  V22  1  0.49987574  0.25064745  0.24997521  1
  V  V23  1  0.48877321  0.12592025  0.62160207  1
  V  V24  1  -0.00033654  0.50511125  0.00309681  1
  V  V25  1  0.62249448  0.24576156  0.87472362  1
  V  V26  1  -0.06064153  0.68370320  0.08154359  1
  V  V27  1  0.87771832  0.49582656  0.87146589  1
  V  V28  1  0.49687577  0.12798700  0.12269599  1
  V  V29  1  0.87230828  0.36941433  -0.00262112  1
  V  V30  1  0.61787868  0.87892962  0.26222530  1
  V  V31  1  0.50495629  0.87137924  0.87611676  1
  V  V32  1  0.12915167  0.75251387  0.87871203  1
  V  V33  1  0.24886707  0.49298869  0.74622660  1
  V  V34  1  0.05344186  0.31683968  0.92433426  1
  V  V35  1  0.49810008  0.62903680  0.12633780  1
  V  V36  1  0.74609414  0.00021108  0.75585938  1
  V  V37  1  0.49508663  0.49818496  0.50787258  1
  V  V38  1  0.00286285  0.61959692  0.61433658  1
  V  V39  1  0.25109329  -0.00054609  0.24642829  1
  V  V40  1  0.87218906  0.62289123  0.74792527  1
  V  V41  1  0.62461705  -0.00302688  0.12623092  1
  V  V42  1  0.87274015  0.62534053  0.25420614  1
  V  V43  1  0.00534281  0.75037651  0.74654921  1
  V  V44  1  0.36155906  0.37308608  0.00368815  1
  V  V45  1  0.25088548  0.62806385  0.88376300  1
  V  V46  1  0.37457181  0.62601269  0.74879964  1
  V  V47  1  -0.00329628  0.12842101  0.12683223  1
  V  V48  1  0.62765192  0.25372629  0.38112776  1
  V  V49  1  0.25497138  0.86208693  0.11852312  1
  V  V50  1  0.75147567  0.74593994  0.48699700  1
  V  V51  1  0.48897627  0.37761617  0.37808144  1
  V  V52  1  0.12553509  0.48944232  0.62023907  1
  V  V53  1  0.88052504  0.50695489  0.38686488  1
  V  V54  1  0.62788888  0.61902627  0.50252445  1
  V  V55  1  0.74570510  0.37024623  0.61895929  1
  V  V56  1  0.62211369  0.74910604  0.37681562  1
  V  V57  1  0.13054075  0.50521885  0.12451585  1
  V  V58  1  0.36009962  0.25277351  0.12187459  1
  V  V59  1  0.87816900  0.36591690  0.49888137  1
  V  V60  1  0.24641216  0.14047130  0.87100820  1
  V  V61  1  0.63079779  0.12949392  0.50268211  1
  V  V62  1  0.74790913  0.49993555  0.74846026  1
  V  V63  1  -0.01653876  -0.00257789  -0.00432097  1
  V  V64  1  0.74884773  -0.00052240  0.25189331  1
  V  V65  1  0.13357240  0.88248538  0.74886440  1
  V  V66  1  0.63574148  0.74376247  0.87181492  1
  V  V67  1  0.62409101  -0.00106777  0.62748956  1
  V  V68  1  0.13636348  0.62093048  0.49896619  1
  V  V69  1  0.49325074  0.24841471  0.74787246  1
  V  V70  1  0.37549954  0.85718419  -0.00074108  1
  V  V71  1  0.00232665  0.74179591  0.25248806  1
  V  V72  1  -0.00190467  0.11607391  0.62831534  1
  V  V73  1  0.63483558  0.62167325  -0.00500866  1
  V  V74  1  0.87465596  0.74797110  0.62169226  1
  V  V75  1  0.74866093  0.50352735  0.26029162  1
  V  V76  1  0.50589288  0.75059931  0.74928669  1
  V  V77  1  0.62219738  0.12121895  -0.00481034  1
  V  V78  1  0.62471342  0.37530776  0.25205838  1
  V  V79  1  0.87369376  0.13348608  0.24980504  1
  V  V80  1  0.25137894  0.12515862  0.37585242  1
  V  V81  1  0.37751108  -0.00505129  0.37169949  1
  V  V82  1  0.62536396  0.37778871  0.74589145  1
  V  V83  1  0.25205307  0.49196203  0.25170004  1
  V  V84  1  0.75003875  0.12862912  0.37981182  1
  Zn  Zn85  1  0.00424462  -0.00106651  0.50274725  1
  Zn  Zn86  1  0.00359930  0.87539013  0.37774852  1
  Zn  Zn87  1  0.00170422  0.38055786  0.37316000  1
  Zn  Zn88  1  0.74834172  0.11786076  0.87697920  1
  Zn  Zn89  1  -0.00855507  0.87512618  0.88446439  1
  Zn  Zn90  1  0.78050441  0.87097362  0.10775169  1
  Zn  Zn91  1  0.34769540  0.01069645  0.83061383  1
  Zn  Zn92  1  0.36813608  0.50293333  0.38123256  1
  Zn  Zn93  1  0.25663565  0.87879275  0.62869642  1
  Zn  Zn94  1  0.12573147  0.63313638  0.00441882  1
  Zn  Zn95  1  0.25444358  0.74934384  0.50271522  1
  Zn  Zn96  1  0.86842784  0.24609351  0.62292689  1
  Zn  Zn97  1  0.13830760  0.00619855  0.63257742  1
  Zn  Zn98  1  0.76308688  0.74978619  0.00029221  1
  Zn  Zn99  1  -0.00645911  0.25540873  0.25068369  1
  Zn  Zn100  1  0.12749839  0.37252034  0.75116799  1
  Zn  Zn101  1  0.37660912  0.74914925  0.62378808  1
  Zn  Zn102  1  0.12745030  0.13943524  -0.00251006  1
  Zn  Zn103  1  0.37373383  0.12437444  0.24828398  1
  Zn  Zn104  1  0.50461824  0.62318241  0.62736927  1
  Zn  Zn105  1  0.12253767  0.37670126  0.24701724  1
  Zn  Zn106  1  0.50097203  0.49857142  0.00141597  1
  Zn  Zn107  1  0.18448716  0.18358562  0.18898585  1
  Zn  Zn108  1  0.18914373  0.18933455  0.68833199  1
  Zn  Zn109  1  0.18562830  0.68430762  0.18505823  1
  Zn  Zn110  1  0.19279034  0.68824767  0.68531798  1
  Zn  Zn111  1  0.68584203  0.18654004  0.18741960  1
  Zn  Zn112  1  0.68471714  0.18860146  0.68892121  1
  Zn  Zn113  1  0.69160028  0.68688823  0.18889993  1
  Zn  Zn114  1  0.68799808  0.68588255  0.68226369  1
  Zn  Zn115  1  0.31038090  0.31061737  0.30910839  1
  Zn  Zn116  1  0.31236165  0.30851335  0.81148245  1
  Zn  Zn117  1  0.31410111  0.81358120  0.31127303  1
  Zn  Zn118  1  0.31621191  0.80971384  0.81670791  1
  Zn  Zn119  1  0.80959473  0.31611767  0.31847923  1
  Zn  Zn120  1  0.81333942  0.30988280  0.81466671  1
  Zn  Zn121  1  0.82458002  0.82776109  0.28675323  1
  Zn  Zn122  1  0.81117974  0.81343218  0.81231439  1
  Zn  Zn123  1  0.18577418  0.44092173  0.43273787  1
  Zn  Zn124  1  0.18962848  0.44561393  0.93928468  1
  Zn  Zn125  1  0.19115048  0.93822654  0.43895520  1
  Zn  Zn126  1  0.19228563  0.93954665  0.93207950  1
  Zn  Zn127  1  0.68665020  0.43790040  0.44037515  1
  Zn  Zn128  1  0.68923511  0.43680913  0.93252783  1
  Zn  Zn129  1  0.68913968  0.93525742  0.43745941  1
  Zn  Zn130  1  0.68675303  0.92905930  0.94177469  1
  Zn  Zn131  1  0.30591302  0.06605078  0.05119577  1
  Zn  Zn132  1  0.31015882  0.06036590  0.56291368  1
  Zn  Zn133  1  0.31614726  0.56109320  0.06615341  1
  Zn  Zn134  1  0.31287964  0.56066811  0.56629498  1
  Zn  Zn135  1  0.80894888  0.06334350  0.06799644  1
  Zn  Zn136  1  0.81303417  0.06216967  0.56732790  1
  Zn  Zn137  1  0.80740200  0.55318225  0.06265850  1
  Zn  Zn138  1  0.80683852  0.56000924  0.56612447  1
  Zn  Zn139  1  0.43540655  0.43762571  0.18899377  1
  Zn  Zn140  1  0.43764087  0.43818463  0.68895088  1
  Zn  Zn141  1  0.43740074  0.93362849  0.18322211  1
  Zn  Zn142  1  0.44132966  0.93178040  0.68277734  1
  Zn  Zn143  1  0.93642655  0.43991186  0.18663431  1
  Zn  Zn144  1  0.93765267  0.43705598  0.68041455  1
  Zn  Zn145  1  0.94266695  0.94240233  0.18971559  1
  Zn  Zn146  1  0.92166462  0.92249911  0.72059038  1
  Zn  Zn147  1  0.06238540  0.06251593  0.31295413  1
  Zn  Zn148  1  0.06916256  0.06811041  0.81894402  1
  Zn  Zn149  1  0.06402950  0.56366788  0.31457145  1
  Zn  Zn150  1  0.06381513  0.56320002  0.81047477  1
  Zn  Zn151  1  0.56050159  0.06847664  0.31337315  1
  Zn  Zn152  1  0.53263561  0.04988342  0.79893652  1
  Zn  Zn153  1  0.56026237  0.56538371  0.31835668  1
  Zn  Zn154  1  0.56241539  0.56138919  0.81286281  1
  Zn  Zn155  1  0.43702295  0.18664365  0.43916000  1
  Zn  Zn156  1  0.42581518  0.18521897  0.93707793  1
  Zn  Zn157  1  0.44071106  0.68511340  0.43462324  1
  Zn  Zn158  1  0.44620721  0.68264660  0.93663740  1
  Zn  Zn159  1  0.94049848  0.18856726  0.43957477  1
  Zn  Zn160  1  0.93288049  0.17739191  0.94142800  1
  Zn  Zn161  1  0.94240100  0.68803087  0.43461816  1
  Zn  Zn162  1  0.93807036  0.68446582  0.91740164  1
  Zn  Zn163  1  0.05476010  0.32031705  0.08840241  1
  Zn  Zn164  1  0.05889812  0.30906363  0.56063694  1
  Zn  Zn165  1  0.06558607  0.82087361  0.06014542  1
  Zn  Zn166  1  0.06631911  0.81236605  0.56632409  1
  Zn  Zn167  1  0.56263917  0.31105140  0.06128879  1
  Zn  Zn168  1  0.56087667  0.31547780  0.56239834  1
  Zn  Zn169  1  0.60674994  0.79470609  0.08148318  1
  Zn  Zn170  1  0.56079992  0.81233460  0.56194704  1
  O  O171  1  0.11652679  0.11690513  0.12261263  1
  O  O172  1  0.11856972  0.12652747  0.61771234  1
  O  O173  1  0.12452487  0.61419348  0.12018216  1
  O  O174  1  0.11938415  0.61894037  0.61771088  1
  O  O175  1  0.61704133  0.11586272  0.11969029  1
  O  O176  1  0.61866201  0.12164397  0.61648433  1
  O  O177  1  0.61850207  0.61390707  0.12139957  1
  O  O178  1  0.62234699  0.62759093  0.60793206  1
  O  O179  1  0.38671982  0.37457574  0.37019463  1
  O  O180  1  0.38214810  0.37731929  0.88292422  1
  O  O181  1  0.37391795  0.88875932  0.37828102  1
  O  O182  1  0.38594369  0.87403689  0.88579936  1
  O  O183  1  0.87339226  0.38500386  0.38652231  1
  O  O184  1  0.87338563  0.38164984  0.88638937  1
  O  O185  1  0.87669242  0.88533433  0.38183665  1
  O  O186  1  0.89422700  0.88238831  0.82866238  1
  O  O187  1  0.25830307  0.00506408  0.36773420  1
  O  O188  1  0.24808792  0.01535615  0.87462640  1
  O  O189  1  0.25143193  0.50168821  0.35826183  1
  O  O190  1  0.25655540  0.50838941  0.86752928  1
  O  O191  1  0.75695902  0.00828830  0.37315945  1
  O  O192  1  0.73438762  -0.00321341  0.85812281  1
  O  O193  1  0.75885010  0.49466001  0.36445500  1
  O  O194  1  0.76365656  0.49331684  0.86143400  1
  O  O195  1  0.24400615  0.50623061  0.13783461  1
  O  O196  1  0.23938485  0.50503369  0.63501216  1
  O  O197  1  0.24385116  0.99514177  0.12906333  1
  O  O198  1  0.25102340  0.99458815  0.62708382  1
  O  O199  1  0.73902588  0.49186777  0.13547579  1
  O  O200  1  0.75475443  0.48553700  0.63955349  1
  O  O201  1  0.73967104  0.99788344  0.13464087  1
  O  O202  1  0.74071853  0.99353302  0.62818687  1
  O  O203  1  -0.00025540  0.37258838  0.25205874  1
  O  O204  1  -0.00462139  0.36023984  0.74663455  1
  O  O205  1  0.01623292  0.86569038  0.25060691  1
  O  O206  1  0.01652730  0.85630715  0.73408836  1
  O  O207  1  0.50647976  0.37099109  0.25792415  1
  O  O208  1  0.50556603  0.36846345  0.75677218  1
  O  O209  1  0.50674782  0.86674865  0.24867518  1
  O  O210  1  0.50001813  0.85748847  0.76077551  1
  O  O211  1  0.49668915  0.13242426  0.24052333  1
  O  O212  1  0.51230280  0.14484691  0.73471582  1
  O  O213  1  0.49347142  0.63036183  0.24467758  1
  O  O214  1  0.49276257  0.63007767  0.75009514  1
  O  O215  1  0.99046971  0.12458450  0.24509217  1
  O  O216  1  0.99306590  0.13149768  0.74637557  1
  O  O217  1  0.99406639  0.63417940  0.25134208  1
  O  O218  1  0.99640583  0.63377634  0.74057681  1
  O  O219  1  0.38213137  0.25862800  0.01554327  1
  O  O220  1  0.36761489  0.24916786  0.50980839  1
  O  O221  1  0.38103090  0.75900515  -0.00298826  1
  O  O222  1  0.37914002  0.75907576  0.49617936  1
  O  O223  1  0.86504237  0.25628878  -0.00491472  1
  O  O224  1  0.87143137  0.26291890  0.49847903  1
  O  O225  1  0.88274067  0.73421863  0.00745042  1
  O  O226  1  0.86951077  0.75542317  0.50156599  1
  O  O227  1  0.13119816  0.24190870  0.49446179  1
  O  O228  1  0.10368655  0.26415117  0.99472031  1
  O  O229  1  0.12681238  0.74366894  0.49270019  1
  O  O230  1  0.11708785  0.75127238  0.98380040  1
  O  O231  1  0.61842068  0.24228888  0.49237306  1
  O  O232  1  0.62941395  0.24198493  0.99405876  1
  O  O233  1  0.63103093  0.74538183  0.49416373  1
  O  O234  1  0.62023250  0.73411188  0.98578440  1
  O  O235  1  0.50174396  0.23818504  0.12881807  1
  O  O236  1  0.48948570  0.24747825  0.62648807  1
  O  O237  1  0.51614152  0.73883689  0.13991598  1
  O  O238  1  0.49975712  0.74673601  0.63512107  1
  O  O239  1  0.99821766  0.23365001  0.13160549  1
  O  O240  1  0.99457678  0.24120137  0.63323189  1
  O  O241  1  1.00394389  0.75002767  0.13282631  1
  O  O242  1  0.99422073  0.73991544  0.62728218  1
  O  O243  1  0.01274654  0.25018353  0.37420722  1
  O  O244  1  -0.00287060  0.25095558  0.86839068  1
  O  O245  1  0.01039810  0.75419537  0.36620693  1
  O  O246  1  0.00907398  0.75258762  0.86161068  1
  O  O247  1  0.50676011  0.25653673  0.37187796  1
  O  O248  1  0.49857753  0.25474633  0.86552772  1
  O  O249  1  0.50804154  0.74633130  0.36105439  1
  O  O250  1  0.50866495  0.75162771  0.86764672  1
  O  O251  1  0.24305157  0.13290746  0.49325993  1
  O  O252  1  0.24113463  0.13098796  0.99116500  1
  O  O253  1  0.24023895  0.62763177  0.50379813  1
  O  O254  1  0.25307565  0.61919807  0.98672183  1
  O  O255  1  0.73790497  0.12172088  0.49800073  1
  O  O256  1  0.74279716  0.12973480  0.99922973  1
  O  O257  1  0.74259000  0.63410382  0.50440636  1
  O  O258  1  0.73827818  0.62619830  1.00621738  1
  O  O259  1  0.26259257  0.38044029  -0.00120356  1
  O  O260  1  0.24600637  0.36275490  0.49360546  1
  O  O261  1  0.26672747  0.87793106  0.00357121  1
  O  O262  1  0.26692319  0.87455268  0.49750152  1
  O  O263  1  0.75500494  0.36680448  0.00251319  1
  O  O264  1  0.75876295  0.38095614  0.50919337  1
  O  O265  1  0.75722620  0.86655731  -0.00072383  1
  O  O266  1  0.76148214  0.86974734  0.50663101  1
  O  O267  1  0.13735573  0.50584276  0.24487872  1
  O  O268  1  0.13229062  0.49711266  0.74294610  1
  O  O269  1  0.12841995  0.99102735  0.24279101  1
  O  O270  1  0.11359464  0.98339425  0.75161760  1
  O  O271  1  0.63127067  0.49734422  0.24786375  1
  O  O272  1  0.63332218  0.48721551  0.75805446  1
  O  O273  1  0.62459931  0.99710888  0.24860835  1
  O  O274  1  0.62649702  1.00726158  0.73185319  1
  O  O275  1  0.37189268  0.00006865  0.25537079  1
  O  O276  1  0.42903784  0.00912661  0.75902549  1
  O  O277  1  0.36482052  0.50809034  0.24937586  1
  O  O278  1  0.36955780  0.50541302  0.75518919  1
  O  O279  1  0.87144280  0.01292544  0.26597215  1
  O  O280  1  0.85661492  0.01473185  0.73670078  1
  O  O281  1  0.86867766  0.50801436  0.25910963  1
  O  O282  1  0.87193037  0.50192781  0.75395149  1
  O  O283  1  0.12125080  0.36723703  0.37153907  1
  O  O284  1  0.11832350  0.37766673  0.87399035  1
  O  O285  1  0.12603436  0.86945080  0.36737798  1
  O  O286  1  0.11958656  0.86869280  0.86500794  1
  O  O287  1  0.61902590  0.36854976  0.37103133  1
  O  O288  1  0.61601018  0.36772526  0.86955525  1
  O  O289  1  0.62042962  0.86388585  0.37506519  1
  O  O290  1  0.61210788  0.85812645  0.88277669  1
  O  O291  1  0.38128661  0.13659154  0.12307673  1
  O  O292  1  0.38744146  0.13270175  0.61510165  1
  O  O293  1  0.39127725  0.61987459  0.13493884  1
  O  O294  1  0.37873716  0.62474493  0.63914943  1
  O  O295  1  0.88175995  0.11782864  0.13946636  1
  O  O296  1  0.88161257  0.12883749  0.63162899  1
  O  O297  1  0.87386196  0.61952601  0.13431016  1
  O  O298  1  0.88378771  0.62454009  0.62954184  1
  O  O299  1  0.26206024  0.24786333  0.12972060  1
  O  O300  1  0.26307316  0.24836265  0.61715248  1
  O  O301  1  0.24385358  0.76368346  0.12577275  1
  O  O302  1  0.25793465  0.75628182  0.62186654  1
  O  O303  1  0.74177193  0.25499593  0.11123612  1
  O  O304  1  0.75117809  0.26504430  0.63211546  1
  O  O305  1  0.71966763  0.76417116  0.11401486  1
  O  O306  1  0.75537178  0.75785847  0.61616446  1
  O  O307  1  0.24278570  0.24540509  0.37949611  1
  O  O308  1  0.25318200  0.24283796  0.87893068  1
  O  O309  1  0.23882034  0.75268980  0.37568493  1
  O  O310  1  0.24171509  0.73994898  0.87032082  1
  O  O311  1  0.73490354  0.24573227  0.37292534  1
  O  O312  1  0.74190567  0.24763976  0.88643784  1
  O  O313  1  0.74479794  0.75737805  0.38602217  1
  O  O314  1  0.73957612  0.75001154  0.87323815  1
  O  O315  1  0.00281299  0.11561413  0.00995863  1
  O  O316  1  0.00833552  0.12638827  0.51014044  1
  O  O317  1  -0.00602037  0.62252369  0.00566314  1
  O  O318  1  0.00743926  0.62874622  0.51082332  1
  O  O319  1  0.50313981  0.11803810  0.00553624  1
  O  O320  1  0.51049899  0.11996815  0.50490293  1
  O  O321  1  0.50946151  0.61909236  0.01051043  1
  O  O322  1  0.50678589  0.61367751  0.50041952  1
  O  O323  1  0.50668678  0.38988049  0.49209353  1
  O  O324  1  0.49877449  0.37453295  0.98792523  1
  O  O325  1  0.49175024  0.88633060  0.50091887  1
  O  O326  1  0.48838722  0.87970997  0.99711224  1
  O  O327  1  0.98251748  0.37296005  0.49787927  1
  O  O328  1  0.99503364  0.37801908  0.99320669  1
  O  O329  1  0.98822386  0.87566328  0.50244537  1
  O  O330  1  0.99567442  0.89145980  1.00259245  1
  O  O331  1  0.49570344  0.49187721  0.38194169  1
  O  O332  1  0.49308203  0.48870931  0.87471621  1
  O  O333  1  0.49324317  1.00823957  0.38514957  1
  O  O334  1  0.51635605  0.98403829  0.89168511  1
  O  O335  1  0.98342402  0.49959746  0.37206220  1
  O  O336  1  0.98814477  0.50845865  0.88540015  1
  O  O337  1  0.99151705  0.99810413  0.37998633  1
  O  O338  1  1.00435977  1.00393638  0.89505966  1
  O  O339  1  0.00663429  0.00750302  0.11958874  1
  O  O340  1  0.00316771  0.01314336  0.62567671  1
  O  O341  1  0.00205411  0.49779706  0.10819073  1
  O  O342  1  0.01075699  0.51054444  0.63159077  1
  O  O343  1  0.50337780  0.01196458  0.12105559  1
  O  O344  1  0.50726912  0.00923127  0.61055369  1
  O  O345  1  0.51230451  0.50345660  0.12802103  1
  O  O346  1  0.49936356  0.49926128  0.61149565  1
  O  O347  1  0.24991904  0.38941771  0.24915314  1
  O  O348  1  0.24927497  0.38911199  0.75590031  1
  O  O349  1  0.24319064  0.87909563  0.24216582  1
  O  O350  1  0.23664421  0.87042323  0.75531260  1
  O  O351  1  0.74458634  0.38138168  0.24601576  1
  O  O352  1  0.74236223  0.37835520  0.74587705  1
  O  O353  1  0.72664152  0.88699716  0.26485479  1
  O  O354  1  0.74853933  0.88269759  0.73401922  1
  O  O355  1  0.25181127  0.11689367  0.25719991  1
  O  O356  1  0.24321751  0.13266139  0.76683548  1
  O  O357  1  0.26609683  0.62236247  0.24344877  1
  O  O358  1  0.25844895  0.61672864  0.75833636  1
  O  O359  1  0.75432964  0.11952956  0.25659820  1
  O  O360  1  0.75401432  0.11899425  0.75118678  1
  O  O361  1  0.75855576  0.61507212  0.24721845  1
  O  O362  1  0.76033295  0.61290099  0.73708156  1
  O  O363  1  0.36932933  0.11558901  0.37403003  1
  O  O364  1  0.35797354  0.12214293  0.87803056  1
  O  O365  1  0.38060509  0.62166249  0.35706508  1
  O  O366  1  0.37166281  0.61925177  0.86791300  1
  O  O367  1  0.86914058  0.12028691  0.37604501  1
  O  O368  1  0.86924763  0.12401306  0.86231228  1
  O  O369  1  0.87529067  0.61301374  0.37266939  1
  O  O370  1  0.87401654  0.61515721  0.85502409  1
  O  O371  1  0.12212535  0.39703114  0.12984156  1
  O  O372  1  0.11737566  0.38682132  0.62429248  1
  O  O373  1  0.13339560  0.88205449  0.13171753  1
  O  O374  1  0.13147600  0.87698537  0.63692796  1
  O  O375  1  0.62874114  0.38100606  0.13140798  1
  O  O376  1  0.63091340  0.37234803  0.63501767  1
  O  O377  1  0.61374548  0.89295466  0.13952747  1
  O  O378  1  0.63400195  0.88682869  0.61268424  1
  O  O379  1  0.12416243  0.25250065  0.25864762  1
  O  O380  1  0.10771159  0.25502368  0.74353146  1
  O  O381  1  0.12062936  0.75239124  0.25684088  1
  O  O382  1  0.12086024  0.75254673  0.75690093  1
  O  O383  1  0.61841661  0.25439468  0.25787592  1
  O  O384  1  0.61793586  0.26117556  0.75581078  1
  O  O385  1  0.62085134  0.75819596  0.26026195  1
  O  O386  1  0.61824313  0.73724125  0.75886028  1
  O  O387  1  0.38146535  0.24978652  0.23743339  1
  O  O388  1  0.38272205  0.25658869  0.73374982  1
  O  O389  1  0.38250866  0.74002862  0.25181403  1
  O  O390  1  0.38524642  0.74030812  0.75249712  1
  O  O391  1  0.87186397  0.23702875  0.26148398  1
  O  O392  1  0.88340214  0.24234651  0.74907190  1
  O  O393  1  0.88452495  0.73153330  0.26273339  1
  O  O394  1  0.88129764  0.73833154  0.73970507  1
  O  O395  1  0.38931711  0.50648130  0.49751622  1
  O  O396  1  0.38031623  0.49094499  0.99619004  1
  O  O397  1  0.38447791  0.99556868  0.49080393  1
  O  O398  1  0.38776703  0.99720497  1.00540318  1
  O  O399  1  0.86803024  0.49509230  0.48890608  1
  O  O400  1  0.87869470  0.49436263  0.99074710  1
  O  O401  1  0.87522008  0.99356384  0.49338362  1
  O  O402  1  0.88448861  1.00536179  1.00358507  1
  O  O403  1  0.12133139  -0.00632383  0.01298773  1
  O  O404  1  0.12484042  0.01429116  0.49870729  1
  O  O405  1  0.11617762  0.50743147  0.00391634  1
  O  O406  1  0.12898230  0.50798639  0.50750513  1
  O  O407  1  0.61893974  0.00286731  0.01129672  1
  O  O408  1  0.61964373  0.00758394  0.50301566  1
  O  O409  1  0.62646517  0.50212854  0.00844419  1
  O  O410  1  0.61335450  0.51011996  0.49037206  1
  O  O411  1  0.38320878  0.36114360  0.11812733  1
  O  O412  1  0.37812019  0.36549146  0.62098028  1
  O  O413  1  0.36910294  0.87539932  0.11026139  1
  O  O414  1  0.37849523  0.87122416  0.61311202  1
  O  O415  1  0.86644720  0.38380622  0.10811605  1
  O  O416  1  0.86849073  0.37374445  0.61153049  1
  O  O417  1  0.86103836  0.86989051  0.18192553  1
  O  O418  1  0.86761803  0.86960105  0.61899149  1
  O  O419  1  0.13024722  0.13205819  0.38105148  1
  O  O420  1  0.13428924  0.13172769  0.88232285  1
  O  O421  1  0.11903978  0.63330672  0.38760254  1
  O  O422  1  0.13409960  0.63272052  0.87635158  1
  O  O423  1  0.62882462  0.13402987  0.38284621  1
  O  O424  1  0.62177468  0.12986949  0.88280781  1
  O  O425  1  0.62261640  0.63968119  0.38478002  1
  O  O426  1  0.62252967  0.62798148  0.88471368  1
