# generated using pymatgen
data_V85Zn86O256
_symmetry_space_group_name_H-M   'P 1'
_cell_length_a   16.92437623
_cell_length_b   16.91829360
_cell_length_c   16.92882058
_cell_angle_alpha   89.94305518
_cell_angle_beta   89.97896579
_cell_angle_gamma   90.01044441
_symmetry_Int_Tables_number   1
_chemical_formula_structural   V85Zn86O256
_chemical_formula_sum   'V85 Zn86 O256'
_cell_volume   4847.25290479
_cell_formula_units_Z   1
loop_
 _symmetry_equiv_pos_site_id
 _symmetry_equiv_pos_as_xyz
  1  'x, y, z'
loop_
 _atom_site_type_symbol
 _atom_site_label
 _atom_site_symmetry_multiplicity
 _atom_site_fract_x
 _atom_site_fract_y
 _atom_site_fract_z
 _atom_site_occupancy
  V  V0  1  0.24823989  0.25312860  -0.00877385  1
  V  V1  1  0.87542388  0.25089327  0.12415220  1
  V  V2  1  0.75042794  -0.00890899  0.74597716  1
  V  V3  1  0.62721159  0.74716535  0.37580865  1
  V  V4  1  0.00442662  0.36948357  0.87432486  1
  V  V5  1  0.75743298  0.63549421  0.87263849  1
  V  V6  1  0.12494506  0.25223286  0.37513201  1
  V  V7  1  0.24909529  0.50698337  0.25638741  1
  V  V8  1  0.49553696  0.11131141  0.62834933  1
  V  V9  1  -0.00081120  0.50161400  -0.00191321  1
  V  V10  1  0.00089091  -0.00354895  0.50034753  1
  V  V11  1  0.62195316  0.25053432  0.37908811  1
  V  V12  1  0.00637887  0.87463982  0.87045022  1
  V  V13  1  0.12866546  0.62588607  0.48530627  1
  V  V14  1  0.75162470  0.75503600  0.50453843  1
  V  V15  1  0.50144955  0.74986854  0.25134840  1
  V  V16  1  0.50104131  0.87782473  0.38475391  1
  V  V17  1  0.87502658  0.62514301  0.25565127  1
  V  V18  1  0.37542426  0.75205802  0.12490478  1
  V  V19  1  0.75551984  0.49888248  0.26019778  1
  V  V20  1  0.24291397  0.85861333  0.63654811  1
  V  V21  1  0.62521306  0.25189865  0.86938233  1
  V  V22  1  0.75113698  0.37869579  0.12410243  1
  V  V23  1  0.62299498  0.37630631  0.25070952  1
  V  V24  1  0.74757616  0.37884026  0.63320946  1
  V  V25  1  0.74805805  0.12271425  0.37655996  1
  V  V26  1  -0.00006095  0.12472345  0.62424682  1
  V  V27  1  0.37562127  -0.00107423  0.37646370  1
  V  V28  1  0.87614118  0.12344975  0.74886838  1
  V  V29  1  0.87420302  -0.00618100  0.37317662  1
  V  V30  1  0.37349609  0.50628887  0.38092718  1
  V  V31  1  0.48987278  0.63212608  0.62866827  1
  V  V32  1  0.00176356  0.12358602  0.12328955  1
  V  V33  1  0.74877606  0.12500273  0.87358111  1
  V  V34  1  0.12591003  0.12738116  -0.00845201  1
  V  V35  1  0.61802666  0.75449876  0.88192684  1
  V  V36  1  0.25165769  0.51291185  0.75139177  1
  V  V37  1  0.61602298  0.87301332  0.75139064  1
  V  V38  1  0.25273847  0.37754667  0.12385046  1
  V  V39  1  0.50040626  0.24580027  0.75009742  1
  V  V40  1  0.37766476  0.88117631  -0.00949505  1
  V  V41  1  0.37855547  0.24706926  0.12601132  1
  V  V42  1  0.24602465  0.37943087  0.62726487  1
  V  V43  1  0.74286388  0.87292257  0.11766918  1
  V  V44  1  0.12761940  0.74993704  0.86712306  1
  V  V45  1  0.37836392  0.37925461  0.50398337  1
  V  V46  1  0.87680566  -0.00250850  0.87847448  1
  V  V47  1  0.13220760  0.62442936  -0.00499203  1
  V  V48  1  0.87427083  0.12307872  0.24928026  1
  V  V49  1  0.01035120  0.75468078  0.24987181  1
  V  V50  1  0.61778191  0.11930458  0.50196924  1
  V  V51  1  0.12656485  0.50195278  0.12352366  1
  V  V52  1  0.87680782  0.25396417  0.62482791  1
  V  V53  1  0.49909681  0.38026401  0.37992651  1
  V  V54  1  0.12518132  0.37729485  0.25145052  1
  V  V55  1  0.01415957  0.87222547  0.37073830  1
  V  V56  1  0.37783232  0.51364971  0.87251871  1
  V  V57  1  0.61458866  0.49621761  0.63180942  1
  V  V58  1  0.87258087  0.74843592  0.63452185  1
  V  V59  1  0.12801164  -0.00061530  0.13566717  1
  V  V60  1  0.87234460  0.75013144  0.12106562  1
  V  V61  1  0.50926826  0.00050374  0.00081137  1
  V  V62  1  0.24761807  0.88149827  0.13437363  1
  V  V63  1  0.50432997  0.37950095  0.86970679  1
  V  V64  1  0.37455985  0.62510797  0.25214705  1
  V  V65  1  0.74903075  0.25031041  0.50343590  1
  V  V66  1  0.87599112  0.50295583  0.86333023  1
  V  V67  1  0.24815027  0.01150455  0.74891196  1
  V  V68  1  0.62159427  0.61825804  0.50315512  1
  V  V69  1  0.25005106  0.74890936  0.47765591  1
  V  V70  1  0.37510358  0.24346451  0.62985670  1
  V  V71  1  0.13024646  0.37125653  0.75438479  1
  V  V72  1  0.62638595  -0.00764644  0.62315140  1
  V  V73  1  0.00503070  0.61974950  0.63263338  1
  V  V74  1  0.25034360  0.24967488  0.50051094  1
  V  V75  1  -0.00420790  0.50395662  0.49326510  1
  V  V76  1  0.50121276  0.61850123  0.12052668  1
  V  V77  1  0.38554643  0.37936158  -0.00154273  1
  V  V78  1  0.73977607  -0.00190555  0.24478781  1
  V  V79  1  0.62760010  0.61781435  -0.00213505  1
  V  V80  1  0.00030026  0.25121335  0.25054865  1
  V  V81  1  0.74914067  0.25135850  -0.00125618  1
  V  V82  1  0.12517938  0.12511923  0.50041995  1
  V  V83  1  0.24990670  0.11999056  0.36617562  1
  V  V84  1  0.25000253  0.75103492  -0.00282367  1
  Zn  Zn85  1  0.62117941  0.87622818  0.24703246  1
  Zn  Zn86  1  -0.00113603  0.62730729  0.12415633  1
  Zn  Zn87  1  0.62164330  0.49736005  0.12090173  1
  Zn  Zn88  1  0.87441232  0.37824218  -0.00257877  1
  Zn  Zn89  1  0.12015455  -0.01060192  0.63363596  1
  Zn  Zn90  1  0.37454820  0.11694601  0.24529531  1
  Zn  Zn91  1  0.00679699  0.24775324  0.75322520  1
  Zn  Zn92  1  0.86882094  0.38785619  0.49494113  1
  Zn  Zn93  1  0.74906428  0.50367226  0.74967520  1
  Zn  Zn94  1  0.37353042  0.87059636  0.50244977  1
  Zn  Zn95  1  0.75387637  0.62034442  0.38076751  1
  Zn  Zn96  1  0.51198462  0.11420672  0.13297475  1
  Zn  Zn97  1  0.87471794  0.87195383  0.50389910  1
  Zn  Zn98  1  0.25372509  0.13058203  0.87037293  1
  Zn  Zn99  1  0.00074607  0.74913565  0.75009042  1
  Zn  Zn100  1  0.87473702  0.86706129  -0.00254718  1
  Zn  Zn101  1  0.00430391  -0.00412569  0.00101719  1
  Zn  Zn102  1  0.62767815  0.12265619  0.00601100  1
  Zn  Zn103  1  0.38013735  0.01061071  0.86538341  1
  Zn  Zn104  1  0.48693853  0.74231735  0.75524773  1
  Zn  Zn105  1  0.49590544  0.24784446  0.25157437  1
  Zn  Zn106  1  -0.00747124  0.38124874  0.37286214  1
  Zn  Zn107  1  0.18893827  0.18944508  0.18236061  1
  Zn  Zn108  1  0.18526852  0.18836600  0.68579416  1
  Zn  Zn109  1  0.18858821  0.68769094  0.18287975  1
  Zn  Zn110  1  0.18366572  0.68402580  0.68112808  1
  Zn  Zn111  1  0.68602938  0.19051890  0.18919739  1
  Zn  Zn112  1  0.68640731  0.18425610  0.68876134  1
  Zn  Zn113  1  0.68860282  0.68718686  0.18669934  1
  Zn  Zn114  1  0.68491230  0.68704345  0.69090461  1
  Zn  Zn115  1  0.31145265  0.31477192  0.31290130  1
  Zn  Zn116  1  0.31866973  0.31349934  0.81191131  1
  Zn  Zn117  1  0.31421999  0.81506444  0.31222900  1
  Zn  Zn118  1  0.30666963  0.80766254  0.81232690  1
  Zn  Zn119  1  0.81251858  0.31247746  0.31487340  1
  Zn  Zn120  1  0.81674401  0.31483483  0.81093404  1
  Zn  Zn121  1  0.81296532  0.81152524  0.30915613  1
  Zn  Zn122  1  0.81129235  0.81349681  0.81113444  1
  Zn  Zn123  1  0.18367527  0.44211895  0.44059916  1
  Zn  Zn124  1  0.19237539  0.43866344  0.93325399  1
  Zn  Zn125  1  0.18912317  0.93861846  0.43732028  1
  Zn  Zn126  1  0.18926852  0.94006774  0.93757227  1
  Zn  Zn127  1  0.68696341  0.43757234  0.44404841  1
  Zn  Zn128  1  0.68794424  0.44026971  0.93456414  1
  Zn  Zn129  1  0.68631608  0.93493166  0.43765204  1
  Zn  Zn130  1  0.68921141  0.93557264  0.93613954  1
  Zn  Zn131  1  0.31280312  0.06375464  0.05845223  1
  Zn  Zn132  1  0.31155323  0.05430754  0.56316792  1
  Zn  Zn133  1  0.31551310  0.56250701  0.05974387  1
  Zn  Zn134  1  0.30706388  0.56503921  0.56284860  1
  Zn  Zn135  1  0.80948442  0.06105147  0.06210343  1
  Zn  Zn136  1  0.81159649  0.06134473  0.56200822  1
  Zn  Zn137  1  0.81241199  0.56498656  0.06051221  1
  Zn  Zn138  1  0.81329335  0.56850256  0.56621423  1
  Zn  Zn139  1  0.43704804  0.43688067  0.19032786  1
  Zn  Zn140  1  0.43652110  0.43710923  0.69128580  1
  Zn  Zn141  1  0.43513044  0.93780976  0.18926558  1
  Zn  Zn142  1  0.40973205  0.89716334  0.70581311  1
  Zn  Zn143  1  0.93737478  0.43955672  0.18690174  1
  Zn  Zn144  1  0.94193860  0.43866798  0.68442122  1
  Zn  Zn145  1  0.93580936  0.93538789  0.18525555  1
  Zn  Zn146  1  0.93720797  0.93156185  0.68841938  1
  Zn  Zn147  1  0.06213605  0.06246667  0.31336104  1
  Zn  Zn148  1  0.06585538  0.06024610  0.81163279  1
  Zn  Zn149  1  0.05925297  0.56640977  0.31151607  1
  Zn  Zn150  1  0.06977529  0.55915885  0.81235278  1
  Zn  Zn151  1  0.55646704  0.06242808  0.31348110  1
  Zn  Zn152  1  0.55951766  0.06041884  0.81586223  1
  Zn  Zn153  1  0.56246888  0.56139236  0.31300115  1
  Zn  Zn154  1  0.56325795  0.56519836  0.80993139  1
  Zn  Zn155  1  0.43605828  0.18666376  0.44003070  1
  Zn  Zn156  1  0.43753810  0.18358585  0.93986551  1
  Zn  Zn157  1  0.43916849  0.68714880  0.44352408  1
  Zn  Zn158  1  0.44003594  0.69005328  0.94224530  1
  Zn  Zn159  1  0.93573164  0.18970564  0.43691409  1
  Zn  Zn160  1  0.93642200  0.18687760  0.93886915  1
  Zn  Zn161  1  0.93866359  0.68858589  0.43710772  1
  Zn  Zn162  1  0.94103668  0.68701565  0.93735837  1
  Zn  Zn163  1  0.06434162  0.31401875  0.06187269  1
  Zn  Zn164  1  0.06299870  0.31741606  0.56353050  1
  Zn  Zn165  1  0.06225169  0.81479640  0.05971437  1
  Zn  Zn166  1  0.06430016  0.80615992  0.55965388  1
  Zn  Zn167  1  0.56382039  0.30873048  0.06050953  1
  Zn  Zn168  1  0.56090166  0.31276656  0.56561403  1
  Zn  Zn169  1  0.56080538  0.81096977  0.05998155  1
  Zn  Zn170  1  0.56443047  0.81021661  0.56381552  1
  O  O171  1  0.11994605  0.11963039  0.11927620  1
  O  O172  1  0.11432693  0.12637082  0.61579958  1
  O  O173  1  0.12273483  0.61900505  0.11322900  1
  O  O174  1  0.10852017  0.62917686  0.61279306  1
  O  O175  1  0.62464072  0.13262695  0.11950304  1
  O  O176  1  0.61920794  0.11620958  0.61979448  1
  O  O177  1  0.62020791  0.62497849  0.11626094  1
  O  O178  1  0.62073365  0.61396664  0.62075218  1
  O  O179  1  0.38056751  0.38165452  0.38326077  1
  O  O180  1  0.38731118  0.37888704  0.88129349  1
  O  O181  1  0.38172250  0.88223499  0.37692071  1
  O  O182  1  0.36896817  0.87788901  0.89052250  1
  O  O183  1  0.88152697  0.36070024  0.38576813  1
  O  O184  1  0.88307377  0.38559160  0.87615859  1
  O  O185  1  0.87885066  0.88575284  0.37477502  1
  O  O186  1  0.87915361  0.88149814  0.87697887  1
  O  O187  1  0.25787766  0.00937568  0.37635321  1
  O  O188  1  0.24798335  0.00256978  0.86150854  1
  O  O189  1  0.25888428  0.49436207  0.36584872  1
  O  O190  1  0.26489507  0.49727094  0.86329177  1
  O  O191  1  0.75655491  0.00296987  0.36950472  1
  O  O192  1  0.75711200  0.00440884  0.86821610  1
  O  O193  1  0.74691783  0.49811650  0.36404543  1
  O  O194  1  0.75981757  0.50754592  0.87247227  1
  O  O195  1  0.24685022  0.49518350  0.13124803  1
  O  O196  1  0.26040953  0.49114607  0.64041967  1
  O  O197  1  0.24540051  0.98908412  0.12234776  1
  O  O198  1  0.24040076  1.00141838  0.63594824  1
  O  O199  1  0.74911664  0.48900442  0.13111563  1
  O  O200  1  0.74351724  0.49511746  0.62694149  1
  O  O201  1  0.75632926  0.98637370  0.13369267  1
  O  O202  1  0.74106636  1.00545043  0.63472225  1
  O  O203  1  0.00696949  0.37008405  0.25022320  1
  O  O204  1  0.01114864  0.37733833  0.75611463  1
  O  O205  1  -0.00461719  0.86273322  0.25483620  1
  O  O206  1  -0.00156269  0.87105597  0.76475743  1
  O  O207  1  0.50788869  0.37342226  0.25896372  1
  O  O208  1  0.49654556  0.36001342  0.75747645  1
  O  O209  1  0.50077619  0.86513341  0.25880394  1
  O  O210  1  0.51639233  0.88550744  0.75228548  1
  O  O211  1  0.49400331  0.13027849  0.24823739  1
  O  O212  1  0.50502500  0.13581191  0.74229844  1
  O  O213  1  0.49553696  0.63163658  0.24500840  1
  O  O214  1  0.50160800  0.62615035  0.73485406  1
  O  O215  1  0.99419443  0.13062887  0.24338393  1
  O  O216  1  0.99535312  0.12660521  0.74323173  1
  O  O217  1  0.99249388  0.63503560  0.24649920  1
  O  O218  1  1.00767431  0.62311298  0.73631904  1
  O  O219  1  0.36923151  0.26045623  0.00780343  1
  O  O220  1  0.37000999  0.25795591  0.50896584  1
  O  O221  1  0.36977906  0.75980317  0.00459534  1
  O  O222  1  0.35539312  0.74758648  0.49334433  1
  O  O223  1  0.86784514  0.25396385  0.00655701  1
  O  O224  1  0.86665192  0.24342515  0.51391164  1
  O  O225  1  0.88034195  0.74567759  0.01645712  1
  O  O226  1  0.86728876  0.74895005  0.50654337  1
  O  O227  1  0.12852040  0.24643885  0.49417981  1
  O  O228  1  0.13652170  0.24237471  1.00891058  1
  O  O229  1  0.13328572  0.73607547  0.49707921  1
  O  O230  1  0.13236053  0.74261093  0.99623728  1
  O  O231  1  0.62992221  0.24300510  0.49817314  1
  O  O232  1  0.63201212  0.25111090  0.98618277  1
  O  O233  1  0.63218089  0.74253213  0.49487042  1
  O  O234  1  0.62316517  0.74264063  0.98701531  1
  O  O235  1  0.48679980  0.25339546  0.12570468  1
  O  O236  1  0.49500033  0.24282730  0.63257573  1
  O  O237  1  0.49553918  0.74311779  0.13238690  1
  O  O238  1  0.50498607  0.73542864  0.62685383  1
  O  O239  1  0.99520540  0.24581706  0.13067059  1
  O  O240  1  0.99184775  0.24566673  0.62454177  1
  O  O241  1  0.99325339  0.75232755  0.13459812  1
  O  O242  1  0.99277309  0.74036890  0.62710441  1
  O  O243  1  0.01038159  0.24623766  0.36782010  1
  O  O244  1  -0.00779906  0.26565112  0.87397928  1
  O  O245  1  -0.00535889  0.75877172  0.36037424  1
  O  O246  1  0.00825453  0.75513298  0.87334559  1
  O  O247  1  0.50388066  0.26164603  0.37653513  1
  O  O248  1  0.50700071  0.25407162  0.86975714  1
  O  O249  1  0.50960622  0.75280306  0.37134550  1
  O  O250  1  0.51446991  0.74546299  0.87279541  1
  O  O251  1  0.24247688  0.13052445  0.49333548  1
  O  O252  1  0.24136100  0.13654121  1.00191067  1
  O  O253  1  0.23688462  0.63349275  0.50347561  1
  O  O254  1  0.24377311  0.63640610  1.00618387  1
  O  O255  1  0.73988399  0.12955479  0.49635690  1
  O  O256  1  0.75123013  0.13258255  0.99118065  1
  O  O257  1  0.74083989  0.63377610  0.49886434  1
  O  O258  1  0.74198771  0.62186266  0.98600051  1
  O  O259  1  0.25808576  0.37148356  0.00515201  1
  O  O260  1  0.25648965  0.37138603  0.50796728  1
  O  O261  1  0.26026432  0.87065636  0.00723856  1
  O  O262  1  0.24458873  0.85636342  0.49475460  1
  O  O263  1  0.74994881  0.37144884  0.00807591  1
  O  O264  1  0.75052671  0.36769573  0.51214393  1
  O  O265  1  0.75427615  0.87946723  0.01415680  1
  O  O266  1  0.75090147  0.85963456  0.49746324  1
  O  O267  1  0.13122320  0.49898385  0.24616767  1
  O  O268  1  0.14388199  0.48964757  0.75598298  1
  O  O269  1  0.12333542  1.00626357  0.23551665  1
  O  O270  1  0.13789007  0.99967389  0.74910070  1
  O  O271  1  0.63236555  0.48902518  0.24843200  1
  O  O272  1  0.62784178  0.50108004  0.73561969  1
  O  O273  1  0.63701578  0.99882107  0.25654573  1
  O  O274  1  0.63324029  0.99684862  0.74509998  1
  O  O275  1  0.37569581  0.00000229  0.26711446  1
  O  O276  1  0.35443274  -0.01060737  0.75106629  1
  O  O277  1  0.36740684  0.50412818  0.25829725  1
  O  O278  1  0.36566826  0.49561172  0.76245319  1
  O  O279  1  0.86799784  0.00441586  0.25664475  1
  O  O280  1  0.86901316  0.00156470  0.75760837  1
  O  O281  1  0.86686088  0.50941573  0.24536506  1
  O  O282  1  0.87641088  0.49935944  0.76043916  1
  O  O283  1  0.12210945  0.36909215  0.36971104  1
  O  O284  1  0.11690356  0.37968193  0.86790428  1
  O  O285  1  0.11271819  0.88386868  0.37043456  1
  O  O286  1  0.11735227  0.86347975  0.88524642  1
  O  O287  1  0.61695646  0.37361575  0.37292383  1
  O  O288  1  0.61239147  0.37064275  0.87858874  1
  O  O289  1  0.61774231  0.86634096  0.37317491  1
  O  O290  1  0.63331587  0.85993114  0.86984178  1
  O  O291  1  0.37254153  0.13613791  0.12622629  1
  O  O292  1  0.38386764  0.13208502  0.61567662  1
  O  O293  1  0.38298067  0.63160465  0.12804635  1
  O  O294  1  0.39225400  0.61821236  0.61735726  1
  O  O295  1  0.88082668  0.12920634  0.12880378  1
  O  O296  1  0.88105168  0.13001026  0.62979271  1
  O  O297  1  0.87467161  0.63192931  0.13420616  1
  O  O298  1  0.89064903  0.63734095  0.62005894  1
  O  O299  1  0.25947266  0.26000712  0.11827177  1
  O  O300  1  0.25836581  0.25530853  0.62031282  1
  O  O301  1  0.25331206  0.75966202  0.11519868  1
  O  O302  1  0.24651217  0.75710590  0.62022334  1
  O  O303  1  0.75545581  0.26268514  0.12260686  1
  O  O304  1  0.75456888  0.25592027  0.62333067  1
  O  O305  1  0.75765574  0.76343915  0.13157677  1
  O  O306  1  0.76320588  0.73981081  0.61988804  1
  O  O307  1  0.24378648  0.24630997  0.38186345  1
  O  O308  1  0.25289290  0.25565356  0.88803167  1
  O  O309  1  0.24797092  0.74730054  0.37837957  1
  O  O310  1  0.24277404  0.75396764  0.88853762  1
  O  O311  1  0.74161076  0.24164126  0.38167936  1
  O  O312  1  0.74479604  0.24811237  0.87629390  1
  O  O313  1  0.73941677  0.74842964  0.37958828  1
  O  O314  1  0.74398840  0.73992868  0.87419810  1
  O  O315  1  0.00758870  0.12627350  0.00770326  1
  O  O316  1  0.00307043  0.11693448  0.50371967  1
  O  O317  1  0.00813025  0.61399552  0.00148301  1
  O  O318  1  0.00780568  0.62002697  0.50231970  1
  O  O319  1  0.50327223  0.11164768  0.00602997  1
  O  O320  1  0.51202371  0.13060558  0.50988665  1
  O  O321  1  0.51001386  0.63001340  0.01095616  1
  O  O322  1  0.51368139  0.62856953  0.51100830  1
  O  O323  1  0.48707022  0.37201959  0.49573798  1
  O  O324  1  0.49069005  0.37323966  0.99316484  1
  O  O325  1  0.49596087  0.86484549  0.48841484  1
  O  O326  1  0.48567731  0.88121246  1.00494092  1
  O  O327  1  1.00289919  0.39542211  0.50392378  1
  O  O328  1  1.00247804  0.38604923  0.99274746  1
  O  O329  1  0.99869631  0.88075567  0.49027204  1
  O  O330  1  0.99442558  0.87673801  0.98850735  1
  O  O331  1  0.49158753  0.48753242  0.37169529  1
  O  O332  1  0.48915117  0.49279167  0.86465180  1
  O  O333  1  0.49105986  0.98990171  0.37579562  1
  O  O334  1  0.49593624  1.00141786  0.89196439  1
  O  O335  1  1.00145061  0.50110859  0.38823133  1
  O  O336  1  0.99488782  0.49520086  0.88006274  1
  O  O337  1  0.99178264  0.99529776  0.37959201  1
  O  O338  1  0.99324187  0.99364711  0.87573542  1
  O  O339  1  0.00640137  0.00533885  0.12289564  1
  O  O340  1  -0.00059028  0.00313631  0.61691292  1
  O  O341  1  0.00791307  0.50032070  0.11521075  1
  O  O342  1  -0.00313381  0.51421250  0.61526458  1
  O  O343  1  0.49218501  -0.00210517  0.10891230  1
  O  O344  1  0.50858251  0.01027755  0.63090966  1
  O  O345  1  0.50146493  0.51403907  0.13297498  1
  O  O346  1  0.51058930  0.50389252  0.62837848  1
  O  O347  1  0.24539631  0.38644979  0.24452457  1
  O  O348  1  0.24784592  0.37778117  0.74435991  1
  O  O349  1  0.25078455  0.86888114  0.23275955  1
  O  O350  1  0.24056949  0.87625506  0.73813519  1
  O  O351  1  0.74469853  0.37994698  0.24437911  1
  O  O352  1  0.75311944  0.37711490  0.73686119  1
  O  O353  1  0.74800010  0.88296372  0.24174973  1
  O  O354  1  0.74175980  0.88656782  0.75261102  1
  O  O355  1  0.25111026  0.13342093  0.26367939  1
  O  O356  1  0.24703652  0.11698523  0.75007752  1
  O  O357  1  0.25686258  0.61418910  0.24269140  1
  O  O358  1  0.24746819  0.61176705  0.74538499  1
  O  O359  1  0.75519637  0.11827652  0.25635388  1
  O  O360  1  0.75643657  0.11583468  0.75534176  1
  O  O361  1  0.75550260  0.61471334  0.25108076  1
  O  O362  1  0.74563245  0.62314667  0.76852779  1
  O  O363  1  0.36770247  0.11722837  0.37619375  1
  O  O364  1  0.36714463  0.12378172  0.88008777  1
  O  O365  1  0.38351749  0.61158955  0.37224302  1
  O  O366  1  0.38163956  0.61255901  0.87938901  1
  O  O367  1  0.86952634  0.11403554  0.37123319  1
  O  O368  1  0.87117913  0.11845047  0.86757701  1
  O  O369  1  0.87180627  0.63157034  0.36050423  1
  O  O370  1  0.86425579  0.62127494  0.87955719  1
  O  O371  1  0.13211586  0.38236220  0.13103923  1
  O  O372  1  0.14043094  0.37353710  0.63072250  1
  O  O373  1  0.13860910  0.88389525  0.11682543  1
  O  O374  1  0.13842102  0.87563343  0.61356442  1
  O  O375  1  0.63086908  0.37463510  0.13352424  1
  O  O376  1  0.63002594  0.38870171  0.61962609  1
  O  O377  1  0.63852673  0.86735741  0.12680028  1
  O  O378  1  0.62268085  0.88578057  0.63093288  1
  O  O379  1  0.12172895  0.25673206  0.25425462  1
  O  O380  1  0.12484742  0.26483907  0.74721594  1
  O  O381  1  0.10892637  0.74451373  0.24347983  1
  O  O382  1  0.12643968  0.74222592  0.76457228  1
  O  O383  1  0.62640205  0.26380814  0.26074937  1
  O  O384  1  0.61963390  0.24769938  0.76143160  1
  O  O385  1  0.61947242  0.74827742  0.26000439  1
  O  O386  1  0.62243901  0.75749963  0.75958637  1
  O  O387  1  0.37393432  0.25391090  0.23857283  1
  O  O388  1  0.38195982  0.25098431  0.73678398  1
  O  O389  1  0.38059213  0.74285677  0.24592526  1
  O  O390  1  0.38651324  0.78802689  0.74095604  1
  O  O391  1  0.87864850  0.24235711  0.24348355  1
  O  O392  1  0.87743244  0.24475217  0.73803680  1
  O  O393  1  0.88040784  0.74352660  0.24028514  1
  O  O394  1  0.87539164  0.74898740  0.73820882  1
  O  O395  1  0.36619172  0.49109462  0.49261091  1
  O  O396  1  0.36960134  0.49141090  0.98468924  1
  O  O397  1  0.37029300  0.99560206  0.48316438  1
  O  O398  1  0.37814396  0.98913550  0.99875463  1
  O  O399  1  0.88991496  0.50619817  0.50206567  1
  O  O400  1  0.88543663  0.50025001  0.99275310  1
  O  O401  1  0.88365920  0.99779302  0.49307004  1
  O  O402  1  0.87654154  1.00224596  0.98571265  1
  O  O403  1  0.12565718  0.01198340  0.00867323  1
  O  O404  1  0.11189989  0.00670043  0.49792092  1
  O  O405  1  0.12254344  0.50610821  0.00138060  1
  O  O406  1  0.11633471  0.51458841  0.50018385  1
  O  O407  1  0.61280261  -0.00397128  -0.00236176  1
  O  O408  1  0.63101003  0.00724715  0.50965533  1
  O  O409  1  0.62530340  0.51257226  0.00063743  1
  O  O410  1  0.62901731  0.50892382  0.51316276  1
  O  O411  1  0.37178633  0.37433088  0.11649889  1
  O  O412  1  0.36919123  0.36836410  0.61943110  1
  O  O413  1  0.36438013  0.87023238  0.11926662  1
  O  O414  1  0.34333076  0.88813067  0.61122831  1
  O  O415  1  0.86736281  0.37044223  0.12295131  1
  O  O416  1  0.86915703  0.36862914  0.62070298  1
  O  O417  1  0.86550586  0.86702153  0.12309525  1
  O  O418  1  0.88141823  0.85516355  0.62173768  1
  O  O419  1  0.13166557  0.13020878  0.38052088  1
  O  O420  1  0.12594900  0.12632970  0.88825132  1
  O  O421  1  0.12442350  0.62390902  0.38595382  1
  O  O422  1  0.12162735  0.63155659  0.88815935  1
  O  O423  1  0.62685345  0.12768427  0.38448985  1
  O  O424  1  0.63272003  0.13325851  0.87782371  1
  O  O425  1  0.62526302  0.62982929  0.38390516  1
  O  O426  1  0.63201268  0.63336718  0.87999651  1
