# generated using pymatgen
data_V85Zn86O256
_symmetry_space_group_name_H-M   'P 1'
_cell_length_a   16.93039929
_cell_length_b   16.93961777
_cell_length_c   16.91876017
_cell_angle_alpha   89.96208316
_cell_angle_beta   89.96614264
_cell_angle_gamma   90.00598322
_symmetry_Int_Tables_number   1
_chemical_formula_structural   V85Zn86O256
_chemical_formula_sum   'V85 Zn86 O256'
_cell_volume   4852.20530207
_cell_formula_units_Z   1
loop_
 _symmetry_equiv_pos_site_id
 _symmetry_equiv_pos_as_xyz
  1  'x, y, z'
loop_
 _atom_site_type_symbol
 _atom_site_label
 _atom_site_symmetry_multiplicity
 _atom_site_fract_x
 _atom_site_fract_y
 _atom_site_fract_z
 _atom_site_occupancy
  V  V0  1  0.62343946  0.12193465  0.50686784  1
  V  V1  1  0.38364987  0.62543862  0.74364141  1
  V  V2  1  -0.02023143  0.75259192  0.74969239  1
  V  V3  1  0.76150914  0.11408524  0.88151628  1
  V  V4  1  0.62827808  0.23615011  0.88381769  1
  V  V5  1  0.50248193  0.12648996  0.12128433  1
  V  V6  1  0.11914168  0.50484365  0.14016131  1
  V  V7  1  0.24405219  0.86989689  0.63108102  1
  V  V8  1  0.37164387  -0.00146787  0.36199571  1
  V  V9  1  0.49894193  0.37125942  0.87944219  1
  V  V10  1  0.12409660  0.00391938  0.61538977  1
  V  V11  1  0.62864906  0.00424451  0.11817692  1
  V  V12  1  0.75355964  -0.00008217  0.24988963  1
  V  V13  1  0.74923527  0.12535588  0.37251223  1
  V  V14  1  0.00511397  0.37360196  0.37106443  1
  V  V15  1  0.75505472  0.50336255  0.75070219  1
  V  V16  1  0.00175350  0.26444051  0.75445663  1
  V  V17  1  0.12277358  0.75689610  0.86379490  1
  V  V18  1  0.74925108  0.50244883  0.24694135  1
  V  V19  1  0.12718187  0.12989263  -0.00109929  1
  V  V20  1  0.00014035  0.50265378  -0.00661300  1
  V  V21  1  0.81308257  0.80806186  0.54799326  1
  V  V22  1  0.12561374  0.75039565  0.37574248  1
  V  V23  1  0.49685777  0.24792170  0.24847763  1
  V  V24  1  0.88262941  0.75196065  0.12649149  1
  V  V25  1  0.00081338  0.87633384  0.38123072  1
  V  V26  1  0.13129925  0.24980462  0.39279807  1
  V  V27  1  0.24363237  0.11892034  0.38071625  1
  V  V28  1  -0.00089606  0.50042250  0.50175088  1
  V  V29  1  0.24823774  0.61933243  0.37064375  1
  V  V30  1  0.87756083  -0.00009645  0.37936223  1
  V  V31  1  0.37322766  0.49376758  0.87657485  1
  V  V32  1  0.13070243  0.88032482  0.24984180  1
  V  V33  1  -0.00063086  0.00308742  -0.00830796  1
  V  V34  1  0.37695106  -0.00862063  0.87405879  1
  V  V35  1  0.12534732  0.62449819  0.50823111  1
  V  V36  1  0.74530144  0.62635705  0.37814190  1
  V  V37  1  0.49747121  0.87278224  0.37343902  1
  V  V38  1  -0.01584582  0.62790053  0.63111962  1
  V  V39  1  0.88127084  0.62988397  0.24695332  1
  V  V40  1  0.13476349  0.00460008  0.12766532  1
  V  V41  1  0.24650870  0.62511631  0.87442577  1
  V  V42  1  0.62359467  0.37570457  0.24796350  1
  V  V43  1  0.50039463  0.74709427  0.24587358  1
  V  V44  1  0.74369843  0.37419933  0.62575168  1
  V  V45  1  0.62340013  0.24865231  0.37428458  1
  V  V46  1  0.37573080  0.74981431  0.12158111  1
  V  V47  1  0.24628963  0.75231708  0.00084706  1
  V  V48  1  0.87760247  0.87915025  -0.00933121  1
  V  V49  1  0.23791964  -0.00451535  0.75360468  1
  V  V50  1  0.37377958  0.25701697  0.11908703  1
  V  V51  1  0.24015045  0.49401458  0.75042001  1
  V  V52  1  0.76021157  0.36847254  0.12300724  1
  V  V53  1  0.01155487  0.25159883  0.24872693  1
  V  V54  1  0.49985166  0.62530986  0.12123420  1
  V  V55  1  0.49585906  0.49600628  -0.00013025  1
  V  V56  1  0.24717356  0.38371944  0.13971301  1
  V  V57  1  0.50031811  0.24507309  0.74968131  1
  V  V58  1  0.75813326  -0.00471313  0.73597877  1
  V  V59  1  0.37471860  0.12030198  0.74866425  1
  V  V60  1  0.25293899  0.74626993  0.50566994  1
  V  V61  1  0.62404614  0.62753132  -0.00611181  1
  V  V62  1  0.87398942  0.49946509  0.37333633  1
  V  V63  1  0.50217365  -0.00280791  -0.00258999  1
  V  V64  1  0.74956602  0.87498901  0.12526612  1
  V  V65  1  0.74732499  0.24996824  0.50049062  1
  V  V66  1  0.75574450  0.62720554  0.87026057  1
  V  V67  1  0.36917914  0.49597664  0.37002670  1
  V  V68  1  -0.00184718  0.13073634  0.12229391  1
  V  V69  1  0.62342415  0.37215140  0.75143148  1
  V  V70  1  0.37358682  0.87332670  0.50133672  1
  V  V71  1  0.12218939  0.26714909  0.87208097  1
  V  V72  1  0.61993413  0.74688638  0.38202600  1
  V  V73  1  0.49649191  0.37320930  0.37777068  1
  V  V74  1  0.24207768  0.36573109  0.62331708  1
  V  V75  1  0.24865542  0.12717389  0.87695478  1
  V  V76  1  0.25299352  0.26472387  -0.00307209  1
  V  V77  1  0.50096300  -0.00211496  0.50119972  1
  V  V78  1  0.61697542  0.50890716  0.62896848  1
  V  V79  1  0.55986637  0.81679227  0.79203571  1
  V  V80  1  0.49597056  0.50451086  0.50396990  1
  V  V81  1  0.74811543  0.75045215  -0.00391406  1
  V  V82  1  0.87234567  0.37420600  0.49861911  1
  V  V83  1  0.87395280  0.24715117  0.62908441  1
  V  V84  1  0.87647630  0.13350016  0.24617421  1
  Zn  Zn85  1  0.49921480  0.11958100  0.62602217  1
  Zn  Zn86  1  0.11911615  0.49542745  0.63365143  1
  Zn  Zn87  1  0.00226319  0.88770153  0.86120090  1
  Zn  Zn88  1  0.00148763  0.75254230  0.24831735  1
  Zn  Zn89  1  0.00839922  0.13234268  0.62191910  1
  Zn  Zn90  1  0.75716200  0.24316438  0.00558288  1
  Zn  Zn91  1  0.36758346  0.36833929  0.50114491  1
  Zn  Zn92  1  0.39776331  0.74601525  0.63136404  1
  Zn  Zn93  1  0.88325728  0.11907847  0.75549336  1
  Zn  Zn94  1  0.36704452  0.12198380  0.24575243  1
  Zn  Zn95  1  0.62399126  0.62623724  0.50696906  1
  Zn  Zn96  1  0.87969689  0.49691992  0.87148685  1
  Zn  Zn97  1  0.37076258  0.61982293  0.24742172  1
  Zn  Zn98  1  0.62740747  0.87593124  0.25331043  1
  Zn  Zn99  1  0.00074576  0.00480053  0.50046848  1
  Zn  Zn100  1  0.36914308  0.24595676  0.61986091  1
  Zn  Zn101  1  0.62488986  0.49997159  0.12160337  1
  Zn  Zn102  1  0.11656691  0.62982451  0.00906339  1
  Zn  Zn103  1  0.37617757  0.87314357  -0.00283045  1
  Zn  Zn104  1  0.60915352  -0.04582092  0.65949134  1
  Zn  Zn105  1  0.25386496  0.88038190  0.12891086  1
  Zn  Zn106  1  0.88935960  0.36553703  -0.00756570  1
  Zn  Zn107  1  0.19022261  0.18884653  0.19192074  1
  Zn  Zn108  1  0.18375396  0.18622614  0.69233316  1
  Zn  Zn109  1  0.18679627  0.68953025  0.18932293  1
  Zn  Zn110  1  0.18862814  0.68336837  0.68966973  1
  Zn  Zn111  1  0.68480392  0.18705262  0.18601392  1
  Zn  Zn112  1  0.68973847  0.17789439  0.69508362  1
  Zn  Zn113  1  0.68651434  0.68845694  0.18461978  1
  Zn  Zn114  1  0.69511232  0.69431031  0.68328582  1
  Zn  Zn115  1  0.31062239  0.30659299  0.31370046  1
  Zn  Zn116  1  0.31237342  0.31343880  0.80810138  1
  Zn  Zn117  1  0.31107758  0.80791949  0.31175442  1
  Zn  Zn118  1  0.31256797  0.81009416  0.81103115  1
  Zn  Zn119  1  0.81469713  0.31173741  0.30968656  1
  Zn  Zn120  1  0.81261141  0.31281996  0.81646635  1
  Zn  Zn121  1  0.80504675  0.81974956  0.33638934  1
  Zn  Zn122  1  0.80630619  0.81722791  0.81213867  1
  Zn  Zn123  1  0.18517493  0.43638504  0.44097640  1
  Zn  Zn124  1  0.18355029  0.44336711  0.94544434  1
  Zn  Zn125  1  0.19056591  0.93579288  0.43776168  1
  Zn  Zn126  1  0.18517711  0.93573269  0.93910144  1
  Zn  Zn127  1  0.68269684  0.43985855  0.43801756  1
  Zn  Zn128  1  0.68823500  0.43615810  0.93572495  1
  Zn  Zn129  1  0.67472266  0.91380537  0.47400762  1
  Zn  Zn130  1  0.68545465  0.93522819  0.92999860  1
  Zn  Zn131  1  0.31521992  0.06821142  0.05952250  1
  Zn  Zn132  1  0.31087549  0.06036363  0.56080791  1
  Zn  Zn133  1  0.31012438  0.56376504  0.06084302  1
  Zn  Zn134  1  0.31261117  0.55597743  0.56508811  1
  Zn  Zn135  1  0.81683341  0.06552232  0.05956526  1
  Zn  Zn136  1  0.81526974  0.06344799  0.56067811  1
  Zn  Zn137  1  0.81646373  0.56325351  0.06275810  1
  Zn  Zn138  1  0.80756351  0.56262704  0.56240036  1
  Zn  Zn139  1  0.43431009  0.43616875  0.18650253  1
  Zn  Zn140  1  0.43092500  0.43435454  0.68937453  1
  Zn  Zn141  1  0.44217814  0.93239126  0.18301714  1
  Zn  Zn142  1  0.43589864  0.92613178  0.68663779  1
  Zn  Zn143  1  0.94104153  0.43912741  0.18744945  1
  Zn  Zn144  1  0.93387584  0.43709422  0.68622296  1
  Zn  Zn145  1  0.94301233  0.94077690  0.18709890  1
  Zn  Zn146  1  0.92966449  0.93136360  0.67937582  1
  Zn  Zn147  1  0.06587014  0.06472377  0.31273535  1
  Zn  Zn148  1  0.06163991  0.07379409  0.80891542  1
  Zn  Zn149  1  0.06263484  0.56373026  0.31475088  1
  Zn  Zn150  1  0.06113740  0.56925175  0.81520341  1
  Zn  Zn151  1  0.56235665  0.06065844  0.31036102  1
  Zn  Zn152  1  0.56484545  0.05261865  0.81183825  1
  Zn  Zn153  1  0.55785606  0.56061309  0.31202605  1
  Zn  Zn154  1  0.56591276  0.56362625  0.81544323  1
  Zn  Zn155  1  0.43092969  0.18331205  0.43777639  1
  Zn  Zn156  1  0.43650316  0.18206858  0.93774641  1
  Zn  Zn157  1  0.43472208  0.68439146  0.43907576  1
  Zn  Zn158  1  0.43564632  0.68731823  0.92726157  1
  Zn  Zn159  1  0.94081693  0.18526991  0.44082616  1
  Zn  Zn160  1  0.93641541  0.19571662  0.93901987  1
  Zn  Zn161  1  0.94005635  0.68511718  0.43353603  1
  Zn  Zn162  1  0.93726301  0.68417893  0.93922620  1
  Zn  Zn163  1  0.06700742  0.31830943  0.06369190  1
  Zn  Zn164  1  0.06096343  0.31607690  0.56549195  1
  Zn  Zn165  1  0.06420285  0.81771786  0.06040042  1
  Zn  Zn166  1  0.05911384  0.81294242  0.56654091  1
  Zn  Zn167  1  0.56597059  0.31404181  0.06154780  1
  Zn  Zn168  1  0.55517402  0.31168238  0.56294741  1
  Zn  Zn169  1  0.55945080  0.81161848  -0.03936069  1
  Zn  Zn170  1  0.56393239  0.80566331  0.57607042  1
  O  O171  1  0.12227025  0.12230064  0.11981750  1
  O  O172  1  0.12909821  0.10777264  0.62858032  1
  O  O173  1  0.13727634  0.60876796  0.12560382  1
  O  O174  1  0.11924916  0.62211151  0.61637521  1
  O  O175  1  0.61688921  0.11670658  0.12609787  1
  O  O176  1  0.62431237  0.13004147  0.60994570  1
  O  O177  1  0.61911330  0.62175156  0.11399328  1
  O  O178  1  0.62625514  0.61224515  0.62743509  1
  O  O179  1  0.37837663  0.37905320  0.37642532  1
  O  O180  1  0.38039727  0.38687137  0.87066602  1
  O  O181  1  0.37607500  0.87929265  0.38013982  1
  O  O182  1  0.37201821  0.88745677  0.87405413  1
  O  O183  1  0.88073349  0.38026968  0.37900007  1
  O  O184  1  0.85567626  0.38733112  0.88475013  1
  O  O185  1  0.89206059  0.88881084  0.35780690  1
  O  O186  1  0.88047354  0.87124278  0.88811307  1
  O  O187  1  0.25568181  0.00907909  0.37573389  1
  O  O188  1  0.25476073  0.00366173  0.87048816  1
  O  O189  1  0.25632040  0.50650397  0.38259941  1
  O  O190  1  0.25497639  0.50540772  0.87345421  1
  O  O191  1  0.75813564  0.00682181  0.35897258  1
  O  O192  1  0.74688591  0.01241583  0.87180521  1
  O  O193  1  0.75246650  0.50164683  0.36271490  1
  O  O194  1  0.74180952  0.50983735  0.86436472  1
  O  O195  1  0.24699588  0.48863768  0.12225417  1
  O  O196  1  0.24575814  0.49225965  0.63617424  1
  O  O197  1  0.23936400  1.00208433  0.11813308  1
  O  O198  1  0.24153265  0.99358684  0.63260867  1
  O  O199  1  0.74837914  0.49323516  0.13560535  1
  O  O200  1  0.73910000  0.49447881  0.63102331  1
  O  O201  1  0.74789153  0.99865222  0.13121753  1
  O  O202  1  0.75168867  1.00573993  0.63430064  1
  O  O203  1  -0.00617127  0.36667829  0.26279063  1
  O  O204  1  -0.00262271  0.36426492  0.74788459  1
  O  O205  1  0.01417249  0.87584718  0.25624425  1
  O  O206  1  -0.00729078  0.85793806  0.74761494  1
  O  O207  1  0.50685493  0.37070678  0.25558444  1
  O  O208  1  0.50270393  0.36433725  0.75848188  1
  O  O209  1  0.50356693  0.86495627  0.25497531  1
  O  O210  1  0.52907834  0.90989552  0.75132207  1
  O  O211  1  0.49754591  0.13003501  0.23809386  1
  O  O212  1  0.49221976  0.12751629  0.75001778  1
  O  O213  1  0.49712843  0.62995285  0.24088194  1
  O  O214  1  0.48216030  0.61657955  0.75773689  1
  O  O215  1  0.99590460  0.13215265  0.24331367  1
  O  O216  1  0.99743568  0.13895980  0.74113841  1
  O  O217  1  0.98495832  0.62912898  0.25790971  1
  O  O218  1  0.99972286  0.63166733  0.73789133  1
  O  O219  1  0.36651754  0.24624279  0.00692434  1
  O  O220  1  0.39209076  0.25732263  0.50875673  1
  O  O221  1  0.36870928  0.75019527  0.00422035  1
  O  O222  1  0.37304195  0.75396595  0.50949050  1
  O  O223  1  0.87072338  0.25456330  0.00522371  1
  O  O224  1  0.86666595  0.25659516  0.50572976  1
  O  O225  1  0.86983602  0.75724950  0.00852032  1
  O  O226  1  0.88328287  0.75016013  0.50372152  1
  O  O227  1  0.11907063  0.24815159  0.49093130  1
  O  O228  1  0.13249980  0.24831433  0.99377987  1
  O  O229  1  0.12952622  0.74187791  0.49676893  1
  O  O230  1  0.13078031  0.74763719  0.99543788  1
  O  O231  1  0.62669817  0.24286227  0.49329528  1
  O  O232  1  0.62886587  0.25215365  0.98634963  1
  O  O233  1  0.60630134  0.74086108  0.48538164  1
  O  O234  1  0.63589671  0.74115279  1.00623427  1
  O  O235  1  0.49428974  0.24573424  0.12568197  1
  O  O236  1  0.50213054  0.24545561  0.64184818  1
  O  O237  1  0.49098266  0.74113630  0.13100157  1
  O  O238  1  0.49905511  0.78581680  0.66374007  1
  O  O239  1  1.01167552  0.24049387  0.13327230  1
  O  O240  1  0.99135819  0.25481732  0.63461484  1
  O  O241  1  0.98655181  0.75812186  0.12663275  1
  O  O242  1  1.00311656  0.73872431  0.63814226  1
  O  O243  1  0.00854783  0.25552204  0.37148764  1
  O  O244  1  0.00716638  0.24951481  0.86338180  1
  O  O245  1  0.00817509  0.75861855  0.37299109  1
  O  O246  1  0.00407088  0.74431477  0.86118826  1
  O  O247  1  0.50408711  0.25401900  0.36720122  1
  O  O248  1  0.50926886  0.24771634  0.87009453  1
  O  O249  1  0.50002694  0.75047007  0.36489856  1
  O  O250  1  0.50086151  0.76330569  0.86496374  1
  O  O251  1  0.26084096  0.12609222  0.48073355  1
  O  O252  1  0.24541003  0.13746939  0.99502949  1
  O  O253  1  0.24267031  0.62694486  0.49753920  1
  O  O254  1  0.25044085  0.63659830  0.99066830  1
  O  O255  1  0.74196732  0.12988858  0.49219184  1
  O  O256  1  0.75007708  0.12428129  0.98758105  1
  O  O257  1  0.74356584  0.61286616  0.48200394  1
  O  O258  1  0.74340123  0.63127866  0.99715605  1
  O  O259  1  0.24879765  0.36695406  0.00828292  1
  O  O260  1  0.24880279  0.37909288  0.51858919  1
  O  O261  1  0.25244232  0.86292983  0.00227325  1
  O  O262  1  0.25661574  0.86636878  0.50533778  1
  O  O263  1  0.74284133  0.37864067  0.01982368  1
  O  O264  1  0.75073841  0.36954639  0.50409312  1
  O  O265  1  0.75647071  0.87001122  0.00449729  1
  O  O266  1  0.77124513  0.85661049  0.46264434  1
  O  O267  1  0.12254353  0.50146092  0.24017099  1
  O  O268  1  0.13653574  0.50639737  0.75390018  1
  O  O269  1  0.12269627  0.99494592  0.23968164  1
  O  O270  1  0.13532901  1.00190993  0.74718958  1
  O  O271  1  0.63150597  0.49225951  0.24908729  1
  O  O272  1  0.62706822  0.49232168  0.74470607  1
  O  O273  1  0.63580305  1.00028336  0.24012476  1
  O  O274  1  0.64716670  1.02059950  0.74263972  1
  O  O275  1  0.37833342  -0.00411978  0.25887198  1
  O  O276  1  0.36814458  0.00408204  0.75584607  1
  O  O277  1  0.37959219  0.50114623  0.26507231  1
  O  O278  1  0.36485375  0.50706139  0.75812798  1
  O  O279  1  0.87158996  0.01258581  0.25193324  1
  O  O280  1  0.86684364  0.00310684  0.74511757  1
  O  O281  1  0.86815048  0.50799933  0.25358772  1
  O  O282  1  0.85832422  0.49889684  0.74744581  1
  O  O283  1  0.11755676  0.36232904  0.38044872  1
  O  O284  1  0.13130217  0.36582523  0.87866566  1
  O  O285  1  0.12180392  0.87188918  0.36868474  1
  O  O286  1  0.11762585  0.86274705  0.88097704  1
  O  O287  1  0.61978305  0.37043020  0.36454866  1
  O  O288  1  0.62015358  0.36333399  0.86908227  1
  O  O289  1  0.61524333  0.86357010  0.37483100  1
  O  O290  1  0.61553745  0.86393164  0.87216944  1
  O  O291  1  0.38055499  0.13693337  0.12749771  1
  O  O292  1  0.37386767  0.12292995  0.63788534  1
  O  O293  1  0.37802933  0.63372391  0.12571624  1
  O  O294  1  0.37355128  0.62398598  0.63844394  1
  O  O295  1  0.88812093  0.12245777  0.13235472  1
  O  O296  1  0.87063338  0.14199045  0.62574504  1
  O  O297  1  0.86511475  0.63885100  0.13594685  1
  O  O298  1  0.88596080  0.62189350  0.62151785  1
  O  O299  1  0.25496834  0.25963873  0.11936562  1
  O  O300  1  0.24822061  0.26196932  0.63507295  1
  O  O301  1  0.25715258  0.74958288  0.11703500  1
  O  O302  1  0.24808366  0.75567379  0.62101365  1
  O  O303  1  0.74419416  0.26492021  0.12690850  1
  O  O304  1  0.75306481  0.25498164  0.62243686  1
  O  O305  1  0.75627879  0.75918515  0.11751740  1
  O  O306  1  0.74994927  0.74457183  0.59942564  1
  O  O307  1  0.23620014  0.24595818  0.37828100  1
  O  O308  1  0.24573899  0.24895624  0.88052451  1
  O  O309  1  0.24599788  0.74106460  0.38603169  1
  O  O310  1  0.24211511  0.74498713  0.87993059  1
  O  O311  1  0.74418257  0.24574669  0.37867665  1
  O  O312  1  0.73847185  0.23764479  0.87384251  1
  O  O313  1  0.73237730  0.73580547  0.36213841  1
  O  O314  1  0.75572239  0.74420610  0.88844042  1
  O  O315  1  0.00612197  0.12288655  0.00609609  1
  O  O316  1  -0.00625655  0.11804460  0.51033636  1
  O  O317  1  -0.00000837  0.61222571  0.00407884  1
  O  O318  1  0.00619660  0.62144742  0.51014871  1
  O  O319  1  0.49515348  0.11513501  0.01373095  1
  O  O320  1  0.50638693  0.11496445  0.49984536  1
  O  O321  1  0.50596778  0.62183765  0.00040344  1
  O  O322  1  0.50014383  0.60847127  0.49716708  1
  O  O323  1  0.50429279  0.38441678  0.48848258  1
  O  O324  1  0.50402922  0.38505414  0.99408432  1
  O  O325  1  0.48973443  0.87972098  0.49218516  1
  O  O326  1  0.49388511  0.89162507  1.00803178  1
  O  O327  1  0.99314892  0.37994139  0.49131414  1
  O  O328  1  1.00270585  0.39390244  1.00886624  1
  O  O329  1  1.00950379  0.88149399  0.48560877  1
  O  O330  1  0.99341869  0.88722625  1.00037756  1
  O  O331  1  0.49224334  0.49217058  0.38160493  1
  O  O332  1  0.49283599  0.49400669  0.88088789  1
  O  O333  1  0.49070718  0.99314320  0.37707338  1
  O  O334  1  0.49039863  1.01019490  0.88677576  1
  O  O335  1  0.99534769  0.49192574  0.37942968  1
  O  O336  1  0.99971627  0.50427804  0.88749555  1
  O  O337  1  0.99438766  0.99617957  0.37408272  1
  O  O338  1  1.00817682  1.00409706  0.88665886  1
  O  O339  1  0.01110082  0.01319021  0.11747762  1
  O  O340  1  0.01743012  -0.00747807  0.62649556  1
  O  O341  1  0.01509118  0.49995091  0.12504702  1
  O  O342  1  -0.00059488  0.51055288  0.62257416  1
  O  O343  1  0.50916376  0.00710130  0.12202666  1
  O  O344  1  0.50091168  -0.00130754  0.61157521  1
  O  O345  1  0.49772691  0.50634142  0.11692676  1
  O  O346  1  0.50587561  0.48931557  0.61771903  1
  O  O347  1  0.25136586  0.37241868  0.23794766  1
  O  O348  1  0.25197416  0.38475087  0.74173148  1
  O  O349  1  0.23649960  0.86936869  0.24881221  1
  O  O350  1  0.25357320  0.88311782  0.74288454  1
  O  O351  1  0.74386133  0.38049144  0.24315433  1
  O  O352  1  0.74049905  0.38151851  0.74464591  1
  O  O353  1  0.75233019  0.88491366  0.24496699  1
  O  O354  1  0.74949950  0.89587049  0.75584970  1
  O  O355  1  0.25349150  0.13382722  0.26948018  1
  O  O356  1  0.25589425  0.11684214  0.75738915  1
  O  O357  1  0.25048002  0.63044009  0.26743226  1
  O  O358  1  0.25528108  0.61452642  0.75846132  1
  O  O359  1  0.75872224  0.12199220  0.25017082  1
  O  O360  1  0.76088565  0.11958618  0.76366318  1
  O  O361  1  0.75341927  0.61655542  0.25499137  1
  O  O362  1  0.74112382  0.61801837  0.75924525  1
  O  O363  1  0.36928966  0.11357445  0.36866379  1
  O  O364  1  0.36819612  0.11613970  0.86625323  1
  O  O365  1  0.36434780  0.61528195  0.37665423  1
  O  O366  1  0.36421250  0.61549500  0.86891774  1
  O  O367  1  0.86920004  0.12032150  0.36599707  1
  O  O368  1  0.86440422  0.12640502  0.87667410  1
  O  O369  1  0.86526427  0.61945980  0.36797447  1
  O  O370  1  0.85932646  0.61700909  0.88224441  1
  O  O371  1  0.13923434  0.38809461  0.12534750  1
  O  O372  1  0.13564124  0.37833392  0.62618578  1
  O  O373  1  0.12740732  0.88652854  0.13118489  1
  O  O374  1  0.13732948  0.88354085  0.62094295  1
  O  O375  1  0.62877775  0.37794759  0.13759267  1
  O  O376  1  0.62722264  0.37904193  0.63228932  1
  O  O377  1  0.64356479  0.88546677  0.12952765  1
  O  O378  1  0.64196857  0.88493660  0.58088821  1
  O  O379  1  0.11407640  0.24653039  0.26238410  1
  O  O380  1  0.11189454  0.24994807  0.75776713  1
  O  O381  1  0.12228297  0.75655993  0.25781946  1
  O  O382  1  0.12101289  0.74426885  0.76126591  1
  O  O383  1  0.61772485  0.25707373  0.25367519  1
  O  O384  1  0.61871815  0.25047494  0.75997482  1
  O  O385  1  0.61185446  0.74908257  0.25410436  1
  O  O386  1  0.63351923  0.76244730  0.75218172  1
  O  O387  1  0.38284246  0.25039908  0.24032949  1
  O  O388  1  0.38366083  0.23813657  0.75228885  1
  O  O389  1  0.38384434  0.74637126  0.24278851  1
  O  O390  1  0.36565857  0.72899838  0.75119313  1
  O  O391  1  0.88725152  0.23880780  0.25592097  1
  O  O392  1  0.88364318  0.25185590  0.74491043  1
  O  O393  1  0.87232651  0.74493008  0.24460608  1
  O  O394  1  0.88119093  0.74691767  0.75475932  1
  O  O395  1  0.38089290  0.49350541  0.49192425  1
  O  O396  1  0.38648628  0.50745109  0.99069451  1
  O  O397  1  0.38320523  0.99379930  0.49094597  1
  O  O398  1  0.38083820  0.99982223  0.99168862  1
  O  O399  1  0.87841632  0.49446424  0.49349833  1
  O  O400  1  0.89116495  0.49796018  1.00685979  1
  O  O401  1  0.87244499  1.00255644  0.48222831  1
  O  O402  1  0.88721939  0.99154081  1.00640831  1
  O  O403  1  0.11981666  0.00849428  0.00663753  1
  O  O404  1  0.12981517  -0.00016792  0.51322412  1
  O  O405  1  0.11462144  0.50641590  0.01013774  1
  O  O406  1  0.11487245  0.50851582  0.50220083  1
  O  O407  1  0.61947408  -0.00563944  0.01022042  1
  O  O408  1  0.61104173  0.01161009  0.48225184  1
  O  O409  1  0.61269454  0.50697694  -0.00039880  1
  O  O410  1  0.61576992  0.50018765  0.51078417  1
  O  O411  1  0.36461656  0.36597497  0.12599290  1
  O  O412  1  0.35903667  0.37144757  0.62650237  1
  O  O413  1  0.37246284  0.86162798  0.12403719  1
  O  O414  1  0.35972005  0.87626827  0.61755893  1
  O  O415  1  0.86104306  0.37747447  0.12993127  1
  O  O416  1  0.86532620  0.36702943  0.61867242  1
  O  O417  1  0.86673633  0.87195995  0.12045445  1
  O  O418  1  0.86290739  0.87290488  0.60877553  1
  O  O419  1  0.13432047  0.13383452  0.37671952  1
  O  O420  1  0.13202525  0.13567547  0.88115645  1
  O  O421  1  0.12921302  0.62835432  0.38699122  1
  O  O422  1  0.13592041  0.63292224  0.87949213  1
  O  O423  1  0.63025457  0.13147029  0.37732455  1
  O  O424  1  0.63140925  0.13410965  0.87321528  1
  O  O425  1  0.62906459  0.62854984  0.37314759  1
  O  O426  1  0.63288857  0.62471032  0.88757954  1
