# generated using pymatgen
data_V85Zn86O256
_symmetry_space_group_name_H-M   'P 1'
_cell_length_a   16.92374918
_cell_length_b   16.92554744
_cell_length_c   16.93175876
_cell_angle_alpha   90.02390055
_cell_angle_beta   90.06185915
_cell_angle_gamma   89.96834197
_symmetry_Int_Tables_number   1
_chemical_formula_structural   V85Zn86O256
_chemical_formula_sum   'V85 Zn86 O256'
_cell_volume   4849.99197269
_cell_formula_units_Z   1
loop_
 _symmetry_equiv_pos_site_id
 _symmetry_equiv_pos_as_xyz
  1  'x, y, z'
loop_
 _atom_site_type_symbol
 _atom_site_label
 _atom_site_symmetry_multiplicity
 _atom_site_fract_x
 _atom_site_fract_y
 _atom_site_fract_z
 _atom_site_occupancy
  V  V0  1  -0.01069690  0.87755746  0.87272880  1
  V  V1  1  0.12252959  0.00931568  0.11992036  1
  V  V2  1  0.37540072  0.39315972  0.49988027  1
  V  V3  1  0.13078005  0.74796544  0.37789254  1
  V  V4  1  0.75505087  0.49619966  0.25128301  1
  V  V5  1  0.12701717  0.49514840  0.12383308  1
  V  V6  1  0.26453341  0.37215551  0.12782789  1
  V  V7  1  0.25439110  0.86865671  0.62519120  1
  V  V8  1  0.87179848  0.37117809  0.49761377  1
  V  V9  1  0.63226065  0.24653551  0.87583262  1
  V  V10  1  0.87338955  0.74900905  0.12553103  1
  V  V11  1  0.74320369  0.87253413  0.13178832  1
  V  V12  1  0.74401070  0.88804922  0.61853886  1
  V  V13  1  -0.00183358  0.00490024  -0.00385175  1
  V  V14  1  -0.00262922  0.12964492  0.62887603  1
  V  V15  1  0.37639629  0.62796780  0.25705590  1
  V  V16  1  -0.00114435  0.49762201  0.49831028  1
  V  V17  1  0.63793036  0.75782829  0.37818244  1
  V  V18  1  0.12847925  0.61923956  0.50371023  1
  V  V19  1  0.36885105  0.87322298  -0.00274285  1
  V  V20  1  0.50131488  0.62136475  0.12063004  1
  V  V21  1  0.87237319  0.11911021  0.76128418  1
  V  V22  1  0.49932928  0.86685828  0.86826761  1
  V  V23  1  0.87511264  0.87388170  0.49803291  1
  V  V24  1  0.00005759  0.00154130  0.49896700  1
  V  V25  1  0.13092086  0.37138309  0.74152613  1
  V  V26  1  0.75015092  0.61867808  0.87882075  1
  V  V27  1  0.37904813  0.86813445  0.49905894  1
  V  V28  1  0.37894597  0.37507842  0.00227623  1
  V  V29  1  0.75062634  0.13106300  0.37876469  1
  V  V30  1  0.87681708  0.37304977  0.00407690  1
  V  V31  1  -0.00069651  0.37516040  0.37339826  1
  V  V32  1  0.49554340  0.12975037  0.12059139  1
  V  V33  1  0.24572379  0.87033379  0.12010481  1
  V  V34  1  0.74416938  0.00009254  0.76656913  1
  V  V35  1  0.62467012  0.37366631  0.75013232  1
  V  V36  1  0.87248154  0.12872285  0.23902236  1
  V  V37  1  -0.00328265  0.74897366  0.75226165  1
  V  V38  1  0.62236942  0.25108992  0.38124541  1
  V  V39  1  0.87415257  0.00265569  0.37202055  1
  V  V40  1  0.75553695  0.24445998  0.00726865  1
  V  V41  1  0.13101206  0.62643010  0.00032929  1
  V  V42  1  0.25186277  0.50147090  0.25681152  1
  V  V43  1  0.50119937  0.38265409  0.87906134  1
  V  V44  1  0.62770565  0.12322107  -0.00443808  1
  V  V45  1  0.50813579  0.76772601  0.24835765  1
  V  V46  1  0.49816389  0.24844774  0.75093632  1
  V  V47  1  0.24874507  0.49996804  0.73680370  1
  V  V48  1  0.00251225  0.87745611  0.37397859  1
  V  V49  1  0.49972017  0.25196611  0.25180907  1
  V  V50  1  0.38590090  0.63445328  0.74855483  1
  V  V51  1  0.12464659  0.87635676  0.24930934  1
  V  V52  1  0.62565896  0.12286127  0.50616687  1
  V  V53  1  0.62539751  0.49614883  0.12087405  1
  V  V54  1  0.87140899  0.75046467  0.62514891  1
  V  V55  1  0.12319490  0.87432555  0.74978490  1
  V  V56  1  0.12433508  -0.00165808  0.62576257  1
  V  V57  1  -0.00175999  0.25118562  0.24210231  1
  V  V58  1  0.00142129  0.74916811  0.24859013  1
  V  V59  1  0.74240170  0.74485719  0.00308492  1
  V  V60  1  0.87590517  0.62058465  0.75871492  1
  V  V61  1  -0.00401661  0.50076482  -0.00981607  1
  V  V62  1  0.61886975  0.50412028  0.61375471  1
  V  V63  1  -0.00168698  0.36920589  0.86710291  1
  V  V64  1  0.37142645  0.74816056  0.11975003  1
  V  V65  1  0.62213757  -0.00183308  0.13179044  1
  V  V66  1  0.38578696  -0.00271483  0.37588144  1
  V  V67  1  0.86950292  0.87766277  -0.00505361  1
  V  V68  1  0.12820066  0.75115233  0.88130692  1
  V  V69  1  0.25170285  0.12735803  0.37814935  1
  V  V70  1  0.74647533  0.36804350  0.62204517  1
  V  V71  1  0.12705046  0.12828222  0.50190901  1
  V  V72  1  0.50360774  0.63658147  0.61363668  1
  V  V73  1  0.37048224  0.12534475  0.74684094  1
  V  V74  1  0.24574609  0.24456539  0.00191914  1
  V  V75  1  0.24959109  0.00106104  0.25012687  1
  V  V76  1  0.50532276  -0.00459345  0.51049157  1
  V  V77  1  0.87636756  0.61912202  0.25562765  1
  V  V78  1  0.37354616  0.00318628  0.87467261  1
  V  V79  1  0.75279374  0.49472504  0.75531189  1
  V  V80  1  0.25184508  0.62267212  0.87764850  1
  V  V81  1  0.37382231  0.13259798  0.24750819  1
  V  V82  1  0.00524769  0.61918085  0.62742523  1
  V  V83  1  0.00230926  0.62401608  0.12294606  1
  V  V84  1  0.87287065  0.24802373  0.62876983  1
  Zn  Zn85  1  0.50332910  0.12296487  0.62788138  1
  Zn  Zn86  1  0.12526227  0.25063978  0.37455273  1
  Zn  Zn87  1  0.12901669  0.37274678  0.25258992  1
  Zn  Zn88  1  0.12180501  0.24285278  0.87557324  1
  Zn  Zn89  1  0.74499996  -0.00257646  0.25267079  1
  Zn  Zn90  1  0.24729308  0.00005906  0.75171029  1
  Zn  Zn91  1  0.25727727  0.62009441  0.38201844  1
  Zn  Zn92  1  0.75381338  0.36930498  0.12688061  1
  Zn  Zn93  1  0.61743482  0.74269725  0.86642551  1
  Zn  Zn94  1  0.25745509  0.74598361  0.50523910  1
  Zn  Zn95  1  0.81398228  0.56043826  0.42030669  1
  Zn  Zn96  1  0.37706193  0.50027227  0.87692128  1
  Zn  Zn97  1  0.62828035  0.37359897  0.25184531  1
  Zn  Zn98  1  0.23956844  0.12247368  0.87891451  1
  Zn  Zn99  1  -0.00198056  0.13249270  0.11740968  1
  Zn  Zn100  1  0.49905620  -0.00105963  -0.00098632  1
  Zn  Zn101  1  0.61588700  0.87320788  0.73749223  1
  Zn  Zn102  1  0.50351124  0.40922511  0.39363556  1
  Zn  Zn103  1  0.61691241  0.61798809  -0.00347155  1
  Zn  Zn104  1  0.25556090  0.25796411  0.50760259  1
  Zn  Zn105  1  0.74927724  0.72736754  0.49917952  1
  Zn  Zn106  1  0.36686827  0.26252464  0.62653244  1
  Zn  Zn107  1  0.18704872  0.19207677  0.18698640  1
  Zn  Zn108  1  0.18874604  0.18911716  0.69088744  1
  Zn  Zn109  1  0.18891752  0.68653815  0.18861359  1
  Zn  Zn110  1  0.18880706  0.68697985  0.69182626  1
  Zn  Zn111  1  0.68438229  0.18489494  0.18826415  1
  Zn  Zn112  1  0.69008160  0.18446223  0.68985686  1
  Zn  Zn113  1  0.68072315  0.68127535  0.20366727  1
  Zn  Zn114  1  0.68484043  0.68972659  0.68811067  1
  Zn  Zn115  1  0.31746239  0.31717482  0.32341188  1
  Zn  Zn116  1  0.31074007  0.31284042  0.81587220  1
  Zn  Zn117  1  0.31468778  0.81351121  0.31107828  1
  Zn  Zn118  1  0.30957714  0.81049103  0.81207947  1
  Zn  Zn119  1  0.81332454  0.31051917  0.31340123  1
  Zn  Zn120  1  0.81684010  0.30862055  0.81622156  1
  Zn  Zn121  1  0.81353533  0.81050183  0.31237548  1
  Zn  Zn122  1  0.79197617  0.80584375  0.80614495  1
  Zn  Zn123  1  0.18820296  0.43687797  0.44171291  1
  Zn  Zn124  1  0.18783187  0.43499942  0.93599177  1
  Zn  Zn125  1  0.19267199  0.93922311  0.43924210  1
  Zn  Zn126  1  0.18478269  0.93919143  0.93685120  1
  Zn  Zn127  1  0.68630861  0.43234214  0.43692421  1
  Zn  Zn128  1  0.68929982  0.43446907  0.94012534  1
  Zn  Zn129  1  0.68532496  0.93495867  0.43265912  1
  Zn  Zn130  1  0.68223862  0.93521695  0.94283019  1
  Zn  Zn131  1  0.31254930  0.06072649  0.06329481  1
  Zn  Zn132  1  0.31362244  0.06027470  0.56478122  1
  Zn  Zn133  1  0.31501009  0.55753293  0.06324017  1
  Zn  Zn134  1  0.32045552  0.56506419  0.56550229  1
  Zn  Zn135  1  0.80883688  0.05854870  0.05880368  1
  Zn  Zn136  1  0.81200429  0.06419769  0.55846099  1
  Zn  Zn137  1  0.81426200  0.55850218  0.06619356  1
  Zn  Zn138  1  0.81780002  0.55439167  0.58222298  1
  Zn  Zn139  1  0.45937088  0.46109682  0.22720532  1
  Zn  Zn140  1  0.43529524  0.44073731  0.68619100  1
  Zn  Zn141  1  0.43252413  0.94385429  0.18300631  1
  Zn  Zn142  1  0.43443704  0.93686926  0.68716980  1
  Zn  Zn143  1  0.93927896  0.43708664  0.18385369  1
  Zn  Zn144  1  0.93920869  0.43666790  0.68673019  1
  Zn  Zn145  1  0.93453265  0.93905896  0.18438483  1
  Zn  Zn146  1  0.93283797  0.94104525  0.68811674  1
  Zn  Zn147  1  0.06185825  0.06691804  0.30990763  1
  Zn  Zn148  1  0.06048583  0.06423100  0.81299517  1
  Zn  Zn149  1  0.06352897  0.56032814  0.31487623  1
  Zn  Zn150  1  0.06817416  0.55788742  0.81216214  1
  Zn  Zn151  1  0.56186692  0.06620625  0.31386924  1
  Zn  Zn152  1  0.56070805  0.05861725  0.81317883  1
  Zn  Zn153  1  0.57423431  0.57673295  0.31135672  1
  Zn  Zn154  1  0.56631550  0.56037856  0.80929931  1
  Zn  Zn155  1  0.43785193  0.19078116  0.44227416  1
  Zn  Zn156  1  0.43442831  0.19340899  0.93721711  1
  Zn  Zn157  1  0.44890522  0.69279961  0.43093933  1
  Zn  Zn158  1  0.43284361  0.68791584  0.93917176  1
  Zn  Zn159  1  0.93703476  0.19207824  0.43645840  1
  Zn  Zn160  1  0.93789515  0.18978586  0.93521618  1
  Zn  Zn161  1  0.94353788  0.69114588  0.43971407  1
  Zn  Zn162  1  0.93576993  0.69000047  0.93891844  1
  Zn  Zn163  1  0.06574483  0.31558223  0.06177928  1
  Zn  Zn164  1  0.06191554  0.30925657  0.56545863  1
  Zn  Zn165  1  0.06014310  0.81593413  0.05989942  1
  Zn  Zn166  1  0.06241591  0.80924191  0.56284173  1
  Zn  Zn167  1  0.56327918  0.31248347  0.06468235  1
  Zn  Zn168  1  0.55398665  0.31236607  0.56192793  1
  Zn  Zn169  1  0.55837714  0.81215488  0.06037005  1
  Zn  Zn170  1  0.56425879  0.80868738  0.55350877  1
  O  O171  1  0.12245306  0.11212395  0.12831719  1
  O  O172  1  0.11560096  0.11917143  0.62208130  1
  O  O173  1  0.12234597  0.61862521  0.11888596  1
  O  O174  1  0.11215301  0.63302055  0.62038742  1
  O  O175  1  0.61798918  0.11764439  0.11494631  1
  O  O176  1  0.62785801  0.12937273  0.60986522  1
  O  O177  1  0.61648890  0.61886951  0.12468363  1
  O  O178  1  0.61761716  0.61348671  0.63210256  1
  O  O179  1  0.38836099  0.37203686  0.39082772  1
  O  O180  1  0.38512190  0.37576762  0.88124167  1
  O  O181  1  0.36439028  0.88836844  0.38391293  1
  O  O182  1  0.37942351  0.87810082  0.87875219  1
  O  O183  1  0.88655082  0.36717052  0.38627563  1
  O  O184  1  0.89037021  0.37357830  0.88054406  1
  O  O185  1  0.88302842  0.88125451  0.37754460  1
  O  O186  1  0.87983542  0.86233448  0.88147017  1
  O  O187  1  0.25547836  0.01061627  0.36954514  1
  O  O188  1  0.26141298  -0.00067027  0.87548592  1
  O  O189  1  0.24157930  0.50246267  0.36036288  1
  O  O190  1  0.24881392  0.51255851  0.86956153  1
  O  O191  1  0.75763775  0.00624715  0.37134140  1
  O  O192  1  0.75014436  -0.01042873  0.86487615  1
  O  O193  1  0.74755496  0.49278864  0.35894283  1
  O  O194  1  0.74861789  0.50899754  0.87063504  1
  O  O195  1  0.24212069  0.49285350  0.13158026  1
  O  O196  1  0.25033951  0.50708409  0.63857159  1
  O  O197  1  0.24165881  0.99075875  0.12770145  1
  O  O198  1  0.23950596  0.98966484  0.62545935  1
  O  O199  1  0.74640624  0.49387366  0.13246427  1
  O  O200  1  0.74029434  0.48694264  0.63614734  1
  O  O201  1  0.74046888  0.99060731  0.12557381  1
  O  O202  1  0.75243895  0.98960057  0.62429649  1
  O  O203  1  -0.00092411  0.36995879  0.25780693  1
  O  O204  1  0.00981341  0.38591474  0.76228109  1
  O  O205  1  0.00490189  0.87038863  0.25371523  1
  O  O206  1  0.00002486  0.87063536  0.75616841  1
  O  O207  1  0.49956904  0.35428732  0.24087869  1
  O  O208  1  0.50491620  0.36851077  0.75754700  1
  O  O209  1  0.48289394  0.86450502  0.24721135  1
  O  O210  1  0.49901710  0.87688289  0.76305715  1
  O  O211  1  0.49206306  0.13004845  0.24235548  1
  O  O212  1  0.49406086  0.13121077  0.75112356  1
  O  O213  1  0.48982892  0.64186619  0.23470087  1
  O  O214  1  0.48932401  0.62341912  0.75117103  1
  O  O215  1  0.99111629  0.13366757  0.24702631  1
  O  O216  1  0.98274556  0.11454169  0.74011621  1
  O  O217  1  0.99780543  0.62834593  0.24273071  1
  O  O218  1  0.99567255  0.62525112  0.74655879  1
  O  O219  1  0.36284014  0.26388756  -0.00226697  1
  O  O220  1  0.37534608  0.25401696  0.50766169  1
  O  O221  1  0.37135536  0.75698455  0.01133877  1
  O  O222  1  0.37681512  0.76391461  0.49003094  1
  O  O223  1  0.86558797  0.25619111  -0.00621891  1
  O  O224  1  0.88010602  0.26050612  0.51407818  1
  O  O225  1  0.86613307  0.75650083  0.00701988  1
  O  O226  1  0.87836868  0.75715700  0.50871085  1
  O  O227  1  0.12415548  0.23687421  0.49875336  1
  O  O228  1  0.14087652  0.25639451  0.99880906  1
  O  O229  1  0.12367765  0.73862345  0.49292799  1
  O  O230  1  0.11897353  0.74575172  0.98799519  1
  O  O231  1  0.61592536  0.24103643  0.48868629  1
  O  O232  1  0.63150886  0.24293731  0.99367042  1
  O  O233  1  0.62730173  0.74305817  0.48155129  1
  O  O234  1  0.63539912  0.74648569  0.99788625  1
  O  O235  1  0.50651906  0.23491424  0.13207595  1
  O  O236  1  0.50010971  0.24733132  0.64238783  1
  O  O237  1  0.48763352  0.74858422  0.12817239  1
  O  O238  1  0.51511475  0.73522001  0.62865893  1
  O  O239  1  1.00511639  0.25073227  0.13617962  1
  O  O240  1  0.99179700  0.23669563  0.62625368  1
  O  O241  1  0.99627233  0.74548064  0.12937121  1
  O  O242  1  0.98965684  0.74434497  0.63202666  1
  O  O243  1  0.00207507  0.25754995  0.36532292  1
  O  O244  1  0.00278054  0.26548326  0.87705952  1
  O  O245  1  0.01237356  0.75660372  0.36960658  1
  O  O246  1  0.00483078  0.75778287  0.87074264  1
  O  O247  1  0.50995245  0.23720458  0.36399610  1
  O  O248  1  0.50939761  0.25643874  0.86642982  1
  O  O249  1  0.51515270  0.74891850  0.35480259  1
  O  O250  1  0.49816250  0.76229785  0.87740104  1
  O  O251  1  0.24191278  0.11987097  0.49316240  1
  O  O252  1  0.25736183  0.14091068  1.00299094  1
  O  O253  1  0.24411396  0.62754233  0.50157578  1
  O  O254  1  0.24285464  0.62035619  0.99233517  1
  O  O255  1  0.74279875  0.12093998  0.48693737  1
  O  O256  1  0.74084717  0.13025830  1.00020157  1
  O  O257  1  0.76719045  0.61629878  0.50433936  1
  O  O258  1  0.75228962  0.62867160  0.99483001  1
  O  O259  1  0.25546366  0.36926410  0.00833730  1
  O  O260  1  0.26580299  0.37413020  0.49207507  1
  O  O261  1  0.25876034  0.87785278  0.00548280  1
  O  O262  1  0.25765726  0.87286919  0.50797255  1
  O  O263  1  0.76089103  0.36517829  -0.00101540  1
  O  O264  1  0.75974265  0.37864565  0.50974460  1
  O  O265  1  0.75399756  0.86555124  0.00560106  1
  O  O266  1  0.75867239  0.87738592  0.50852909  1
  O  O267  1  0.13146077  0.50013201  0.23963258  1
  O  O268  1  0.14036505  0.49243169  0.75239810  1
  O  O269  1  0.12869229  0.99458208  0.24250056  1
  O  O270  1  0.12230711  0.99074009  0.74224433  1
  O  O271  1  0.64091784  0.49976778  0.23725411  1
  O  O272  1  0.63762993  0.49228450  0.74561650  1
  O  O273  1  0.62456345  1.00642862  0.23629673  1
  O  O274  1  0.63868419  0.99421268  0.75344230  1
  O  O275  1  0.36867610  0.00902863  0.25765448  1
  O  O276  1  0.37288928  0.00687423  0.75814643  1
  O  O277  1  0.36017673  0.51721209  0.23653654  1
  O  O278  1  0.36319854  0.50718676  0.75454558  1
  O  O279  1  0.87573050  0.00878182  0.25765716  1
  O  O280  1  0.86292639  0.01200041  0.74623166  1
  O  O281  1  0.87163025  0.50737893  0.24460978  1
  O  O282  1  0.86265992  0.50668620  0.74254784  1
  O  O283  1  0.11195540  0.37356640  0.37604085  1
  O  O284  1  0.11365109  0.37496833  0.86816349  1
  O  O285  1  0.12173516  0.87037404  0.37137107  1
  O  O286  1  0.11731791  0.86721502  0.87033114  1
  O  O287  1  0.61752395  0.36559677  0.37305378  1
  O  O288  1  0.62018595  0.36671735  0.87130427  1
  O  O289  1  0.63170641  0.85865345  0.36513741  1
  O  O290  1  0.60378091  0.87554618  0.88171579  1
  O  O291  1  0.38259541  0.11809094  0.13568673  1
  O  O292  1  0.37897312  0.11997214  0.63996732  1
  O  O293  1  0.37709844  0.63393510  0.12779063  1
  O  O294  1  0.39260979  0.62174718  0.63719127  1
  O  O295  1  0.87443887  0.11800614  0.13623901  1
  O  O296  1  0.87878729  0.13106076  0.62643816  1
  O  O297  1  0.88557055  0.63047446  0.12973614  1
  O  O298  1  0.88647076  0.63191616  0.63831749  1
  O  O299  1  0.24653162  0.26033811  0.11610115  1
  O  O300  1  0.25364356  0.24283465  0.62051719  1
  O  O301  1  0.25280754  0.76352357  0.12882146  1
  O  O302  1  0.24203092  0.76386304  0.62407857  1
  O  O303  1  0.74393550  0.24947331  0.11154310  1
  O  O304  1  0.75435423  0.26118635  0.62852181  1
  O  O305  1  0.75196033  0.75314190  0.12047446  1
  O  O306  1  0.76239612  0.75588789  0.62098218  1
  O  O307  1  0.24795026  0.23641592  0.37751380  1
  O  O308  1  0.24805470  0.24988879  0.89002665  1
  O  O309  1  0.23821422  0.74984519  0.37604479  1
  O  O310  1  0.23952096  0.73689554  0.86959003  1
  O  O311  1  0.73902494  0.24147641  0.37203907  1
  O  O312  1  0.73720612  0.25264788  0.88221367  1
  O  O313  1  0.74604772  0.75546521  0.38326180  1
  O  O314  1  0.75480104  0.73380764  0.88870537  1
  O  O315  1  -0.01175513  0.10949060  0.00018707  1
  O  O316  1  0.00566575  0.12110114  0.50636647  1
  O  O317  1  0.00664663  0.61829180  0.00218635  1
  O  O318  1  0.00468692  0.61784486  0.50827553  1
  O  O319  1  0.50374679  0.12611235  0.00599825  1
  O  O320  1  0.50829140  0.11483171  0.50305049  1
  O  O321  1  0.49836198  0.63079084  0.01437398  1
  O  O322  1  0.49590076  0.62865199  0.51415903  1
  O  O323  1  0.48863238  0.38051106  0.50178965  1
  O  O324  1  0.49207914  0.36501164  0.99130871  1
  O  O325  1  0.49276809  0.88197173  0.50188767  1
  O  O326  1  0.48417509  0.87539390  0.99194045  1
  O  O327  1  0.99527105  0.38025523  0.49706397  1
  O  O328  1  0.99686045  0.38124072  0.99065978  1
  O  O329  1  0.99572877  0.88042200  0.49436286  1
  O  O330  1  0.98872232  0.87959028  0.99196513  1
  O  O331  1  0.50005345  0.50012602  0.32965254  1
  O  O332  1  0.50312752  0.48606348  0.87259942  1
  O  O333  1  0.48899117  1.00466569  0.37992751  1
  O  O334  1  0.48752564  0.98947850  0.87710380  1
  O  O335  1  1.00236032  0.49268625  0.38830523  1
  O  O336  1  1.00521469  0.49290473  0.88548001  1
  O  O337  1  0.99557719  0.99712925  0.37910272  1
  O  O338  1  1.00130847  0.98457796  0.88092529  1
  O  O339  1  0.00674197  -0.00111095  0.11518127  1
  O  O340  1  0.00350035  0.00753288  0.61813281  1
  O  O341  1  0.01016497  0.50363965  0.11566048  1
  O  O342  1  -0.00502062  0.50862901  0.61339262  1
  O  O343  1  0.50485372  0.00957540  0.12143636  1
  O  O344  1  0.50093500  0.00008721  0.61459652  1
  O  O345  1  0.51097715  0.51032728  0.13362222  1
  O  O346  1  0.51615772  0.50877708  0.63383426  1
  O  O347  1  0.25244822  0.38142406  0.24585176  1
  O  O348  1  0.24134314  0.38746013  0.75570122  1
  O  O349  1  0.24455101  0.88215726  0.24179233  1
  O  O350  1  0.24283825  0.87683698  0.74356898  1
  O  O351  1  0.75307451  0.38046567  0.24569858  1
  O  O352  1  0.74754517  0.37870616  0.74726763  1
  O  O353  1  0.75729374  0.87624285  0.23459879  1
  O  O354  1  0.75996585  0.89216317  0.73482188  1
  O  O355  1  0.25531823  0.12135729  0.25515295  1
  O  O356  1  0.25777929  0.12029070  0.75592236  1
  O  O357  1  0.25699645  0.61992083  0.25236696  1
  O  O358  1  0.25624244  0.61592313  0.75492577  1
  O  O359  1  0.75723682  0.12347508  0.25844411  1
  O  O360  1  0.75682836  0.10939394  0.74759793  1
  O  O361  1  0.76904117  0.61380034  0.23881818  1
  O  O362  1  0.75739437  0.61597386  0.75733782  1
  O  O363  1  0.36806134  0.11710747  0.37026709  1
  O  O364  1  0.37478834  0.11736996  0.86724890  1
  O  O365  1  0.37485282  0.63600316  0.36094992  1
  O  O366  1  0.36927827  0.62306259  0.86716283  1
  O  O367  1  0.86825801  0.12174322  0.37103200  1
  O  O368  1  0.87647276  0.12755788  0.85935130  1
  O  O369  1  0.88812754  0.62669616  0.36107383  1
  O  O370  1  0.87226271  0.62605132  0.86435771  1
  O  O371  1  0.13297170  0.38584775  0.12763037  1
  O  O372  1  0.11488146  0.37490213  0.64301462  1
  O  O373  1  0.13002544  0.88052123  0.12875241  1
  O  O374  1  0.12709771  0.87957242  0.62942885  1
  O  O375  1  0.62778708  0.38184942  0.12940572  1
  O  O376  1  0.62967579  0.38032847  0.63011936  1
  O  O377  1  0.63201485  0.88625842  0.11177429  1
  O  O378  1  0.64156248  0.86898448  0.62028940  1
  O  O379  1  0.11549655  0.25233356  0.25413040  1
  O  O380  1  0.13101925  0.26746769  0.75577290  1
  O  O381  1  0.12042863  0.75538233  0.25669808  1
  O  O382  1  0.11616475  0.75382270  0.76029986  1
  O  O383  1  0.61755574  0.24712291  0.26007598  1
  O  O384  1  0.62128631  0.25259780  0.75776592  1
  O  O385  1  0.60685678  0.77019778  0.22579419  1
  O  O386  1  0.65940354  0.76884774  0.76330801  1
  O  O387  1  0.37957583  0.23748469  0.25755224  1
  O  O388  1  0.38173929  0.24346372  0.75204107  1
  O  O389  1  0.37591230  0.74612964  0.23777794  1
  O  O390  1  0.36886041  0.73236674  0.75071853  1
  O  O391  1  0.88343743  0.23939694  0.25326225  1
  O  O392  1  0.86595497  0.23452950  0.73899773  1
  O  O393  1  0.88249622  0.74223731  0.24446758  1
  O  O394  1  0.87615117  0.74202855  0.74409334  1
  O  O395  1  0.37275387  0.49398962  0.49501896  1
  O  O396  1  0.37017045  0.48298063  0.99539306  1
  O  O397  1  0.38389562  0.99402037  0.49357098  1
  O  O398  1  0.37546195  0.99208576  0.99308658  1
  O  O399  1  0.88199779  0.48752588  0.50096830  1
  O  O400  1  0.88699587  0.49246591  1.00232974  1
  O  O401  1  0.88146102  0.99513359  0.49143475  1
  O  O402  1  0.87915499  0.98438422  1.00275379  1
  O  O403  1  0.11128120  -0.00889090  0.00849445  1
  O  O404  1  0.12015357  0.00929682  0.50517797  1
  O  O405  1  0.11954114  0.50457755  0.00733216  1
  O  O406  1  0.11877389  0.51260550  0.49906947  1
  O  O407  1  0.62099046  0.00877426  0.00713018  1
  O  O408  1  0.61480452  0.00760540  0.48965210  1
  O  O409  1  0.63229321  0.50084673  0.01501380  1
  O  O410  1  0.62794891  0.49619782  0.51529119  1
  O  O411  1  0.36577404  0.37947855  0.12034504  1
  O  O412  1  0.37880975  0.37936795  0.61049320  1
  O  O413  1  0.36503780  0.87200039  0.11610753  1
  O  O414  1  0.36507856  0.87987815  0.61479389  1
  O  O415  1  0.87819605  0.37432495  0.10837564  1
  O  O416  1  0.86851862  0.36704490  0.62285188  1
  O  O417  1  0.86670702  0.86821119  0.11650881  1
  O  O418  1  0.86967759  0.86816949  0.61905699  1
  O  O419  1  0.13229275  0.12337054  0.38467872  1
  O  O420  1  0.12523132  0.12806555  0.87380474  1
  O  O421  1  0.12576356  0.63285689  0.38455995  1
  O  O422  1  0.13082757  0.63190950  0.87982351  1
  O  O423  1  0.63328575  0.12994669  0.38146779  1
  O  O424  1  0.61724676  0.13101513  0.88699272  1
  O  O425  1  0.64317876  0.66163489  0.32559369  1
  O  O426  1  0.63387486  0.62505703  0.87808012  1
