# generated using pymatgen
data_V85Zn86O256
_symmetry_space_group_name_H-M   'P 1'
_cell_length_a   16.93332848
_cell_length_b   16.93898441
_cell_length_c   16.94928074
_cell_angle_alpha   90.05483895
_cell_angle_beta   90.11734781
_cell_angle_gamma   90.07452416
_symmetry_Int_Tables_number   1
_chemical_formula_structural   V85Zn86O256
_chemical_formula_sum   'V85 Zn86 O256'
_cell_volume   4861.60305670
_cell_formula_units_Z   1
loop_
 _symmetry_equiv_pos_site_id
 _symmetry_equiv_pos_as_xyz
  1  'x, y, z'
loop_
 _atom_site_type_symbol
 _atom_site_label
 _atom_site_symmetry_multiplicity
 _atom_site_fract_x
 _atom_site_fract_y
 _atom_site_fract_z
 _atom_site_occupancy
  V  V0  1  0.25085355  0.36878564  0.62208578  1
  V  V1  1  0.88163464  0.50433326  0.87823530  1
  V  V2  1  0.37327264  0.74499612  0.12456078  1
  V  V3  1  0.62389860  0.00172113  0.62667806  1
  V  V4  1  0.75030695  0.62591007  0.37572943  1
  V  V5  1  0.62329576  0.87016649  0.74951479  1
  V  V6  1  0.12896342  0.87452498  0.74893526  1
  V  V7  1  0.25274492  0.60470424  0.86982083  1
  V  V8  1  0.25648745  -0.00280335  0.76375822  1
  V  V9  1  0.87469094  0.62527267  0.74898137  1
  V  V10  1  0.74668592  0.12532597  0.88036970  1
  V  V11  1  0.37713199  0.11980620  0.24297444  1
  V  V12  1  0.75405502  0.25623434  0.49822292  1
  V  V13  1  0.35133039  0.75466892  0.62529177  1
  V  V14  1  0.13202489  0.38846029  0.25398272  1
  V  V15  1  0.62154787  0.75019198  0.37665701  1
  V  V16  1  0.00004804  0.12400319  0.62491350  1
  V  V17  1  0.87808273  0.88121947  0.00190547  1
  V  V18  1  0.13126716  0.37697897  0.75015431  1
  V  V19  1  0.12900715  0.12301482  0.49778844  1
  V  V20  1  0.75070902  0.75120072  0.50239116  1
  V  V21  1  0.25027003  0.87968562  0.13137271  1
  V  V22  1  0.62270196  0.49617495  0.63245711  1
  V  V23  1  0.61813421  0.38018778  0.25243860  1
  V  V24  1  0.74464196  0.38347779  0.12385944  1
  V  V25  1  0.87330845  0.25437536  0.12741264  1
  V  V26  1  0.88526585  0.63007822  0.25323192  1
  V  V27  1  0.13116308  -0.00528442  0.62479179  1
  V  V28  1  0.24790318  0.74527074  -0.00602088  1
  V  V29  1  0.87249056  0.11730021  0.25917982  1
  V  V30  1  0.50069917  0.25065532  0.74282199  1
  V  V31  1  0.74732125  0.25048591  -0.00051108  1
  V  V32  1  0.88584495  0.75252091  0.13033729  1
  V  V33  1  0.48680960  0.50035697  -0.00246395  1
  V  V34  1  0.38046991  0.36973357  0.49793043  1
  V  V35  1  0.37273099  0.49152683  0.37514434  1
  V  V36  1  0.61667700  0.74718125  0.87339649  1
  V  V37  1  0.50113748  0.49894594  0.49911013  1
  V  V38  1  0.24908005  0.14540558  0.87756948  1
  V  V39  1  0.74763827  0.87477223  0.12493870  1
  V  V40  1  0.00283853  0.88062562  0.87853444  1
  V  V41  1  0.49724947  0.38353502  0.86671329  1
  V  V42  1  0.24663164  0.11580776  0.35998346  1
  V  V43  1  0.62125915  0.25349989  0.37557917  1
  V  V44  1  0.62482262  0.01452542  0.12192072  1
  V  V45  1  0.50337810  0.64163669  0.63136388  1
  V  V46  1  0.87659570  0.12566196  0.75189880  1
  V  V47  1  0.50319437  -0.00167086  0.00145735  1
  V  V48  1  -0.00288423  -0.00055906  0.49181178  1
  V  V49  1  -0.00090779  0.75259452  0.74989221  1
  V  V50  1  0.00288648  0.62618543  0.62034322  1
  V  V51  1  0.62469113  0.61625564  0.00425622  1
  V  V52  1  -0.00338984  0.25194454  0.25056274  1
  V  V53  1  0.12789082  0.50041658  0.62400369  1
  V  V54  1  0.00224517  0.49979938  0.50026228  1
  V  V55  1  0.00246408  0.86803858  0.37121392  1
  V  V56  1  0.37307126  0.87620155  -0.00393249  1
  V  V57  1  0.49853276  0.74452290  0.25004361  1
  V  V58  1  0.75069424  0.00096101  0.75156396  1
  V  V59  1  0.12424937  0.24848206  0.37412571  1
  V  V60  1  0.87382517  0.87990463  0.49698621  1
  V  V61  1  0.00681901  0.25125111  0.75255298  1
  V  V62  1  0.87227656  0.49760270  0.38180634  1
  V  V63  1  0.49589095  0.87693946  0.87322064  1
  V  V64  1  0.62378282  0.12550749  0.49949144  1
  V  V65  1  0.13006196  0.74422979  0.38474814  1
  V  V66  1  0.88005380  0.38379741  0.00315967  1
  V  V67  1  0.62900181  0.25808231  0.86661778  1
  V  V68  1  0.50241529  0.61623203  0.12777684  1
  V  V69  1  0.44683308  0.18124605  0.07184186  1
  V  V70  1  0.74620244  0.50265089  0.24851651  1
  V  V71  1  0.25286159  0.62404299  0.40746969  1
  V  V72  1  -0.00542976  0.37457178  0.38154392  1
  V  V73  1  0.74917561  0.75008172  0.00178021  1
  V  V74  1  0.49991800  0.24535927  0.24971076  1
  V  V75  1  -0.00552169  0.11462777  0.11851640  1
  V  V76  1  0.75047175  0.62556060  0.87537152  1
  V  V77  1  0.00711455  0.37812715  0.87970520  1
  V  V78  1  0.87727038  0.00378069  0.87890497  1
  V  V79  1  0.74773234  0.37456567  0.63158147  1
  V  V80  1  0.87744126  0.25843578  0.62182972  1
  V  V81  1  0.36007304  0.61975112  0.25218093  1
  V  V82  1  0.12470126  0.50136493  0.11415671  1
  V  V83  1  0.37740337  -0.00140385  0.37349406  1
  V  V84  1  0.62148251  0.87485266  0.24604474  1
  Zn  Zn85  1  0.74986767  0.49375665  0.75256588  1
  Zn  Zn86  1  0.49240396  0.12040162  0.62474855  1
  Zn  Zn87  1  0.37540297  0.61847075  0.75368567  1
  Zn  Zn88  1  -0.00018126  0.61876582  0.12006568  1
  Zn  Zn89  1  0.12904163  0.87390173  0.25437710  1
  Zn  Zn90  1  0.75252009  0.11820398  0.37986236  1
  Zn  Zn91  1  0.25999618  0.36931348  0.11567783  1
  Zn  Zn92  1  0.25502844  0.24611672  0.49148788  1
  Zn  Zn93  1  0.36967268  0.23800252  0.62139742  1
  Zn  Zn94  1  0.49418011  0.87281766  0.37625031  1
  Zn  Zn95  1  0.36719665  0.86735975  0.50160342  1
  Zn  Zn96  1  0.37399822  0.11809355  0.74523428  1
  Zn  Zn97  1  0.36920767  0.36358084  -0.00093688  1
  Zn  Zn98  1  0.50377791  -0.00333079  0.49546113  1
  Zn  Zn99  1  0.12601882  0.74653992  0.87490100  1
  Zn  Zn100  1  0.11538343  0.62172622  -0.00627962  1
  Zn  Zn101  1  0.12930648  0.12749291  -0.00554819  1
  Zn  Zn102  1  0.62609619  0.62359383  0.50174115  1
  Zn  Zn103  1  0.75186255  0.87595971  0.62582939  1
  Zn  Zn104  1  0.12399085  -0.00085783  0.12556173  1
  Zn  Zn105  1  0.74921266  -0.00305649  0.25585487  1
  Zn  Zn106  1  0.87535755  0.75205916  0.62449924  1
  Zn  Zn107  1  0.18113910  0.18710329  0.18198518  1
  Zn  Zn108  1  0.18856856  0.18375076  0.68873353  1
  Zn  Zn109  1  0.18176743  0.69203784  0.19003169  1
  Zn  Zn110  1  0.18579644  0.68464337  0.69069876  1
  Zn  Zn111  1  0.68933591  0.19235689  0.18872753  1
  Zn  Zn112  1  0.68811289  0.18701636  0.68753423  1
  Zn  Zn113  1  0.68959766  0.68766820  0.18706386  1
  Zn  Zn114  1  0.68650854  0.68614279  0.68723798  1
  Zn  Zn115  1  0.29325706  0.28974639  0.27505651  1
  Zn  Zn116  1  0.31866148  0.31666436  0.80696935  1
  Zn  Zn117  1  0.31025625  0.80417895  0.31643474  1
  Zn  Zn118  1  0.31446288  0.80600793  0.80580811  1
  Zn  Zn119  1  0.80933252  0.31402706  0.31430902  1
  Zn  Zn120  1  0.82114420  0.31243101  0.81319607  1
  Zn  Zn121  1  0.81175938  0.81504403  0.31523604  1
  Zn  Zn122  1  0.81102403  0.81224325  0.81468958  1
  Zn  Zn123  1  0.18997408  0.43783305  0.43813380  1
  Zn  Zn124  1  0.19217203  0.42743086  0.94129519  1
  Zn  Zn125  1  0.19282874  0.93318394  0.43999697  1
  Zn  Zn126  1  0.18106521  0.94216407  0.94536914  1
  Zn  Zn127  1  0.68693755  0.43466474  0.44105357  1
  Zn  Zn128  1  0.68677093  0.43897854  0.93463432  1
  Zn  Zn129  1  0.68773208  0.93777569  0.43441345  1
  Zn  Zn130  1  0.68578695  0.93740549  0.93895385  1
  Zn  Zn131  1  0.30591466  0.05651363  0.04768716  1
  Zn  Zn132  1  0.30905868  0.03911809  0.55736849  1
  Zn  Zn133  1  0.30358787  0.55684052  0.06620558  1
  Zn  Zn134  1  0.32890962  0.54763968  0.59305055  1
  Zn  Zn135  1  0.81225032  0.06441687  0.06718646  1
  Zn  Zn136  1  0.81124431  0.06477961  0.56300281  1
  Zn  Zn137  1  0.81575058  0.56541254  0.06464125  1
  Zn  Zn138  1  0.81295575  0.56177713  0.56268126  1
  Zn  Zn139  1  0.43414698  0.43751536  0.18675016  1
  Zn  Zn140  1  0.43490793  0.43798314  0.68808312  1
  Zn  Zn141  1  0.43786655  0.93738345  0.18402444  1
  Zn  Zn142  1  0.43935808  0.93190516  0.68599988  1
  Zn  Zn143  1  0.93926541  0.44195319  0.19248039  1
  Zn  Zn144  1  0.93866874  0.43798953  0.68956519  1
  Zn  Zn145  1  0.93775268  0.93544924  0.19355370  1
  Zn  Zn146  1  0.93940814  0.93808164  0.68472572  1
  Zn  Zn147  1  0.06338973  0.05481748  0.30523698  1
  Zn  Zn148  1  0.06702139  0.06246172  0.81617047  1
  Zn  Zn149  1  0.06664947  0.56852855  0.31967865  1
  Zn  Zn150  1  0.06601912  0.56200490  0.81109118  1
  Zn  Zn151  1  0.56355710  0.06353706  0.31046930  1
  Zn  Zn152  1  0.56397412  0.06431857  0.81504319  1
  Zn  Zn153  1  0.55948490  0.56192948  0.31621717  1
  Zn  Zn154  1  0.56342099  0.56127418  0.80950888  1
  Zn  Zn155  1  0.43767852  0.18356945  0.43235079  1
  Zn  Zn156  1  0.43757675  0.18304399  0.90821562  1
  Zn  Zn157  1  0.43458318  0.68582834  0.44636765  1
  Zn  Zn158  1  0.43298290  0.68466811  0.93534389  1
  Zn  Zn159  1  0.93838691  0.18702205  0.43940840  1
  Zn  Zn160  1  0.97186457  0.21371080  0.95870040  1
  Zn  Zn161  1  0.93934757  0.68992833  0.43916891  1
  Zn  Zn162  1  0.94119790  0.69383191  0.94097073  1
  Zn  Zn163  1  0.07204400  0.31169044  0.06732957  1
  Zn  Zn164  1  0.06316197  0.31159405  0.56045908  1
  Zn  Zn165  1  0.06483814  0.81115783  0.05975185  1
  Zn  Zn166  1  0.06636748  0.81123419  0.56107080  1
  Zn  Zn167  1  0.56783878  0.32240422  0.05692274  1
  Zn  Zn168  1  0.56368680  0.31495563  0.56126482  1
  Zn  Zn169  1  0.56058235  0.80757116  0.06172653  1
  Zn  Zn170  1  0.56052595  0.82013950  0.55726962  1
  O  O171  1  0.10269555  0.12747209  0.12754589  1
  O  O172  1  0.11874930  0.12062157  0.61480779  1
  O  O173  1  0.12466065  0.61148718  0.12742573  1
  O  O174  1  0.11352228  0.61352676  0.63275998  1
  O  O175  1  0.63312030  0.11353969  0.12774077  1
  O  O176  1  0.62451930  0.11746639  0.61855431  1
  O  O177  1  0.61609627  0.63211207  0.11552458  1
  O  O178  1  0.61902714  0.61607094  0.62340341  1
  O  O179  1  0.36806412  0.38912592  0.38275835  1
  O  O180  1  0.39376771  0.36839261  0.87936055  1
  O  O181  1  0.37169642  0.88550344  0.37229518  1
  O  O182  1  0.38949686  0.86524519  0.87929783  1
  O  O183  1  0.88078866  0.38624310  0.37050789  1
  O  O184  1  0.88094665  0.38624261  0.88304190  1
  O  O185  1  0.88411535  0.86741871  0.38941618  1
  O  O186  1  0.87880837  0.88168404  0.88364269  1
  O  O187  1  0.25745363  0.01148179  0.36888577  1
  O  O188  1  0.24750670  -0.00319244  0.86406851  1
  O  O189  1  0.25786946  0.51574767  0.38461035  1
  O  O190  1  0.24763518  0.50630953  0.87595525  1
  O  O191  1  0.74457249  0.00531915  0.36868420  1
  O  O192  1  0.75322244  0.00819008  0.87282201  1
  O  O193  1  0.75641231  0.50396871  0.37288353  1
  O  O194  1  0.76074738  0.50714654  0.87333116  1
  O  O195  1  0.23104067  0.49189000  0.12825475  1
  O  O196  1  0.23123798  0.48293093  0.60957497  1
  O  O197  1  0.25762917  0.98125371  0.12164242  1
  O  O198  1  0.23208083  1.01055761  0.64277510  1
  O  O199  1  0.75506716  0.49577815  0.13700675  1
  O  O200  1  0.74469813  0.49089111  0.62346888  1
  O  O201  1  0.74220603  0.99158280  0.12930718  1
  O  O202  1  0.74028054  0.99953043  0.63151346  1
  O  O203  1  0.00120402  0.36930621  0.26327481  1
  O  O204  1  0.00763360  0.36947085  0.75465252  1
  O  O205  1  -0.00520158  0.87291022  0.26891570  1
  O  O206  1  0.00592206  0.87165820  0.75624158  1
  O  O207  1  0.51465700  0.36933305  0.24240165  1
  O  O208  1  0.49752068  0.37120912  0.75889833  1
  O  O209  1  0.50916790  0.86459942  0.24729979  1
  O  O210  1  0.51447428  0.88133846  0.75986696  1
  O  O211  1  0.49521612  0.13355363  0.24551696  1
  O  O212  1  0.49834813  0.13436977  0.75125568  1
  O  O213  1  0.49681833  0.62741369  0.24269896  1
  O  O214  1  0.49991461  0.61983541  0.73414279  1
  O  O215  1  0.98789381  0.13285331  0.24737524  1
  O  O216  1  0.99759035  0.13309811  0.74756997  1
  O  O217  1  0.98741782  0.62263156  0.25262157  1
  O  O218  1  0.99085487  0.63047684  0.74461226  1
  O  O219  1  0.39850161  0.24050440  0.00616799  1
  O  O220  1  0.37558040  0.25545579  0.49834903  1
  O  O221  1  0.37110336  0.75722312  0.00523172  1
  O  O222  1  0.37512919  0.75215716  0.51699916  1
  O  O223  1  0.86793928  0.26708944  0.00550373  1
  O  O224  1  0.86698462  0.24275628  0.50999950  1
  O  O225  1  0.86806261  0.76175186  0.00856957  1
  O  O226  1  0.86627641  0.75662749  0.50230635  1
  O  O227  1  0.12365691  0.23923566  0.49095812  1
  O  O228  1  0.08238915  0.23239459  0.99251402  1
  O  O229  1  0.13159965  0.75656784  0.48624912  1
  O  O230  1  0.13504889  0.74667243  0.99620600  1
  O  O231  1  0.63144547  0.24682570  0.49291786  1
  O  O232  1  0.64122213  0.25819785  0.98847898  1
  O  O233  1  0.63214525  0.75147643  0.49142476  1
  O  O234  1  0.62960465  0.74053730  0.99245817  1
  O  O235  1  0.51120766  0.24340370  0.12654040  1
  O  O236  1  0.50602870  0.24921121  0.63625203  1
  O  O237  1  0.49214227  0.73768903  0.12812207  1
  O  O238  1  0.51817821  0.73982557  0.62866415  1
  O  O239  1  0.98999524  0.24601484  0.13672983  1
  O  O240  1  0.99360962  0.24515589  0.62910606  1
  O  O241  1  0.98793561  0.75371908  0.12696947  1
  O  O242  1  0.99999502  0.74125130  0.63006722  1
  O  O243  1  0.00176454  0.25779563  0.37171894  1
  O  O244  1  -0.01629730  0.26753867  0.85919445  1
  O  O245  1  0.01516518  0.75457189  0.38286940  1
  O  O246  1  -0.00169172  0.76440143  0.86672130  1
  O  O247  1  0.51336378  0.24688614  0.36538419  1
  O  O248  1  0.51146143  0.25925885  0.86359701  1
  O  O249  1  0.50636772  0.74660512  0.37050437  1
  O  O250  1  0.51154521  0.75529396  0.88050241  1
  O  O251  1  0.23663675  0.12235811  0.48973447  1
  O  O252  1  0.25244494  0.13238115  0.98376245  1
  O  O253  1  0.26029270  0.61754564  0.50383303  1
  O  O254  1  0.24724353  0.62956068  0.98971280  1
  O  O255  1  0.74033893  0.13711706  0.50258265  1
  O  O256  1  0.76071326  0.13875063  0.99276559  1
  O  O257  1  0.74900826  0.63294633  0.49391663  1
  O  O258  1  0.74333107  0.62903585  0.99653423  1
  O  O259  1  0.25392872  0.36133584  0.00084985  1
  O  O260  1  0.25937236  0.36897920  0.50336747  1
  O  O261  1  0.25835228  0.86733906  0.00489210  1
  O  O262  1  0.27377030  0.93026109  0.51479732  1
  O  O263  1  0.75564904  0.37477119  0.00762968  1
  O  O264  1  0.74987626  0.36232921  0.50991736  1
  O  O265  1  0.75503992  0.86889356  0.00511446  1
  O  O266  1  0.75663932  0.86864289  0.50052857  1
  O  O267  1  0.11671591  0.48954103  0.25304898  1
  O  O268  1  0.11653093  0.48752949  0.73650026  1
  O  O269  1  0.11963577  0.98689973  0.23888275  1
  O  O270  1  0.12864979  0.99102659  0.74529280  1
  O  O271  1  0.63676142  0.49461609  0.25965082  1
  O  O272  1  0.63165854  0.50217971  0.73703561  1
  O  O273  1  0.62217633  0.98963924  0.23882200  1
  O  O274  1  0.63180056  0.99516166  0.74530629  1
  O  O275  1  0.38439617  0.01297645  0.25362548  1
  O  O276  1  0.35800414  -0.00753190  0.74499700  1
  O  O277  1  0.38592818  0.50919042  0.26469951  1
  O  O278  1  0.35984236  0.51662596  0.70228385  1
  O  O279  1  0.87235252  0.01477032  0.24923110  1
  O  O280  1  0.86888275  0.00413907  0.75470140  1
  O  O281  1  0.86542484  0.50827906  0.26117365  1
  O  O282  1  0.87365432  0.50867703  0.75790430  1
  O  O283  1  0.11444743  0.37158765  0.37062401  1
  O  O284  1  0.11351567  0.38408101  0.86532814  1
  O  O285  1  0.12129198  0.86796175  0.37829897  1
  O  O286  1  0.11603695  0.87545168  0.86947260  1
  O  O287  1  0.63192086  0.36612406  0.36497688  1
  O  O288  1  0.61527659  0.36882397  0.87515966  1
  O  O289  1  0.62244613  0.86290377  0.36611377  1
  O  O290  1  0.61848636  0.86644829  0.87070151  1
  O  O291  1  0.37599421  0.12399687  0.12302807  1
  O  O292  1  0.37415964  0.12001014  0.62496666  1
  O  O293  1  0.37985110  0.62486421  0.13360872  1
  O  O294  1  0.39451016  0.64400343  0.61831540  1
  O  O295  1  0.87829410  0.13342203  0.13898895  1
  O  O296  1  0.88087486  0.13290697  0.63179130  1
  O  O297  1  0.87567292  0.63466179  0.13538780  1
  O  O298  1  0.88263887  0.62513949  0.63376003  1
  O  O299  1  0.25132015  0.26921346  0.16905148  1
  O  O300  1  0.24637315  0.25825553  0.61869657  1
  O  O301  1  0.25627389  0.75195232  0.11315632  1
  O  O302  1  0.25173379  0.74946640  0.62367967  1
  O  O303  1  0.75442569  0.26044368  0.11785419  1
  O  O304  1  0.75688220  0.25550643  0.61983328  1
  O  O305  1  0.75678749  0.75634770  0.11924948  1
  O  O306  1  0.74897806  0.75105436  0.61237534  1
  O  O307  1  0.24059619  0.23548468  0.36987067  1
  O  O308  1  0.24965754  0.24340856  0.86356476  1
  O  O309  1  0.24791033  0.73301007  0.38321850  1
  O  O310  1  0.25048812  0.75185921  0.88691055  1
  O  O311  1  0.74234249  0.24843411  0.38332127  1
  O  O312  1  0.74820722  0.24788907  0.87942980  1
  O  O313  1  0.74272638  0.74714433  0.38462936  1
  O  O314  1  0.74270215  0.74394318  0.88292672  1
  O  O315  1  -0.02715517  0.11713092  0.02018887  1
  O  O316  1  0.00883073  0.11723177  0.50146555  1
  O  O317  1  0.00159225  0.62955399  0.00600855  1
  O  O318  1  -0.00555332  0.61698900  0.51261424  1
  O  O319  1  0.49319766  0.11909599  0.00197362  1
  O  O320  1  0.51613790  0.12936201  0.50210940  1
  O  O321  1  0.50587786  0.62020871  0.00483453  1
  O  O322  1  0.50507627  0.61736730  0.51314268  1
  O  O323  1  0.48868592  0.38109533  0.50277016  1
  O  O324  1  0.50192474  0.38608759  0.98808643  1
  O  O325  1  0.48992750  0.88022791  0.49457286  1
  O  O326  1  0.49530219  0.87871213  0.99338269  1
  O  O327  1  0.99907525  0.38044284  0.48900002  1
  O  O328  1  0.99170589  0.37431902  0.99094044  1
  O  O329  1  0.99317988  0.88134637  0.49549132  1
  O  O330  1  0.99055906  0.87125673  0.99139630  1
  O  O331  1  0.49037081  0.50839857  0.39145129  1
  O  O332  1  0.50421013  0.48988963  0.87818001  1
  O  O333  1  0.49415889  0.99481050  0.36998913  1
  O  O334  1  0.51057826  0.99021086  0.88888572  1
  O  O335  1  0.99356319  0.49622910  0.38233677  1
  O  O336  1  0.98818982  0.49407596  0.86934249  1
  O  O337  1  1.00476879  0.99100112  0.38771237  1
  O  O338  1  0.99226450  0.98929880  0.86972158  1
  O  O339  1  -0.00793583  0.01288454  0.13012501  1
  O  O340  1  0.00828829  0.00747333  0.61883587  1
  O  O341  1  0.01663529  0.50006100  0.13345062  1
  O  O342  1  0.00348231  0.50408003  0.61743816  1
  O  O343  1  0.50960107  -0.00611531  0.11113680  1
  O  O344  1  0.51335823  0.00016713  0.62509600  1
  O  O345  1  0.50203922  0.51179447  0.11614728  1
  O  O346  1  0.51022526  0.50054388  0.61557224  1
  O  O347  1  0.23006299  0.38805981  0.27178952  1
  O  O348  1  0.23887980  0.37000411  0.74003382  1
  O  O349  1  0.25828044  0.86640652  0.23261806  1
  O  O350  1  0.23766682  0.88296430  0.75614661  1
  O  O351  1  0.74319274  0.38302438  0.24323807  1
  O  O352  1  0.75863206  0.37391254  0.73628042  1
  O  O353  1  0.73720302  0.87241239  0.24455586  1
  O  O354  1  0.74025826  0.88207776  0.75208102  1
  O  O355  1  0.26101838  0.12587346  0.25035111  1
  O  O356  1  0.24687329  0.11161383  0.75826104  1
  O  O357  1  0.26024447  0.62582818  0.24968118  1
  O  O358  1  0.24611040  0.62584188  0.76792310  1
  O  O359  1  0.76508304  0.13034960  0.25109134  1
  O  O360  1  0.75613606  0.12030317  0.75714437  1
  O  O361  1  0.75506631  0.61818478  0.25630664  1
  O  O362  1  0.76228862  0.62554937  0.75475664  1
  O  O363  1  0.36678780  0.12273731  0.35903330  1
  O  O364  1  0.35643277  0.12213799  0.86271242  1
  O  O365  1  0.36411513  0.62009174  0.37431660  1
  O  O366  1  0.35962575  0.62532400  0.87182790  1
  O  O367  1  0.87431224  0.13079755  0.36248253  1
  O  O368  1  0.86485676  0.11867408  0.86781994  1
  O  O369  1  0.86962656  0.62124084  0.37044034  1
  O  O370  1  0.87221886  0.62124303  0.86980517  1
  O  O371  1  0.12205179  0.38311523  0.14103497  1
  O  O372  1  0.12789979  0.37842810  0.63019761  1
  O  O373  1  0.14214036  0.86838392  0.12466368  1
  O  O374  1  0.11666163  0.88405868  0.63579448  1
  O  O375  1  0.63855164  0.37514173  0.13273982  1
  O  O376  1  0.63603593  0.38278233  0.62135347  1
  O  O377  1  0.62945876  0.87384139  0.13119524  1
  O  O378  1  0.62791423  0.88204520  0.63391090  1
  O  O379  1  0.10802024  0.25961415  0.25668725  1
  O  O380  1  0.11265978  0.25763693  0.74209912  1
  O  O381  1  0.13470460  0.75633026  0.27230525  1
  O  O382  1  0.11766997  0.75892811  0.75276876  1
  O  O383  1  0.62018573  0.25714751  0.25615352  1
  O  O384  1  0.62285850  0.24845068  0.76029274  1
  O  O385  1  0.61996234  0.75416555  0.25599062  1
  O  O386  1  0.63327947  0.75851234  0.76120747  1
  O  O387  1  0.39429298  0.23955299  0.25296388  1
  O  O388  1  0.38719097  0.24763556  0.74311876  1
  O  O389  1  0.38120346  0.73846471  0.24632441  1
  O  O390  1  0.36976790  0.73920007  0.73257058  1
  O  O391  1  0.88167437  0.24763843  0.24858355  1
  O  O392  1  0.88364296  0.24507049  0.74000546  1
  O  O393  1  0.86564736  0.74157867  0.24239609  1
  O  O394  1  0.87944733  0.74400900  0.74772554  1
  O  O395  1  0.38393138  0.49135640  0.49994599  1
  O  O396  1  0.38644188  0.50774252  0.99865894  1
  O  O397  1  0.39044148  1.02696269  0.47456474  1
  O  O398  1  0.38422637  0.98308842  1.00098757  1
  O  O399  1  0.88298330  0.50386902  0.48884825  1
  O  O400  1  0.87093439  0.49205246  0.99389287  1
  O  O401  1  0.88423684  0.99390185  0.50599186  1
  O  O402  1  0.86571447  0.98673011  0.99780755  1
  O  O403  1  0.12903992  0.01284517  0.01263991  1
  O  O404  1  0.11641278  0.00473171  0.50787220  1
  O  O405  1  0.12353586  0.49713067  0.01200162  1
  O  O406  1  0.10912285  0.49398266  0.50541707  1
  O  O407  1  0.61812317  -0.00428604  0.01076383  1
  O  O408  1  0.62563678  0.00803472  0.50834319  1
  O  O409  1  0.61862432  0.51314596  -0.00540589  1
  O  O410  1  0.61842005  0.50020499  0.50662561  1
  O  O411  1  0.37600599  0.38311928  0.11272268  1
  O  O412  1  0.36515193  0.36743807  0.61505159  1
  O  O413  1  0.36958630  0.86578309  0.11663161  1
  O  O414  1  0.37822541  0.85611079  0.62866592  1
  O  O415  1  0.86756592  0.37597408  0.12125147  1
  O  O416  1  0.87244441  0.36358582  0.62634405  1
  O  O417  1  0.86950205  0.87104627  0.12173730  1
  O  O418  1  0.87328134  0.87305105  0.61333847  1
  O  O419  1  0.12811560  0.12569063  0.37663336  1
  O  O420  1  0.14301727  0.12319517  0.87305548  1
  O  O421  1  0.13984451  0.63184128  0.38162909  1
  O  O422  1  0.13558525  0.62539813  0.87587888  1
  O  O423  1  0.62818044  0.13427791  0.38210129  1
  O  O424  1  0.64059302  0.13494767  0.87309196  1
  O  O425  1  0.63091725  0.63647010  0.37565732  1
  O  O426  1  0.62933976  0.63091716  0.87929978  1
