# generated using pymatgen
data_V85Zn86O256
_symmetry_space_group_name_H-M   'P 1'
_cell_length_a   16.94678875
_cell_length_b   16.94247988
_cell_length_c   16.93716107
_cell_angle_alpha   90.05221889
_cell_angle_beta   90.00604784
_cell_angle_gamma   90.08177209
_symmetry_Int_Tables_number   1
_chemical_formula_structural   V85Zn86O256
_chemical_formula_sum   'V85 Zn86 O256'
_cell_volume   4863.00131339
_cell_formula_units_Z   1
loop_
 _symmetry_equiv_pos_site_id
 _symmetry_equiv_pos_as_xyz
  1  'x, y, z'
loop_
 _atom_site_type_symbol
 _atom_site_label
 _atom_site_symmetry_multiplicity
 _atom_site_fract_x
 _atom_site_fract_y
 _atom_site_fract_z
 _atom_site_occupancy
  V  V0  1  0.12454469  0.00023643  0.12736480  1
  V  V1  1  0.50084817  0.12595578  0.62839923  1
  V  V2  1  0.25851621  0.37755655  0.12059559  1
  V  V3  1  0.88563296  0.74829266  0.13670591  1
  V  V4  1  0.49994705  -0.00367620  0.49973309  1
  V  V5  1  0.11466993  0.61348775  0.01207087  1
  V  V6  1  0.24931204  0.00174610  0.75419824  1
  V  V7  1  -0.00191666  0.50020209  0.49787568  1
  V  V8  1  0.62732916  0.62445057  0.49728189  1
  V  V9  1  0.49927159  0.49771334  0.49859771  1
  V  V10  1  0.13021189  0.24622215  0.87552423  1
  V  V11  1  -0.00429697  0.12750273  0.13592257  1
  V  V12  1  -0.00080315  0.87922134  0.87479361  1
  V  V13  1  0.37381070  -0.00005406  0.37445016  1
  V  V14  1  0.37281985  0.00259654  0.87832746  1
  V  V15  1  0.87383588  0.00902702  0.36985835  1
  V  V16  1  0.25160644  0.49698469  0.74634014  1
  V  V17  1  0.76138116  0.62281251  0.37143922  1
  V  V18  1  0.13254856  0.12374143  -0.00155021  1
  V  V19  1  0.37660052  0.63005157  0.25663658  1
  V  V20  1  0.86318492  0.24892961  0.11951510  1
  V  V21  1  0.24814993  0.62284882  0.87702766  1
  V  V22  1  0.75332685  -0.00519239  0.75339656  1
  V  V23  1  0.87778503  0.49385862  0.88717047  1
  V  V24  1  -0.00496779  0.00223558  -0.00048675  1
  V  V25  1  0.92697857  0.56820626  0.19631487  1
  V  V26  1  0.61472790  0.74794658  0.87072005  1
  V  V27  1  0.74964100  0.38095553  0.11099119  1
  V  V28  1  0.49990057  0.61729009  0.12860947  1
  V  V29  1  -0.00220726  0.12440409  0.62653246  1
  V  V30  1  0.62724777  0.12609811  0.50013357  1
  V  V31  1  0.63293696  -0.00474974  0.62493920  1
  V  V32  1  0.12783299  0.37425322  0.74624062  1
  V  V33  1  0.87586041  0.87301861  -0.00392682  1
  V  V34  1  0.75049849  0.25083267  0.49638417  1
  V  V35  1  0.87495409  0.12242994  0.75681032  1
  V  V36  1  0.12596087  0.37708305  0.24312548  1
  V  V37  1  0.62340089  0.24761955  0.88030500  1
  V  V38  1  0.61579722  0.25118493  0.37153995  1
  V  V39  1  0.24741045  0.50462889  0.24741271  1
  V  V40  1  0.74826929  0.62185082  0.87426067  1
  V  V41  1  0.61796913  0.37149120  0.74798254  1
  V  V42  1  0.12279870  0.12373024  0.49971512  1
  V  V43  1  0.36414513  0.37772969  0.50512237  1
  V  V44  1  -0.00094937  0.75066465  0.74963793  1
  V  V45  1  0.38068917  0.48824988  0.88033325  1
  V  V46  1  -0.00339125  0.37893086  0.36898440  1
  V  V47  1  0.26015047  0.25067705  -0.00057407  1
  V  V48  1  0.87490445  0.38069250  0.49432385  1
  V  V49  1  0.87340988  0.62190674  0.74888648  1
  V  V50  1  0.74912476  0.75110925  0.00274688  1
  V  V51  1  0.75384670  0.12670550  0.88002489  1
  V  V52  1  0.87137142  0.76152947  0.62236912  1
  V  V53  1  0.74405086  0.00486876  0.24227093  1
  V  V54  1  -0.00215731  0.25379628  0.75263813  1
  V  V55  1  0.50986307  0.00054782  0.00635921  1
  V  V56  1  0.12577463  -0.00258012  0.62469584  1
  V  V57  1  0.37289602  0.12483686  0.75482002  1
  V  V58  1  0.12467738  0.74899903  0.87550501  1
  V  V59  1  0.75000072  0.37816481  0.62343865  1
  V  V60  1  0.24997372  0.87536160  0.12815618  1
  V  V61  1  0.36836261  0.25490755  0.62747059  1
  V  V62  1  0.12794118  0.62615082  0.49593660  1
  V  V63  1  0.37876560  0.63092502  0.75362546  1
  V  V64  1  0.61925658  0.75453197  0.36902613  1
  V  V65  1  0.62175711  0.37644377  0.24782587  1
  V  V66  1  0.24938560  0.74860396  0.00144415  1
  V  V67  1  0.12544883  0.75114170  0.36824809  1
  V  V68  1  0.12669770  0.49825639  0.62513100  1
  V  V69  1  0.36792822  0.50410622  0.37663116  1
  V  V70  1  -0.01022648  0.86846157  0.36851769  1
  V  V71  1  0.12341686  0.25151801  0.37412276  1
  V  V72  1  -0.00810357  -0.00780161  0.50052725  1
  V  V73  1  0.38230802  0.75173826  0.13063959  1
  V  V74  1  0.61953308  0.62228876  0.00423510  1
  V  V75  1  0.24966726  0.74978942  0.49659849  1
  V  V76  1  0.50176526  0.63001391  0.62793265  1
  V  V77  1  0.75344105  0.76229905  0.50166597  1
  V  V78  1  0.37631040  0.75235583  0.62690422  1
  V  V79  1  0.62309110  0.86982255  0.74645092  1
  V  V80  1  0.50806453  0.13143296  0.13153741  1
  V  V81  1  0.37519960  0.87653285  0.00057124  1
  V  V82  1  -0.00161883  0.62566983  0.62400885  1
  V  V83  1  0.25017444  0.12732538  0.37476302  1
  V  V84  1  0.74744567  0.50139986  0.25123293  1
  Zn  Zn85  1  0.49520606  0.87059512  0.36601032  1
  Zn  Zn86  1  -0.01043843  0.24826045  0.25233387  1
  Zn  Zn87  1  0.49250919  0.37053653  0.36692449  1
  Zn  Zn88  1  0.62435065  0.50054182  0.62703529  1
  Zn  Zn89  1  0.63545053  0.12242395  0.00653601  1
  Zn  Zn90  1  0.38175864  0.13382796  0.25354746  1
  Zn  Zn91  1  0.37997120  0.25243439  0.13543952  1
  Zn  Zn92  1  0.49865616  0.87364542  0.87207730  1
  Zn  Zn93  1  0.11935820  0.86991412  0.24682546  1
  Zn  Zn94  1  0.12646553  0.87405621  0.75131002  1
  Zn  Zn95  1  0.37393109  0.87451205  0.50012568  1
  Zn  Zn96  1  0.87479930  0.25092695  0.62555852  1
  Zn  Zn97  1  0.25070054  0.87479230  0.62650686  1
  Zn  Zn98  1  0.49677812  0.25446530  0.75472474  1
  Zn  Zn99  1  0.24491665  0.25486799  0.50603358  1
  Zn  Zn100  1  0.74825473  0.49639799  0.75174155  1
  Zn  Zn101  1  0.75379712  0.13042899  0.36978674  1
  Zn  Zn102  1  0.24986482  0.00147158  0.25118731  1
  Zn  Zn103  1  0.74874005  0.87791416  0.12574442  1
  Zn  Zn104  1  0.49186847  0.48709215  0.00550754  1
  Zn  Zn105  1  0.61556485  0.87850876  0.23404127  1
  Zn  Zn106  1  0.00071369  0.37743160  0.88838752  1
  Zn  Zn107  1  0.18959221  0.19019317  0.18817030  1
  Zn  Zn108  1  0.18818308  0.18340264  0.68937718  1
  Zn  Zn109  1  0.18987604  0.68488084  0.18720492  1
  Zn  Zn110  1  0.18836269  0.68662352  0.68674851  1
  Zn  Zn111  1  0.68874026  0.18794103  0.18983814  1
  Zn  Zn112  1  0.68988709  0.18852964  0.68834425  1
  Zn  Zn113  1  0.68779853  0.69106512  0.18617453  1
  Zn  Zn114  1  0.68889731  0.68882480  0.68542490  1
  Zn  Zn115  1  0.31223023  0.31310512  0.31356166  1
  Zn  Zn116  1  0.30898461  0.31235963  0.81209503  1
  Zn  Zn117  1  0.31140926  0.81436924  0.31330221  1
  Zn  Zn118  1  0.31212065  0.81462908  0.81273440  1
  Zn  Zn119  1  0.81309308  0.31415306  0.30606957  1
  Zn  Zn120  1  0.80767810  0.31293979  0.81377841  1
  Zn  Zn121  1  0.80684758  0.81697928  0.31370691  1
  Zn  Zn122  1  0.80969578  0.81068601  0.81329862  1
  Zn  Zn123  1  0.18700679  0.43955320  0.43467435  1
  Zn  Zn124  1  0.18510395  0.43467899  0.93656750  1
  Zn  Zn125  1  0.18589707  0.93349263  0.43839402  1
  Zn  Zn126  1  0.18744765  0.93783069  0.93903308  1
  Zn  Zn127  1  0.68593321  0.43860313  0.43266898  1
  Zn  Zn128  1  0.64424151  0.41584923  0.95554496  1
  Zn  Zn129  1  0.68964538  0.93857345  0.43415411  1
  Zn  Zn130  1  0.68975330  0.93537392  0.93242426  1
  Zn  Zn131  1  0.31690496  0.06658621  0.06666555  1
  Zn  Zn132  1  0.31167394  0.06460519  0.56246102  1
  Zn  Zn133  1  0.31095212  0.56203249  0.06351035  1
  Zn  Zn134  1  0.31099817  0.56690713  0.56404136  1
  Zn  Zn135  1  0.81785501  0.06356538  0.06419034  1
  Zn  Zn136  1  0.81423430  0.06249275  0.56311654  1
  Zn  Zn137  1  0.80196248  0.56372562  0.06237286  1
  Zn  Zn138  1  0.81203431  0.56354307  0.56044050  1
  Zn  Zn139  1  0.43497277  0.43690689  0.18986449  1
  Zn  Zn140  1  0.43706822  0.44146094  0.68749772  1
  Zn  Zn141  1  0.43930259  0.94287871  0.19080370  1
  Zn  Zn142  1  0.44218886  0.93732770  0.68914334  1
  Zn  Zn143  1  0.93687984  0.43118564  0.06293401  1
  Zn  Zn144  1  0.93611031  0.43725345  0.68777487  1
  Zn  Zn145  1  0.93216615  0.93543653  0.18752731  1
  Zn  Zn146  1  0.93648359  0.93892867  0.69093159  1
  Zn  Zn147  1  0.06337588  0.05832085  0.31305764  1
  Zn  Zn148  1  0.06277052  0.06355062  0.81490780  1
  Zn  Zn149  1  0.06614876  0.56062742  0.31511220  1
  Zn  Zn150  1  0.06074054  0.56201815  0.81585043  1
  Zn  Zn151  1  0.56519127  0.06213046  0.31437872  1
  Zn  Zn152  1  0.56343314  0.06081616  0.81431154  1
  Zn  Zn153  1  0.56169680  0.56167648  0.31264451  1
  Zn  Zn154  1  0.56244983  0.55964213  0.81050988  1
  Zn  Zn155  1  0.43555557  0.18767608  0.44247588  1
  Zn  Zn156  1  0.44379733  0.18477651  0.93889183  1
  Zn  Zn157  1  0.43768576  0.68581437  0.43975866  1
  Zn  Zn158  1  0.43561718  0.68486239  0.94125739  1
  Zn  Zn159  1  0.93842340  0.18924542  0.43956755  1
  Zn  Zn160  1  0.94019777  0.19083518  0.94115617  1
  Zn  Zn161  1  0.93747016  0.68912381  0.43735242  1
  Zn  Zn162  1  0.93685213  0.68702536  0.93859684  1
  Zn  Zn163  1  0.06580177  0.30727171  0.06447969  1
  Zn  Zn164  1  0.06047381  0.31282992  0.56342275  1
  Zn  Zn165  1  0.06305959  0.80759701  0.06133375  1
  Zn  Zn166  1  0.06037444  0.81384652  0.56035549  1
  Zn  Zn167  1  0.56633291  0.30912107  0.06374889  1
  Zn  Zn168  1  0.55948568  0.31267561  0.56278355  1
  Zn  Zn169  1  0.56171869  0.81184624  0.06157361  1
  Zn  Zn170  1  0.56492963  0.81305404  0.56012735  1
  O  O171  1  0.11922766  0.11800620  0.11966575  1
  O  O172  1  0.11879281  0.11418191  0.62216214  1
  O  O173  1  0.12757544  0.62836496  0.11133876  1
  O  O174  1  0.11789095  0.62126003  0.61619621  1
  O  O175  1  0.61442905  0.12819857  0.12189497  1
  O  O176  1  0.61817926  0.11958172  0.62096838  1
  O  O177  1  0.61037284  0.63819105  0.11813916  1
  O  O178  1  0.61906899  0.62525184  0.61476121  1
  O  O179  1  0.37588974  0.38400307  0.38656000  1
  O  O180  1  0.37413186  0.38988811  0.86679634  1
  O  O181  1  0.37509963  0.88522365  0.37966688  1
  O  O182  1  0.37765402  0.88238546  0.88124557  1
  O  O183  1  0.88450623  0.37053773  0.38227177  1
  O  O184  1  0.87216064  0.39143072  0.87048515  1
  O  O185  1  0.88601050  0.88209820  0.37531989  1
  O  O186  1  0.88391762  0.86742709  0.88668498  1
  O  O187  1  0.25603512  0.00680011  0.37808081  1
  O  O188  1  0.26228975  -0.00320007  0.86994545  1
  O  O189  1  0.26126704  0.49881296  0.36846187  1
  O  O190  1  0.25734151  0.50614978  0.86611424  1
  O  O191  1  0.76269277  0.00254682  0.37220891  1
  O  O192  1  0.74488666  0.00922675  0.86025875  1
  O  O193  1  0.74718114  0.51561565  0.37157098  1
  O  O194  1  0.76239440  0.51465701  0.87328803  1
  O  O195  1  0.25454962  0.49154272  0.13498098  1
  O  O196  1  0.24370474  0.50883811  0.63868501  1
  O  O197  1  0.24254465  0.99350795  0.12434607  1
  O  O198  1  0.24177458  0.99904719  0.63133082  1
  O  O199  1  0.75019816  0.48873069  0.13333433  1
  O  O200  1  0.74711564  0.48888388  0.62268189  1
  O  O201  1  0.75783010  0.99974278  0.13890923  1
  O  O202  1  0.73908546  1.00671773  0.63314412  1
  O  O203  1  0.01123028  0.37412973  0.26385872  1
  O  O204  1  0.00443600  0.36400540  0.75089461  1
  O  O205  1  0.00064581  0.87929190  0.26490336  1
  O  O206  1  0.00100663  0.87075272  0.75965839  1
  O  O207  1  0.51567260  0.38261081  0.24970170  1
  O  O208  1  0.51345662  0.37471702  0.74290760  1
  O  O209  1  0.50393997  0.88020647  0.25392101  1
  O  O210  1  0.51703969  0.87993256  0.75405708  1
  O  O211  1  0.50341232  0.11732940  0.23449099  1
  O  O212  1  0.49333431  0.12194427  0.73965810  1
  O  O213  1  0.48726948  0.62075273  0.24408256  1
  O  O214  1  0.49126868  0.62257593  0.74064403  1
  O  O215  1  1.00409265  0.12308064  0.23874770  1
  O  O216  1  0.99411212  0.13252536  0.74869385  1
  O  O217  1  0.98922140  0.61946320  0.25623680  1
  O  O218  1  0.99277141  0.63102166  0.74572686  1
  O  O219  1  0.36190955  0.24254632  -0.00483733  1
  O  O220  1  0.37264588  0.26088880  0.50893482  1
  O  O221  1  0.36820746  0.75629684  0.00722411  1
  O  O222  1  0.36688564  0.74931659  0.50768516  1
  O  O223  1  0.88433047  0.25157012  0.01915948  1
  O  O224  1  0.86795831  0.25978157  0.50160900  1
  O  O225  1  0.86861978  0.75456525  0.00561321  1
  O  O226  1  0.86202190  0.74599900  0.50723018  1
  O  O227  1  0.12338308  0.24494701  0.49186387  1
  O  O228  1  0.13249129  0.24024623  0.99276391  1
  O  O229  1  0.13035571  0.74481995  0.49537056  1
  O  O230  1  0.13237263  0.74284872  0.99303069  1
  O  O231  1  0.63228676  0.24725487  0.49540958  1
  O  O232  1  0.63059659  0.24292414  0.98293986  1
  O  O233  1  0.63650921  0.74326035  0.49579819  1
  O  O234  1  0.63209961  0.74292872  0.98917613  1
  O  O235  1  0.49810975  0.23497172  0.11668101  1
  O  O236  1  0.48900936  0.24041674  0.62569780  1
  O  O237  1  0.48493162  0.74266245  0.11875202  1
  O  O238  1  0.49328432  0.73797191  0.61538815  1
  O  O239  1  0.99773978  0.23983630  0.13070471  1
  O  O240  1  1.00045846  0.24223150  0.63500299  1
  O  O241  1  0.98502868  0.75309413  0.12470957  1
  O  O242  1  0.99291856  0.74532461  0.62868945  1
  O  O243  1  0.00668398  0.25603794  0.37316920  1
  O  O244  1  0.01087787  0.25216553  0.86811115  1
  O  O245  1  0.00569495  0.76387597  0.38308737  1
  O  O246  1  0.00408333  0.75882387  0.86991118  1
  O  O247  1  0.51164401  0.25246182  0.38559829  1
  O  O248  1  0.51782262  0.24286565  0.87105663  1
  O  O249  1  0.51584312  0.75078802  0.38580577  1
  O  O250  1  0.51153503  0.74836986  0.87856864  1
  O  O251  1  0.24113058  0.12655771  0.49133125  1
  O  O252  1  0.23812655  0.13008731  1.00668928  1
  O  O253  1  0.24001125  0.63698928  0.50555703  1
  O  O254  1  0.24618049  0.63034574  0.99227259  1
  O  O255  1  0.74608859  0.13528033  0.49936057  1
  O  O256  1  0.75207114  0.11203038  0.98461591  1
  O  O257  1  0.74276364  0.62796126  0.49014339  1
  O  O258  1  0.74370651  0.63401831  0.99258978  1
  O  O259  1  0.24090546  0.36449280  0.01000427  1
  O  O260  1  0.26025170  0.37764033  0.50174714  1
  O  O261  1  0.25447398  0.87095205  0.01029036  1
  O  O262  1  0.25097709  0.86424549  0.50669940  1
  O  O263  1  0.74108079  0.38478782  0.01267344  1
  O  O264  1  0.75627775  0.37172068  0.50192816  1
  O  O265  1  0.75983422  0.86830652  -0.00420960  1
  O  O266  1  0.74882342  0.86072943  0.49804434  1
  O  O267  1  0.13839842  0.49144936  0.25937808  1
  O  O268  1  0.13089933  0.49343580  0.74784302  1
  O  O269  1  0.12675670  0.99691652  0.23720888  1
  O  O270  1  0.13241208  1.00113347  0.74430787  1
  O  O271  1  0.63618050  0.49286745  0.25674575  1
  O  O272  1  0.62894848  0.48983287  0.74820764  1
  O  O273  1  0.64132392  0.99709518  0.25870205  1
  O  O274  1  0.63218954  0.99427939  0.74252876  1
  O  O275  1  0.37127005  0.00846463  0.26436607  1
  O  O276  1  0.37018394  0.00481002  0.75609717  1
  O  O277  1  0.36809834  0.50534144  0.25989270  1
  O  O278  1  0.36832614  0.51063076  0.75534325  1
  O  O279  1  0.86709046  -0.00336640  0.26381587  1
  O  O280  1  0.86631668  0.00910241  0.74695874  1
  O  O281  1  0.85809560  0.51081537  0.24958803  1
  O  O282  1  0.87195051  0.51164420  0.75263087  1
  O  O283  1  0.12054114  0.36682880  0.37184594  1
  O  O284  1  0.12237409  0.36864073  0.86142293  1
  O  O285  1  0.11372488  0.86852349  0.37256328  1
  O  O286  1  0.11769037  0.86804414  0.87572769  1
  O  O287  1  0.62026423  0.36796342  0.36949778  1
  O  O288  1  0.64381489  0.35438642  0.85854410  1
  O  O289  1  0.62441942  0.85996844  0.37998746  1
  O  O290  1  0.62356138  0.86404248  0.86763436  1
  O  O291  1  0.38967145  0.12781554  0.12864535  1
  O  O292  1  0.38165020  0.12871212  0.63459554  1
  O  O293  1  0.37966787  0.63333219  0.13165067  1
  O  O294  1  0.38094253  0.63464025  0.63221432  1
  O  O295  1  0.88318903  0.13618037  0.12320752  1
  O  O296  1  0.88057659  0.12798982  0.63635266  1
  O  O297  1  0.87351307  0.63324777  0.12790095  1
  O  O298  1  0.87913269  0.63023002  0.63194356  1
  O  O299  1  0.25226013  0.25661299  0.11623056  1
  O  O300  1  0.26342406  0.24238456  0.62453093  1
  O  O301  1  0.25801410  0.75750017  0.12113687  1
  O  O302  1  0.25881207  0.75143391  0.61967379  1
  O  O303  1  0.75711206  0.25651198  0.12321744  1
  O  O304  1  0.74990860  0.26023010  0.61256168  1
  O  O305  1  0.75998656  0.74530702  0.11113795  1
  O  O306  1  0.75667490  0.74398397  0.60975267  1
  O  O307  1  0.24056082  0.24429107  0.38193552  1
  O  O308  1  0.23777586  0.25395808  0.88126594  1
  O  O309  1  0.24015785  0.75655225  0.38628798  1
  O  O310  1  0.24580681  0.74270454  0.87943713  1
  O  O311  1  0.74499442  0.25191649  0.38533427  1
  O  O312  1  0.74187077  0.23498552  0.86553591  1
  O  O313  1  0.74377926  0.74252310  0.38443145  1
  O  O314  1  0.74581864  0.73948190  0.88359383  1
  O  O315  1  0.00939540  0.11627806  0.00623749  1
  O  O316  1  0.00412726  0.11523696  0.50549352  1
  O  O317  1  0.01632369  0.62799359  -0.00675177  1
  O  O318  1  0.00502472  0.62021462  0.50478435  1
  O  O319  1  0.50483232  0.11318242  0.00712921  1
  O  O320  1  0.50367736  0.11585046  0.51141513  1
  O  O321  1  0.50449902  0.62226582  0.00873091  1
  O  O322  1  0.50644640  0.61565895  0.50531284  1
  O  O323  1  0.49121643  0.38881062  0.50326242  1
  O  O324  1  0.53855324  0.38691540  0.99097313  1
  O  O325  1  0.49906268  0.88807185  0.49893867  1
  O  O326  1  0.49286318  0.88581046  0.99837700  1
  O  O327  1  0.99293377  0.37841681  0.49309878  1
  O  O328  1  1.01077216  0.37830503  1.00051611  1
  O  O329  1  1.00345038  0.88686910  0.48934596  1
  O  O330  1  0.99596582  0.88021179  0.99410917  1
  O  O331  1  0.48777711  0.49953903  0.38358754  1
  O  O332  1  0.48198859  0.50850634  0.87487202  1
  O  O333  1  0.49171142  1.00431527  0.38547905  1
  O  O334  1  0.48919912  1.00051487  0.88449568  1
  O  O335  1  1.00645022  0.48973211  0.38623829  1
  O  O336  1  0.98138568  0.49923225  0.86911483  1
  O  O337  1  0.99079426  0.99302495  0.37989985  1
  O  O338  1  1.00654048  0.98781809  0.88357868  1
  O  O339  1  0.00496992  0.00381820  0.11920123  1
  O  O340  1  0.00401123  0.00324450  0.61861658  1
  O  O341  1  -0.01960828  0.50542978  0.14058602  1
  O  O342  1  0.00649352  0.50504797  0.61944879  1
  O  O343  1  0.49523183  0.00862253  0.11054009  1
  O  O344  1  0.50925951  0.00655825  0.61983442  1
  O  O345  1  0.48976664  0.51315426  0.12186404  1
  O  O346  1  0.49928864  0.51362363  0.61740092  1
  O  O347  1  0.24462159  0.38429846  0.24580906  1
  O  O348  1  0.24139740  0.38503456  0.75082328  1
  O  O349  1  0.24700770  0.87794036  0.23787600  1
  O  O350  1  0.24840518  0.88775440  0.74750863  1
  O  O351  1  0.74219076  0.38664704  0.25015804  1
  O  O352  1  0.74454185  0.37450024  0.73662592  1
  O  O353  1  0.74682288  0.88980886  0.25035641  1
  O  O354  1  0.74066169  0.88414070  0.75590165  1
  O  O355  1  0.24621100  0.12334111  0.26582306  1
  O  O356  1  0.25871809  0.11144972  0.74750404  1
  O  O357  1  0.26191300  0.61405190  0.24484736  1
  O  O358  1  0.25593699  0.61910053  0.75788630  1
  O  O359  1  0.74883922  0.11131939  0.25372289  1
  O  O360  1  0.75889897  0.11820663  0.75422611  1
  O  O361  1  0.74087069  0.62126864  0.26475073  1
  O  O362  1  0.75655357  0.62420827  0.75613987  1
  O  O363  1  0.36563959  0.11957744  0.37963261  1
  O  O364  1  0.38057639  0.11878432  0.86222214  1
  O  O365  1  0.37758429  0.61897358  0.36785715  1
  O  O366  1  0.36458718  0.62321872  0.86896388  1
  O  O367  1  0.87728455  0.11250896  0.37668902  1
  O  O368  1  0.87159655  0.13075288  0.86490789  1
  O  O369  1  0.85977243  0.62990269  0.37759732  1
  O  O370  1  0.86936974  0.62065869  0.86778070  1
  O  O371  1  0.13540000  0.36730173  0.14046146  1
  O  O372  1  0.12020145  0.38032620  0.63741515  1
  O  O373  1  0.13122553  0.88051108  0.12442505  1
  O  O374  1  0.12265304  0.88736537  0.62795445  1
  O  O375  1  0.64158765  0.36335339  0.13712858  1
  O  O376  1  0.63228052  0.37545492  0.62925797  1
  O  O377  1  0.63705365  0.86157754  0.12318557  1
  O  O378  1  0.62292043  0.88398475  0.63115187  1
  O  O379  1  0.12525139  0.25733881  0.26240733  1
  O  O380  1  0.12109319  0.25383730  0.75489650  1
  O  O381  1  0.13106543  0.74793507  0.26450502  1
  O  O382  1  0.11816175  0.75084966  0.75557121  1
  O  O383  1  0.63305017  0.25931252  0.26351186  1
  O  O384  1  0.62080867  0.25443458  0.75209313  1
  O  O385  1  0.63087207  0.75061645  0.26789321  1
  O  O386  1  0.63277085  0.75748957  0.75747497  1
  O  O387  1  0.37459221  0.24740670  0.25111461  1
  O  O388  1  0.37599930  0.24265584  0.74654474  1
  O  O389  1  0.36819137  0.74115564  0.24374601  1
  O  O390  1  0.36971016  0.73887972  0.74416634  1
  O  O391  1  0.87602926  0.25548988  0.23063272  1
  O  O392  1  0.88346279  0.24531690  0.74935559  1
  O  O393  1  0.86789792  0.75707686  0.23464413  1
  O  O394  1  0.87716057  0.73977382  0.74469050  1
  O  O395  1  0.37791127  0.49806470  0.49699304  1
  O  O396  1  0.37239189  0.50129775  0.98446710  1
  O  O397  1  0.38253416  0.99995820  0.49461001  1
  O  O398  1  0.38026780  0.99730056  0.99324130  1
  O  O399  1  0.88075531  0.48816048  0.50385874  1
  O  O400  1  0.87304753  0.50427598  0.99035638  1
  O  O401  1  0.88178112  1.00223372  0.48932824  1
  O  O402  1  0.88849616  0.99066670  1.00419835  1
  O  O403  1  0.11826492  0.00421819  0.00908344  1
  O  O404  1  0.11732780  0.00368123  0.50736264  1
  O  O405  1  0.13100890  0.51546109  -0.00502439  1
  O  O406  1  0.12244959  0.50781805  0.50503303  1
  O  O407  1  0.61185816  -0.00045852  -0.00870798  1
  O  O408  1  0.62120086  0.00465112  0.50561079  1
  O  O409  1  0.63042669  0.52234216  -0.00270935  1
  O  O410  1  0.61619016  0.50741754  0.49971854  1
  O  O411  1  0.36344232  0.37219806  0.12611269  1
  O  O412  1  0.37890326  0.36676407  0.62003753  1
  O  O413  1  0.36837831  0.87062135  0.12211988  1
  O  O414  1  0.37840916  0.86208429  0.62655532  1
  O  O415  1  0.85700401  0.36685572  0.12129609  1
  O  O416  1  0.86751434  0.37273740  0.61684769  1
  O  O417  1  0.87235446  0.86489378  0.11389592  1
  O  O418  1  0.87786713  0.86076975  0.63100673  1
  O  O419  1  0.12809156  0.13077105  0.37977351  1
  O  O420  1  0.12187590  0.13307946  0.88523053  1
  O  O421  1  0.11924474  0.63456481  0.38906440  1
  O  O422  1  0.13621174  0.62876811  0.87580458  1
  O  O423  1  0.62766628  0.13383206  0.38353054  1
  O  O424  1  0.63510593  0.13305285  0.87089009  1
  O  O425  1  0.62724038  0.63441440  0.38491851  1
  O  O426  1  0.63131942  0.63070058  0.87651837  1
