# generated using pymatgen
data_V85Zn86O256
_symmetry_space_group_name_H-M   'P 1'
_cell_length_a   16.90994919
_cell_length_b   16.90908337
_cell_length_c   16.91043596
_cell_angle_alpha   89.98795593
_cell_angle_beta   90.02863680
_cell_angle_gamma   90.00419944
_symmetry_Int_Tables_number   1
_chemical_formula_structural   V85Zn86O256
_chemical_formula_sum   'V85 Zn86 O256'
_cell_volume   4835.22966734
_cell_formula_units_Z   1
loop_
 _symmetry_equiv_pos_site_id
 _symmetry_equiv_pos_as_xyz
  1  'x, y, z'
loop_
 _atom_site_type_symbol
 _atom_site_label
 _atom_site_symmetry_multiplicity
 _atom_site_fract_x
 _atom_site_fract_y
 _atom_site_fract_z
 _atom_site_occupancy
  V  V0  1  0.74689144  0.13071007  0.87669682  1
  V  V1  1  0.00136500  0.61711932  0.62568133  1
  V  V2  1  0.62486318  0.12422707  0.50044611  1
  V  V3  1  0.87479417  0.74779080  0.62696256  1
  V  V4  1  0.50305332  0.36916335  0.87637227  1
  V  V5  1  0.62641958  0.86916827  0.75499336  1
  V  V6  1  0.49256536  0.49351889  0.50133666  1
  V  V7  1  0.50386659  0.87458155  0.37073622  1
  V  V8  1  0.74857856  0.25183591  0.00322166  1
  V  V9  1  0.37100612  0.00217843  0.35810110  1
  V  V10  1  0.50200092  0.74941415  0.75149989  1
  V  V11  1  0.25581909  0.38223062  0.61981601  1
  V  V12  1  0.24262573  0.12655568  0.89311207  1
  V  V13  1  -0.00673793  0.37942734  0.36797620  1
  V  V14  1  0.49993336  0.74690066  0.24813425  1
  V  V15  1  0.75243734  0.49995906  0.76577044  1
  V  V16  1  0.12953035  0.88138488  0.75141423  1
  V  V17  1  0.24953974  0.12236692  0.36082188  1
  V  V18  1  0.87919239  0.37768575  -0.01040286  1
  V  V19  1  0.87569812  0.12672150  0.75102976  1
  V  V20  1  0.62890127  0.36930372  0.74774861  1
  V  V21  1  0.36240407  0.37108277  0.00519689  1
  V  V22  1  -0.00008793  0.87775504  0.87627652  1
  V  V23  1  0.12651024  0.75258121  0.87558097  1
  V  V24  1  0.62332931  0.24939468  0.37453694  1
  V  V25  1  0.13839675  0.00174587  0.12640698  1
  V  V26  1  0.86991967  0.87518513  0.00624352  1
  V  V27  1  0.37422465  0.62471283  0.74966462  1
  V  V28  1  0.25473206  0.24935519  0.49959674  1
  V  V29  1  0.62593002  0.37465379  0.24789512  1
  V  V30  1  -0.00380520  0.49805605  -0.00888572  1
  V  V31  1  0.87184270  0.62125696  0.76349123  1
  V  V32  1  0.25154780  0.62585892  0.36417051  1
  V  V33  1  0.49782246  0.24208416  0.24533626  1
  V  V34  1  0.00091989  0.00038282  0.49737290  1
  V  V35  1  0.13374020  0.63093019  0.50548772  1
  V  V36  1  -0.00047986  0.62814590  0.13092920  1
  V  V37  1  0.49749075  -0.00007159  0.49809683  1
  V  V38  1  0.24986947  0.62530998  0.87438184  1
  V  V39  1  0.37323735  0.49681256  0.87442616  1
  V  V40  1  0.62876654  0.75165606  0.36715337  1
  V  V41  1  0.36210457  0.24573472  0.12452674  1
  V  V42  1  0.86908585  0.25595282  0.62373400  1
  V  V43  1  0.36949232  0.87357737  0.49670670  1
  V  V44  1  0.75156679  0.12592634  0.37074861  1
  V  V45  1  0.75280168  0.61641873  0.37553076  1
  V  V46  1  0.50094652  0.62337741  0.62319867  1
  V  V47  1  0.74838467  0.74467878  -0.01281752  1
  V  V48  1  0.62818503  -0.01191402  0.12562138  1
  V  V49  1  0.12303612  0.62427859  0.00118252  1
  V  V50  1  0.86725811  0.38196455  0.49927203  1
  V  V51  1  0.63538221  0.49732418  0.62403761  1
  V  V52  1  0.74941136  -0.00030949  0.75113194  1
  V  V53  1  0.24994085  0.87632957  0.62451830  1
  V  V54  1  0.00100121  0.12413581  0.12141778  1
  V  V55  1  0.50141632  0.49905180  -0.00007153  1
  V  V56  1  0.13450572  0.49662852  0.12886841  1
  V  V57  1  0.74934042  0.87462162  0.62520361  1
  V  V58  1  0.11817843  0.37782284  0.74232925  1
  V  V59  1  0.87744417  0.87494825  0.50053862  1
  V  V60  1  0.00192735  0.50069013  0.49614472  1
  V  V61  1  0.37063380  0.74988722  0.62193524  1
  V  V62  1  0.13107966  0.00435174  0.62670547  1
  V  V63  1  0.14516914  0.87279864  0.24487056  1
  V  V64  1  0.62774840  0.50441335  0.12518345  1
  V  V65  1  -0.00039947  0.12925760  0.62448860  1
  V  V66  1  0.74820927  0.74917697  0.49966832  1
  V  V67  1  0.00037166  0.74960626  0.74958428  1
  V  V68  1  0.49147644  0.37318109  0.37811787  1
  V  V69  1  0.14051720  0.37844228  0.25247717  1
  V  V70  1  0.50123051  0.86923090  0.87665261  1
  V  V71  1  0.35861424  0.12113677  0.74741967  1
  V  V72  1  0.49933717  0.12379305  0.62741383  1
  V  V73  1  0.12432328  0.25635504  0.88564922  1
  V  V74  1  0.50170043  0.24448477  0.75571651  1
  V  V75  1  0.87942109  0.61951058  0.25578098  1
  V  V76  1  0.00061061  0.87100937  0.36205441  1
  V  V77  1  0.62235714  0.12939012  -0.00110047  1
  V  V78  1  0.24835376  0.75376352  0.00970345  1
  V  V79  1  0.86777635  0.74998807  0.13081638  1
  V  V80  1  0.62856079  0.62566013  -0.01571603  1
  V  V81  1  0.74807071  -0.01501485  0.24746440  1
  V  V82  1  0.37122605  0.87477093  0.00591127  1
  V  V83  1  0.49971531  -0.00001510  -0.00190589  1
  V  V84  1  0.87611419  0.00180152  0.87829970  1
  Zn  Zn85  1  0.74868004  0.25458651  0.50209850  1
  Zn  Zn86  1  0.12443118  0.25132264  0.37514674  1
  Zn  Zn87  1  0.37200077  0.74909280  0.12956430  1
  Zn  Zn88  1  0.36280921  0.49168583  0.37085172  1
  Zn  Zn89  1  0.62383810  0.62350397  0.49857418  1
  Zn  Zn90  1  0.12554885  0.75052079  0.37422670  1
  Zn  Zn91  1  0.36426972  -0.00217462  0.87168292  1
  Zn  Zn92  1  0.24513500  0.50095626  0.74477697  1
  Zn  Zn93  1  0.87663377  0.00199715  0.37179064  1
  Zn  Zn94  1  0.49705315  0.12243050  0.12760642  1
  Zn  Zn95  1  0.37683867  0.25340496  0.62167393  1
  Zn  Zn96  1  0.62439343  -0.00209691  0.62550454  1
  Zn  Zn97  1  0.75401709  0.49713003  0.25279541  1
  Zn  Zn98  1  0.50069978  0.62762919  0.12279755  1
  Zn  Zn99  1  0.87650429  0.12775849  0.24982502  1
  Zn  Zn100  1  0.00549545  0.00220572  0.00152218  1
  Zn  Zn101  1  0.37396690  0.61396524  0.24229032  1
  Zn  Zn102  1  -0.00069434  0.24984459  0.25102110  1
  Zn  Zn103  1  0.12571003  0.12796233  0.49620143  1
  Zn  Zn104  1  -0.00227389  0.25499169  0.75875025  1
  Zn  Zn105  1  0.75394799  0.37557516  0.12605029  1
  Zn  Zn106  1  0.87882243  0.25395151  0.12789307  1
  Zn  Zn107  1  0.18131968  0.18963895  0.18568630  1
  Zn  Zn108  1  0.18364999  0.19763334  0.68585563  1
  Zn  Zn109  1  0.18105955  0.68991915  0.19101475  1
  Zn  Zn110  1  0.18759319  0.68994282  0.68564462  1
  Zn  Zn111  1  0.68483770  0.18337422  0.18410094  1
  Zn  Zn112  1  0.68669589  0.18795079  0.68722021  1
  Zn  Zn113  1  0.68988999  0.68665612  0.18585239  1
  Zn  Zn114  1  0.68814199  0.68393827  0.69081970  1
  Zn  Zn115  1  0.31346682  0.30589049  0.31036107  1
  Zn  Zn116  1  0.30846063  0.30890769  0.80952204  1
  Zn  Zn117  1  0.31394641  0.80242731  0.31760493  1
  Zn  Zn118  1  0.31341519  0.81383935  0.81313313  1
  Zn  Zn119  1  0.81410463  0.31075725  0.31351281  1
  Zn  Zn120  1  0.81081225  0.31235029  0.81281803  1
  Zn  Zn121  1  0.81847006  0.80841275  0.31323672  1
  Zn  Zn122  1  0.81462133  0.81196219  0.81417999  1
  Zn  Zn123  1  0.18263692  0.44240459  0.44163302  1
  Zn  Zn124  1  0.18156647  0.43738107  0.93480227  1
  Zn  Zn125  1  0.18657127  0.93973349  0.43550959  1
  Zn  Zn126  1  0.18895855  0.94336666  0.94049258  1
  Zn  Zn127  1  0.68172266  0.43667539  0.43796455  1
  Zn  Zn128  1  0.68531138  0.43300329  0.93735621  1
  Zn  Zn129  1  0.68755283  0.93831229  0.43501108  1
  Zn  Zn130  1  0.68831621  0.93601900  0.93897224  1
  Zn  Zn131  1  0.31474439  0.06301616  0.06462313  1
  Zn  Zn132  1  0.31194365  0.06417656  0.55727486  1
  Zn  Zn133  1  0.31512353  0.56431159  0.06171231  1
  Zn  Zn134  1  0.31371750  0.55957362  0.55882551  1
  Zn  Zn135  1  0.81397828  0.06352185  0.06627997  1
  Zn  Zn136  1  0.81280368  0.06326186  0.56139094  1
  Zn  Zn137  1  0.81266558  0.56205251  0.06136291  1
  Zn  Zn138  1  0.81498043  0.56280386  0.56477171  1
  Zn  Zn139  1  0.43755244  0.43559023  0.18801034  1
  Zn  Zn140  1  0.43715219  0.43676621  0.68855810  1
  Zn  Zn141  1  0.44156410  0.93239483  0.18477428  1
  Zn  Zn142  1  0.43713200  0.94047021  0.68855453  1
  Zn  Zn143  1  0.93801101  0.43992516  0.18061794  1
  Zn  Zn144  1  0.93439475  0.43826744  0.68753972  1
  Zn  Zn145  1  0.93398575  0.94326672  0.18470390  1
  Zn  Zn146  1  0.93948236  0.94028563  0.68761324  1
  Zn  Zn147  1  0.06600512  0.05997908  0.30645189  1
  Zn  Zn148  1  0.06497540  0.06700257  0.81431570  1
  Zn  Zn149  1  0.06450658  0.56156995  0.31485514  1
  Zn  Zn150  1  0.06326742  0.56053050  0.81064879  1
  Zn  Zn151  1  0.56508406  0.05928561  0.31101791  1
  Zn  Zn152  1  0.56287108  0.05839344  0.81549416  1
  Zn  Zn153  1  0.56127837  0.56120140  0.31449686  1
  Zn  Zn154  1  0.56154787  0.55795486  0.81055347  1
  Zn  Zn155  1  0.43299850  0.18646339  0.43513350  1
  Zn  Zn156  1  0.43076564  0.18710714  0.93651094  1
  Zn  Zn157  1  0.43635048  0.68617633  0.43707516  1
  Zn  Zn158  1  0.43756635  0.68755551  0.94007958  1
  Zn  Zn159  1  0.93751323  0.19279408  0.43626776  1
  Zn  Zn160  1  0.94030181  0.19052265  0.94199460  1
  Zn  Zn161  1  0.93888288  0.68863107  0.43739547  1
  Zn  Zn162  1  0.93958690  0.68975659  0.94183700  1
  Zn  Zn163  1  0.06236181  0.31532766  0.06536257  1
  Zn  Zn164  1  0.06433714  0.31380634  0.55929996  1
  Zn  Zn165  1  0.05864077  0.81532497  0.06786915  1
  Zn  Zn166  1  0.06224135  0.81129267  0.56250771  1
  Zn  Zn167  1  0.56219294  0.31196761  0.06370603  1
  Zn  Zn168  1  0.56176338  0.31116144  0.56605859  1
  Zn  Zn169  1  0.56604097  0.80976756  0.06070376  1
  Zn  Zn170  1  0.56212273  0.81193964  0.56049336  1
  O  O171  1  0.11750563  0.11087464  0.13129958  1
  O  O172  1  0.11721703  0.11915373  0.62570031  1
  O  O173  1  0.11804696  0.61811516  0.12215214  1
  O  O174  1  0.11649539  0.63080140  0.61635378  1
  O  O175  1  0.62105514  0.11549668  0.11165269  1
  O  O176  1  0.61957750  0.12206711  0.61705971  1
  O  O177  1  0.62299938  0.61785845  0.11696118  1
  O  O178  1  0.61772932  0.61614157  0.62530509  1
  O  O179  1  0.38808675  0.37150950  0.37273004  1
  O  O180  1  0.38193320  0.37449505  0.88185264  1
  O  O181  1  0.37884609  0.87939533  0.38204842  1
  O  O182  1  0.38258490  0.87869079  0.88126058  1
  O  O183  1  0.88313971  0.37386235  0.38473577  1
  O  O184  1  0.87390829  0.37077753  0.88967955  1
  O  O185  1  0.88583571  0.87747206  0.38118664  1
  O  O186  1  0.88021686  0.88253644  0.88046661  1
  O  O187  1  0.25700912  0.01224262  0.37778473  1
  O  O188  1  0.24627256  0.01926691  0.87585807  1
  O  O189  1  0.24904575  0.51929360  0.38839239  1
  O  O190  1  0.25359768  0.51254421  0.87569857  1
  O  O191  1  0.74899775  0.00611693  0.36392167  1
  O  O192  1  0.75600599  0.00925202  0.87155274  1
  O  O193  1  0.74412884  0.51331228  0.37607176  1
  O  O194  1  0.74621641  0.50038858  0.86428501  1
  O  O195  1  0.23274853  0.50568414  0.11836085  1
  O  O196  1  0.25163952  0.48701792  0.62426027  1
  O  O197  1  0.23804051  1.00437546  0.12529403  1
  O  O198  1  0.23725838  0.99572027  0.62082309  1
  O  O199  1  0.73807355  0.49879454  0.12630417  1
  O  O200  1  0.73801498  0.50331632  0.63049393  1
  O  O201  1  0.74352048  1.00402136  0.13859400  1
  O  O202  1  0.75005334  0.99337675  0.63276991  1
  O  O203  1  0.00194381  0.38001410  0.25955540  1
  O  O204  1  0.01295754  0.37453482  0.74353405  1
  O  O205  1  -0.00392742  0.87908753  0.26197155  1
  O  O206  1  0.00675315  0.86995378  0.75495308  1
  O  O207  1  0.51155145  0.36480052  0.25683571  1
  O  O208  1  0.50416300  0.36592715  0.75643796  1
  O  O209  1  0.49685271  0.86465952  0.26324780  1
  O  O210  1  0.50647714  0.87202614  0.75633247  1
  O  O211  1  0.50536706  0.13789155  0.25042354  1
  O  O212  1  0.49947930  0.12998798  0.74796739  1
  O  O213  1  0.50314295  0.63770768  0.25151725  1
  O  O214  1  0.49450121  0.62866820  0.74386399  1
  O  O215  1  0.99902605  0.12571330  0.23981223  1
  O  O216  1  0.99276690  0.12625800  0.74089714  1
  O  O217  1  0.99469272  0.62264132  0.24323599  1
  O  O218  1  0.99610666  0.62853933  0.74343602  1
  O  O219  1  0.37914798  0.26212275  0.00968976  1
  O  O220  1  0.36160855  0.24733287  0.50206783  1
  O  O221  1  0.36530297  0.75698025  -0.00076901  1
  O  O222  1  0.38187167  0.76467456  0.50767354  1
  O  O223  1  0.86830225  0.26009235  0.00264051  1
  O  O224  1  0.87322038  0.26045869  0.50718360  1
  O  O225  1  0.86532575  0.75410543  0.00490480  1
  O  O226  1  0.86867437  0.75590668  0.50661378  1
  O  O227  1  0.13663108  0.24870239  0.49586646  1
  O  O228  1  0.12821439  0.26590348  0.98500892  1
  O  O229  1  0.11812385  0.73485117  0.49773073  1
  O  O230  1  0.13007266  0.74749026  0.99499608  1
  O  O231  1  0.62605527  0.23874894  0.49765002  1
  O  O232  1  0.63230493  0.24112344  1.00149242  1
  O  O233  1  0.63277109  0.74802384  0.49178838  1
  O  O234  1  0.64007152  0.74229606  1.00302685  1
  O  O235  1  0.49497026  0.24780134  0.13217180  1
  O  O236  1  0.49723045  0.24267904  0.63610136  1
  O  O237  1  0.50235883  0.75170642  0.13610209  1
  O  O238  1  0.49048011  0.74629035  0.63005392  1
  O  O239  1  1.00547916  0.23658828  0.12673202  1
  O  O240  1  0.99290873  0.23861605  0.62160381  1
  O  O241  1  0.98820365  0.73541328  0.11615383  1
  O  O242  1  0.99457197  0.74276098  0.63175638  1
  O  O243  1  0.00491667  0.26324860  0.37430549  1
  O  O244  1  0.01821207  0.24216855  0.87462667  1
  O  O245  1  0.00307012  0.76801458  0.38098919  1
  O  O246  1  0.00742738  0.75662297  0.86953926  1
  O  O247  1  0.50377248  0.25423519  0.36916963  1
  O  O248  1  0.49564466  0.25393550  0.86422581  1
  O  O249  1  0.50808791  0.75553522  0.37170703  1
  O  O250  1  0.49485453  0.76125153  0.86853256  1
  O  O251  1  0.24637358  0.13339206  0.49364226  1
  O  O252  1  0.25134668  0.12886854  0.99137521  1
  O  O253  1  0.23541763  0.62590837  0.50585517  1
  O  O254  1  0.24370109  0.63250443  0.99167809  1
  O  O255  1  0.74097633  0.12185604  0.48950423  1
  O  O256  1  0.74451444  0.13050237  0.99527990  1
  O  O257  1  0.75124692  0.63210661  0.49394569  1
  O  O258  1  0.74537982  0.63548390  0.99983482  1
  O  O259  1  0.26472037  0.37944508  -0.00540718  1
  O  O260  1  0.24217820  0.37006771  0.51266249  1
  O  O261  1  0.25910471  0.86495951  -0.01016561  1
  O  O262  1  0.25591676  0.87933656  0.51179994  1
  O  O263  1  0.75671670  0.36713462  -0.00101304  1
  O  O264  1  0.76265313  0.37725682  0.49567730  1
  O  O265  1  0.76094743  0.86332780  -0.00491689  1
  O  O266  1  0.75632756  0.87084884  0.50439223  1
  O  O267  1  0.12222631  0.49303507  0.23794876  1
  O  O268  1  0.12801345  0.48329341  0.75579366  1
  O  O269  1  0.12386506  0.98449904  0.23900750  1
  O  O270  1  0.11782847  0.98875355  0.74170521  1
  O  O271  1  0.62475351  0.49240030  0.24231607  1
  O  O272  1  0.63448505  0.49390086  0.74486743  1
  O  O273  1  0.63649293  1.00187233  0.24099929  1
  O  O274  1  0.63127644  0.98813214  0.74921368  1
  O  O275  1  0.38130869  -0.00417835  0.25916782  1
  O  O276  1  0.38094590  0.01715805  0.75422495  1
  O  O277  1  0.38710803  0.50225094  0.25941281  1
  O  O278  1  0.37175133  0.50685464  0.75705097  1
  O  O279  1  0.85966725  0.00446036  0.25081546  1
  O  O280  1  0.86918681  0.00618587  0.75642396  1
  O  O281  1  0.87182787  0.51452558  0.24375666  1
  O  O282  1  0.86026579  0.50416050  0.74703154  1
  O  O283  1  0.11820982  0.38087643  0.36304679  1
  O  O284  1  0.13441912  0.36329563  0.86029112  1
  O  O285  1  0.11735744  0.87755996  0.36335106  1
  O  O286  1  0.12264977  0.87399211  0.86757414  1
  O  O287  1  0.61838772  0.36686612  0.36831994  1
  O  O288  1  0.61103015  0.37873596  0.86432448  1
  O  O289  1  0.61461410  0.86619507  0.38152804  1
  O  O290  1  0.61611417  0.87786350  0.86683291  1
  O  O291  1  0.37979502  0.14116239  0.11764818  1
  O  O292  1  0.38007128  0.12416576  0.63443026  1
  O  O293  1  0.38195916  0.62968536  0.12420823  1
  O  O294  1  0.37847161  0.63284816  0.62737263  1
  O  O295  1  0.88780659  0.12745665  0.12692997  1
  O  O296  1  0.88215855  0.12982553  0.62945625  1
  O  O297  1  0.88104373  0.63025999  0.13102299  1
  O  O298  1  0.88261655  0.63102277  0.63384206  1
  O  O299  1  0.26302106  0.24880391  0.12830376  1
  O  O300  1  0.25267256  0.25945529  0.61676668  1
  O  O301  1  0.24802836  0.74525750  0.11259138  1
  O  O302  1  0.26326490  0.75838216  0.62749838  1
  O  O303  1  0.75014724  0.24883232  0.11248395  1
  O  O304  1  0.76437973  0.24289164  0.62182580  1
  O  O305  1  0.76301944  0.74543277  0.11510419  1
  O  O306  1  0.75410773  0.75413156  0.62021969  1
  O  O307  1  0.25013544  0.23915361  0.37995918  1
  O  O308  1  0.23919664  0.23695653  0.86871307  1
  O  O309  1  0.24473054  0.73332622  0.37916574  1
  O  O310  1  0.24579421  0.74089267  0.87901028  1
  O  O311  1  0.74144242  0.24218989  0.37915839  1
  O  O312  1  0.75307213  0.23740099  0.88436357  1
  O  O313  1  0.74448482  0.74544401  0.38041210  1
  O  O314  1  0.75366747  0.74837293  0.88785598  1
  O  O315  1  -0.00097209  0.12197082  0.01524431  1
  O  O316  1  0.00118932  0.11772111  0.50561869  1
  O  O317  1  0.00635299  0.61979644  0.00657265  1
  O  O318  1  0.00354069  0.62058218  0.50695535  1
  O  O319  1  0.50568862  0.11646362  -0.00492352  1
  O  O320  1  0.50525914  0.12104784  0.50452186  1
  O  O321  1  0.50890039  0.61749877  -0.00147380  1
  O  O322  1  0.50165741  0.61698970  0.50685593  1
  O  O323  1  0.50691383  0.37997467  0.49109027  1
  O  O324  1  0.49727272  0.37895535  0.99059512  1
  O  O325  1  0.49310934  0.87989829  0.49082416  1
  O  O326  1  0.49535898  0.87805432  0.99265525  1
  O  O327  1  0.99683296  0.38426958  0.49229439  1
  O  O328  1  0.98734547  0.38204816  1.00402274  1
  O  O329  1  0.99730518  0.88319771  0.49570784  1
  O  O330  1  0.98747509  0.87332825  0.99277293  1
  O  O331  1  0.50693112  0.48848141  0.38645069  1
  O  O332  1  0.49218447  0.49002482  0.87843435  1
  O  O333  1  0.49428443  0.99270936  0.37806419  1
  O  O334  1  0.49876487  0.98973611  0.88592808  1
  O  O335  1  1.00031838  0.49357410  0.38425267  1
  O  O336  1  1.00615075  0.50465449  0.89155866  1
  O  O337  1  1.00083643  0.99133220  0.38224713  1
  O  O338  1  0.99530328  0.99703093  0.87882305  1
  O  O339  1  0.00581843  0.01026524  0.12472917  1
  O  O340  1  0.00745708  0.00903226  0.61893162  1
  O  O341  1  0.00722878  0.51195350  0.11562255  1
  O  O342  1  -0.00285239  0.51301022  0.62155688  1
  O  O343  1  0.50617345  0.00069091  0.11421396  1
  O  O344  1  0.50195407  0.00571880  0.61694981  1
  O  O345  1  0.51273086  0.49736783  0.11589803  1
  O  O346  1  0.50627804  0.50296842  0.62036815  1
  O  O347  1  0.23916181  0.37909918  0.25746416  1
  O  O348  1  0.24287605  0.37470281  0.73658037  1
  O  O349  1  0.24378070  0.87191955  0.25365447  1
  O  O350  1  0.24347156  0.87361076  0.73780346  1
  O  O351  1  0.73763912  0.37654471  0.25216316  1
  O  O352  1  0.74139652  0.38518984  0.75509206  1
  O  O353  1  0.75166369  0.88644453  0.25653068  1
  O  O354  1  0.74359729  0.87740294  0.74747173  1
  O  O355  1  0.24892054  0.13057881  0.26215506  1
  O  O356  1  0.25848869  0.12669368  0.74406974  1
  O  O357  1  0.24798707  0.62481721  0.26107963  1
  O  O358  1  0.25412890  0.62452656  0.75637526  1
  O  O359  1  0.74659197  0.12117058  0.26217968  1
  O  O360  1  0.75346021  0.12149160  0.75870161  1
  O  O361  1  0.75745193  0.62371671  0.25959616  1
  O  O362  1  0.75721713  0.61139873  0.74888365  1
  O  O363  1  0.36281793  0.11445499  0.37708559  1
  O  O364  1  0.35932707  0.12618510  0.86537267  1
  O  O365  1  0.35946733  0.62563534  0.37736776  1
  O  O366  1  0.36762826  0.62070858  0.87101685  1
  O  O367  1  0.86503017  0.12264815  0.37641967  1
  O  O368  1  0.86911784  0.12094237  0.87248308  1
  O  O369  1  0.86692688  0.63278313  0.36728742  1
  O  O370  1  0.88249557  0.62880798  0.86233216  1
  O  O371  1  0.12067315  0.38807642  0.13719029  1
  O  O372  1  0.13418015  0.37064245  0.63596086  1
  O  O373  1  0.12239637  0.88106620  0.13874712  1
  O  O374  1  0.13135456  0.88038404  0.63022975  1
  O  O375  1  0.62813035  0.38153113  0.13249350  1
  O  O376  1  0.61983258  0.38277629  0.63858893  1
  O  O377  1  0.62544695  0.88854505  0.11868784  1
  O  O378  1  0.63176734  0.87581289  0.63180094  1
  O  O379  1  0.12304512  0.26828461  0.25090636  1
  O  O380  1  0.12015750  0.26218293  0.75561715  1
  O  O381  1  0.12360203  0.76754055  0.25262920  1
  O  O382  1  0.12129106  0.76181261  0.75394109  1
  O  O383  1  0.61929195  0.25564846  0.25227080  1
  O  O384  1  0.61787023  0.25826258  0.74698286  1
  O  O385  1  0.62224202  0.74835158  0.26115847  1
  O  O386  1  0.61965596  0.76094868  0.74573358  1
  O  O387  1  0.38376359  0.25857254  0.23301346  1
  O  O388  1  0.38230770  0.23616101  0.74807860  1
  O  O389  1  0.38557615  0.74399771  0.24911636  1
  O  O390  1  0.38110754  0.74536166  0.74245395  1
  O  O391  1  0.87872195  0.24703425  0.24611959  1
  O  O392  1  0.87795077  0.24638520  0.74313069  1
  O  O393  1  0.87205982  0.73817934  0.24040881  1
  O  O394  1  0.87940436  0.74278086  0.74576982  1
  O  O395  1  0.38886061  0.49956342  0.49577064  1
  O  O396  1  0.38070228  0.48897838  0.99536143  1
  O  O397  1  0.38021321  0.98920766  0.49480530  1
  O  O398  1  0.38255571  0.99365219  0.99736201  1
  O  O399  1  0.88710529  0.49296482  0.50791569  1
  O  O400  1  0.88005752  0.48825541  1.00208675  1
  O  O401  1  0.88666553  0.99435388  0.50025338  1
  O  O402  1  0.87354279  0.99075532  0.99646804  1
  O  O403  1  0.12126365  -0.01336172  0.02123642  1
  O  O404  1  0.11462908  0.00070659  0.50840681  1
  O  O405  1  0.11821300  0.50245616  0.00956397  1
  O  O406  1  0.11100394  0.51494246  0.50207723  1
  O  O407  1  0.61935164  0.00481830  0.00505886  1
  O  O408  1  0.61825713  0.01028701  0.49894642  1
  O  O409  1  0.62282087  0.50646172  0.00447693  1
  O  O410  1  0.61709804  0.50061888  0.51028481  1
  O  O411  1  0.37984294  0.36715528  0.11087478  1
  O  O412  1  0.36047143  0.37273444  0.62960411  1
  O  O413  1  0.37853093  0.87101767  0.11008856  1
  O  O414  1  0.36868537  0.87183745  0.62069302  1
  O  O415  1  0.87111050  0.37331113  0.11410661  1
  O  O416  1  0.88193882  0.36572112  0.61493462  1
  O  O417  1  0.88110041  0.86483753  0.11679474  1
  O  O418  1  0.87025037  0.86917673  0.62196302  1
  O  O419  1  0.13706507  0.12424580  0.37422595  1
  O  O420  1  0.13600562  0.13643446  0.87218255  1
  O  O421  1  0.13231541  0.62683006  0.38575183  1
  O  O422  1  0.13169876  0.63111450  0.87892332  1
  O  O423  1  0.62867899  0.12955930  0.38257871  1
  O  O424  1  0.63437844  0.11714727  0.88751991  1
  O  O425  1  0.63417938  0.63379329  0.37731085  1
  O  O426  1  0.62153882  0.62187242  0.88452289  1
