# generated using pymatgen
data_V85Zn86O256
_symmetry_space_group_name_H-M   'P 1'
_cell_length_a   16.94393764
_cell_length_b   16.94825507
_cell_length_c   16.94575929
_cell_angle_alpha   89.97357130
_cell_angle_beta   89.90557241
_cell_angle_gamma   90.08617981
_symmetry_Int_Tables_number   1
_chemical_formula_structural   V85Zn86O256
_chemical_formula_sum   'V85 Zn86 O256'
_cell_volume   4866.30406006
_cell_formula_units_Z   1
loop_
 _symmetry_equiv_pos_site_id
 _symmetry_equiv_pos_as_xyz
  1  'x, y, z'
loop_
 _atom_site_type_symbol
 _atom_site_label
 _atom_site_symmetry_multiplicity
 _atom_site_fract_x
 _atom_site_fract_y
 _atom_site_fract_z
 _atom_site_occupancy
  V  V0  1  0.00126566  0.49939898  -0.00230854  1
  V  V1  1  0.49748148  0.50350058  0.00135153  1
  V  V2  1  0.37704511  0.87569652  0.00094642  1
  V  V3  1  0.74695459  0.24250162  0.49614194  1
  V  V4  1  0.12925518  0.61991984  0.49550892  1
  V  V5  1  0.24417909  0.12491054  0.87885757  1
  V  V6  1  0.87730913  0.11445355  0.75109954  1
  V  V7  1  0.37356770  0.24975795  0.62288190  1
  V  V8  1  0.49983833  0.75738248  0.74763270  1
  V  V9  1  0.75259714  0.62506367  0.87547159  1
  V  V10  1  0.74667274  0.87386798  0.12728223  1
  V  V11  1  0.38566946  -0.00162670  0.36541090  1
  V  V12  1  0.87280538  0.37651066  0.50169916  1
  V  V13  1  0.74946509  0.62725388  0.38479576  1
  V  V14  1  0.24979274  0.74655251  0.49441735  1
  V  V15  1  0.37711682  0.74879365  0.12728442  1
  V  V16  1  0.50239176  0.87937396  0.87162868  1
  V  V17  1  0.38757830  0.13849875  0.25109160  1
  V  V18  1  0.37362597  0.50034336  0.87454289  1
  V  V19  1  0.24897075  0.62721692  0.87312153  1
  V  V20  1  0.37836980  0.36946824  -0.00099697  1
  V  V21  1  0.62038536  0.12726513  0.49041067  1
  V  V22  1  0.62400821  0.87388180  0.26483538  1
  V  V23  1  0.74691284  0.11756059  0.87285555  1
  V  V24  1  0.12788482  0.50505857  0.12951714  1
  V  V25  1  0.87530743  0.24679378  0.62790124  1
  V  V26  1  0.87368221  0.75228375  0.62236978  1
  V  V27  1  0.87900083  0.36842008  -0.00167363  1
  V  V28  1  0.24424194  -0.00212412  0.75003503  1
  V  V29  1  0.36681145  0.62935056  0.25651553  1
  V  V30  1  0.24546620  0.24512448  0.48313026  1
  V  V31  1  0.81820683  0.44459795  0.31509505  1
  V  V32  1  0.87491257  0.74831173  0.12621434  1
  V  V33  1  0.12540648  0.62699505  0.00107393  1
  V  V34  1  0.74989055  0.75164770  -0.00106781  1
  V  V35  1  0.12241328  0.49109034  0.62654626  1
  V  V36  1  0.88482468  0.13162506  0.24559458  1
  V  V37  1  0.20466443  0.05466682  0.30685264  1
  V  V38  1  0.88146427  0.49548374  0.87457216  1
  V  V39  1  0.50025338  0.00342333  0.50337282  1
  V  V40  1  0.87144032  -0.00578386  0.37416309  1
  V  V41  1  0.87594858  0.62189645  0.74998389  1
  V  V42  1  0.62433197  0.00393959  0.63424925  1
  V  V43  1  0.37552969  0.50347772  0.38059835  1
  V  V44  1  0.24540790  0.49027061  0.74908304  1
  V  V45  1  0.00166316  0.36006617  0.37053217  1
  V  V46  1  0.73941427  0.37249956  0.63400635  1
  V  V47  1  0.06568560  0.16671472  0.05605117  1
  V  V48  1  0.51149683  0.62199551  0.13854045  1
  V  V49  1  0.00439188  0.26136709  0.75082724  1
  V  V50  1  0.00441441  0.75141124  0.74825590  1
  V  V51  1  0.12522646  0.75632476  0.87251407  1
  V  V52  1  0.12374989  0.36161986  0.25354075  1
  V  V53  1  0.37809142  0.87763051  0.49544078  1
  V  V54  1  0.24624013  0.87360174  0.62790057  1
  V  V55  1  0.24727035  0.50330410  0.26077348  1
  V  V56  1  0.63095714  0.26130889  0.86927972  1
  V  V57  1  0.37564118  0.00293645  0.87410744  1
  V  V58  1  0.50981701  0.36610276  0.37263359  1
  V  V59  1  0.87066294  0.62344854  0.25463402  1
  V  V60  1  0.74831399  0.24291276  0.00075964  1
  V  V61  1  0.50982158  0.62770936  0.62181571  1
  V  V62  1  0.25894211  0.37456054  0.12711394  1
  V  V63  1  0.25122726  0.75150314  0.00176029  1
  V  V64  1  0.11375343  0.74998682  0.37922983  1
  V  V65  1  0.12403411  0.00342122  0.62447436  1
  V  V66  1  -0.00185493  0.49705077  0.49249716  1
  V  V67  1  0.37938119  0.12551379  0.74362544  1
  V  V68  1  0.62819825  0.75917307  0.86686304  1
  V  V69  1  0.25311029  0.24666597  0.00118582  1
  V  V70  1  0.50942727  0.50242615  0.50150227  1
  V  V71  1  0.49578752  0.75771959  0.26312793  1
  V  V72  1  -0.00082209  -0.00524094  0.49559075  1
  V  V73  1  0.87563556  0.87936079  -0.00429570  1
  V  V74  1  0.12348902  0.25947427  0.87092914  1
  V  V75  1  0.37361807  0.62588802  0.74598951  1
  V  V76  1  0.50514532  0.25533392  0.74548804  1
  V  V77  1  0.12455134  0.87324595  0.25643453  1
  V  V78  1  0.50300749  0.13953432  0.12075735  1
  V  V79  1  0.00271051  -0.00089572  0.00363987  1
  V  V80  1  0.13443008  -0.00056720  0.11897382  1
  V  V81  1  0.00052051  0.88245131  0.86993242  1
  V  V82  1  0.74961914  0.00519750  0.25269347  1
  V  V83  1  0.62253345  0.62930259  -0.00206874  1
  V  V84  1  0.50616980  0.00495225  0.00255874  1
  Zn  Zn85  1  0.75017404  0.37186933  0.12981125  1
  Zn  Zn86  1  -0.00169313  0.62535387  0.12983523  1
  Zn  Zn87  1  0.73815122  0.75098216  0.50668725  1
  Zn  Zn88  1  0.37395124  0.37461206  0.50050207  1
  Zn  Zn89  1  0.25457463  0.87946387  0.13175614  1
  Zn  Zn90  1  0.88898023  0.24235064  0.12346801  1
  Zn  Zn91  1  0.75080286  -0.01028475  0.75369986  1
  Zn  Zn92  1  0.62871901  0.48551639  0.13577571  1
  Zn  Zn93  1  0.74063172  0.87205718  0.62999168  1
  Zn  Zn94  1  0.51474954  0.38483107  0.86783328  1
  Zn  Zn95  1  -0.00014871  0.62282011  0.62228347  1
  Zn  Zn96  1  0.73840247  0.48749873  0.76330486  1
  Zn  Zn97  1  0.12540735  0.12636493  0.48686263  1
  Zn  Zn98  1  0.62124423  0.49643518  0.63684714  1
  Zn  Zn99  1  0.00273564  0.12593827  0.62176279  1
  Zn  Zn100  1  0.87465134  0.86768565  0.49370723  1
  Zn  Zn101  1  0.62182465  -0.00275232  0.12474951  1
  Zn  Zn102  1  0.57825340  0.31191903  0.22022801  1
  Zn  Zn103  1  0.37351835  0.75207463  0.62315399  1
  Zn  Zn104  1  0.61641537  0.74358602  0.38731457  1
  Zn  Zn105  1  0.24636429  0.36898977  0.62406855  1
  Zn  Zn106  1  -0.00519252  0.75567439  0.25600991  1
  Zn  Zn107  1  0.19888806  0.19184489  0.18684187  1
  Zn  Zn108  1  0.18919218  0.18573919  0.68868056  1
  Zn  Zn109  1  0.18774188  0.69188260  0.19097383  1
  Zn  Zn110  1  0.18502732  0.68269922  0.68254643  1
  Zn  Zn111  1  0.68653209  0.17396310  0.17208321  1
  Zn  Zn112  1  0.68462714  0.18080958  0.68495449  1
  Zn  Zn113  1  0.67456003  0.66740980  0.20399925  1
  Zn  Zn114  1  0.68966909  0.68584340  0.69067397  1
  Zn  Zn115  1  0.31873970  0.31827716  0.31359307  1
  Zn  Zn116  1  0.31570913  0.31115780  0.81415169  1
  Zn  Zn117  1  0.30479419  0.81750705  0.31653767  1
  Zn  Zn118  1  0.31398320  0.81518390  0.81166209  1
  Zn  Zn119  1  0.75511822  0.26766822  0.28733512  1
  Zn  Zn120  1  0.81961627  0.30913653  0.81421578  1
  Zn  Zn121  1  0.80955441  0.81087507  0.31407966  1
  Zn  Zn122  1  0.81686935  0.81614914  0.80753858  1
  Zn  Zn123  1  0.18616855  0.42836120  0.43817337  1
  Zn  Zn124  1  0.19080113  0.43874106  0.93916894  1
  Zn  Zn125  1  0.18386181  0.93051108  0.44367993  1
  Zn  Zn126  1  0.18788227  0.93683180  0.93904460  1
  Zn  Zn127  1  0.68357888  0.43267764  0.44593171  1
  Zn  Zn128  1  0.69869775  0.44510309  0.96168070  1
  Zn  Zn129  1  0.69240291  0.93598953  0.44587580  1
  Zn  Zn130  1  0.68622128  0.93606433  0.93605322  1
  Zn  Zn131  1  0.32056107  0.06578291  0.06511109  1
  Zn  Zn132  1  0.31078026  0.06568529  0.55884807  1
  Zn  Zn133  1  0.31502546  0.56482144  0.06689149  1
  Zn  Zn134  1  0.31291684  0.56143267  0.56416111  1
  Zn  Zn135  1  0.81456925  0.06018443  0.06350866  1
  Zn  Zn136  1  0.80893787  0.06025083  0.56298011  1
  Zn  Zn137  1  0.81040363  0.56063802  0.06601740  1
  Zn  Zn138  1  0.81212576  0.55770324  0.56776206  1
  Zn  Zn139  1  0.43601592  0.44045293  0.19021539  1
  Zn  Zn140  1  0.43576627  0.43505600  0.68567759  1
  Zn  Zn141  1  0.43935266  0.93816632  0.18692532  1
  Zn  Zn142  1  0.43634112  0.94014580  0.68174478  1
  Zn  Zn143  1  0.94424930  0.42934741  0.18025944  1
  Zn  Zn144  1  0.93538855  0.43646605  0.68449829  1
  Zn  Zn145  1  0.94020163  0.93810580  0.18579876  1
  Zn  Zn146  1  0.94097306  0.93511996  0.68544013  1
  Zn  Zn147  1  0.04116360  0.06152529  0.31022040  1
  Zn  Zn148  1  0.06295105  0.06697853  0.81138139  1
  Zn  Zn149  1  0.05729363  0.56277920  0.31540934  1
  Zn  Zn150  1  0.06332177  0.56371697  0.81164981  1
  Zn  Zn151  1  0.56409583  0.06532399  0.31220715  1
  Zn  Zn152  1  0.56244532  0.07278866  0.81556447  1
  Zn  Zn153  1  0.56034456  0.56438086  0.31558710  1
  Zn  Zn154  1  0.56269390  0.56633607  0.81103528  1
  Zn  Zn155  1  0.43578072  0.18592282  0.43717594  1
  Zn  Zn156  1  0.44124196  0.18901292  0.93122831  1
  Zn  Zn157  1  0.43401308  0.68527305  0.44066518  1
  Zn  Zn158  1  0.43893540  0.68873683  0.93495415  1
  Zn  Zn159  1  0.93012271  0.17835571  0.43606494  1
  Zn  Zn160  1  0.93333782  0.18789887  0.92512569  1
  Zn  Zn161  1  0.93428917  0.68006794  0.43831163  1
  Zn  Zn162  1  0.93986423  0.68848312  0.93806297  1
  Zn  Zn163  1  0.07157101  0.32955358  0.05754304  1
  Zn  Zn164  1  0.06286464  0.30871685  0.55854625  1
  Zn  Zn165  1  0.06235844  0.81538377  0.06640836  1
  Zn  Zn166  1  0.06174823  0.81495303  0.56398031  1
  Zn  Zn167  1  0.56944521  0.31506635  0.04850504  1
  Zn  Zn168  1  0.55780801  0.30908644  0.55881662  1
  Zn  Zn169  1  0.56130417  0.80988525  0.06478768  1
  Zn  Zn170  1  0.56325945  0.81717497  0.56050359  1
  O  O171  1  0.12825390  0.11868183  0.12700466  1
  O  O172  1  0.12686375  0.11183825  0.62356920  1
  O  O173  1  0.12547536  0.61768901  0.12249048  1
  O  O174  1  0.12186736  0.61316594  0.61265833  1
  O  O175  1  0.60661036  0.11524101  0.11865858  1
  O  O176  1  0.62637790  0.11243786  0.61175985  1
  O  O177  1  0.62187264  0.65736460  0.09931829  1
  O  O178  1  0.61199106  0.62325402  0.63226764  1
  O  O179  1  0.38472588  0.39004332  0.37537694  1
  O  O180  1  0.37328690  0.38588597  0.88373766  1
  O  O181  1  0.36953020  0.88542515  0.38375390  1
  O  O182  1  0.38189105  0.88232036  0.88083852  1
  O  O183  1  0.87695036  0.38590086  0.37812860  1
  O  O184  1  0.87540603  0.38283609  0.88635527  1
  O  O185  1  0.87283857  0.88776526  0.37283498  1
  O  O186  1  0.88806004  0.86836141  0.88494412  1
  O  O187  1  0.25631321  -0.00136774  0.37424805  1
  O  O188  1  0.25352181  0.00485586  0.86857898  1
  O  O189  1  0.25562440  0.49359772  0.36574273  1
  O  O190  1  0.25206963  0.50861111  0.86830110  1
  O  O191  1  0.76098135  -0.00467004  0.36713387  1
  O  O192  1  0.74399610  0.01345151  0.87443551  1
  O  O193  1  0.75257370  0.49867389  0.37382946  1
  O  O194  1  0.76454109  0.50615966  0.88079386  1
  O  O195  1  0.24542134  0.49736935  0.13544145  1
  O  O196  1  0.24233924  0.49777716  0.63346390  1
  O  O197  1  0.23958555  1.00025963  0.11678570  1
  O  O198  1  0.24539984  0.99487998  0.63085759  1
  O  O199  1  0.73614287  0.48238736  0.09159461  1
  O  O200  1  0.74878297  0.48224497  0.62873079  1
  O  O201  1  0.74716149  0.98904124  0.13007225  1
  O  O202  1  0.73586627  1.00104061  0.62947283  1
  O  O203  1  0.01125303  0.37766405  0.25704255  1
  O  O204  1  -0.00614299  0.36074035  0.74747106  1
  O  O205  1  0.01727313  0.87375495  0.24184309  1
  O  O206  1  -0.00177324  0.86540122  0.75956443  1
  O  O207  1  0.49837407  0.37973263  0.26356270  1
  O  O208  1  0.49175874  0.36098377  0.75496698  1
  O  O209  1  0.51122547  0.86797960  0.24481632  1
  O  O210  1  0.49027089  0.86367161  0.75261165  1
  O  O211  1  0.49509090  0.12558148  0.23892647  1
  O  O212  1  0.48798969  0.13932880  0.75703407  1
  O  O213  1  0.48040701  0.63802382  0.25505947  1
  O  O214  1  0.49049330  0.63655732  0.74614964  1
  O  O215  1  0.98508392  0.13211249  0.24508085  1
  O  O216  1  0.99167562  0.13142419  0.74728477  1
  O  O217  1  0.98581529  0.62673837  0.25036588  1
  O  O218  1  0.99017587  0.63067546  0.74981337  1
  O  O219  1  0.37437229  0.26507296  -0.00821550  1
  O  O220  1  0.36589676  0.24765554  0.50711506  1
  O  O221  1  0.37317861  0.75552510  0.00476231  1
  O  O222  1  0.36633697  0.75848786  0.50058607  1
  O  O223  1  0.87140153  0.25424430  -0.00288216  1
  O  O224  1  0.86693956  0.25354587  0.50944528  1
  O  O225  1  0.87148056  0.75865695  0.00578083  1
  O  O226  1  0.87694954  0.74733081  0.51120745  1
  O  O227  1  0.13951571  0.24529951  0.50048012  1
  O  O228  1  0.12810082  0.24021673  0.99766103  1
  O  O229  1  0.12840701  0.74265151  0.49712165  1
  O  O230  1  0.12915471  0.74589313  0.99472929  1
  O  O231  1  0.63451908  0.23793346  0.50662170  1
  O  O232  1  0.64231825  0.24658896  0.98894753  1
  O  O233  1  0.62344045  0.74800539  0.49954410  1
  O  O234  1  0.62808401  0.75263090  0.98326752  1
  O  O235  1  0.50958999  0.24072060  0.12077688  1
  O  O236  1  0.48641223  0.25314820  0.63135928  1
  O  O237  1  0.49312785  0.74503094  0.13824656  1
  O  O238  1  0.49571405  0.74525613  0.63246473  1
  O  O239  1  1.00943532  0.24159638  0.10477366  1
  O  O240  1  0.99244894  0.24719432  0.62942946  1
  O  O241  1  0.98574576  0.74842812  0.12430372  1
  O  O242  1  0.99785463  0.74620967  0.63376857  1
  O  O243  1  -0.01023441  0.26172773  0.38130829  1
  O  O244  1  0.01182942  0.24508783  0.86471476  1
  O  O245  1  0.00980844  0.74667951  0.37809499  1
  O  O246  1  0.00757317  0.75770402  0.87000277  1
  O  O247  1  0.49647661  0.26750444  0.38053029  1
  O  O248  1  0.51427776  0.25368121  0.86807568  1
  O  O249  1  0.49527949  0.74945563  0.36688462  1
  O  O250  1  0.50682118  0.75706920  0.86710083  1
  O  O251  1  0.24739462  0.13908505  0.49847223  1
  O  O252  1  0.26276985  0.13317724  0.99056767  1
  O  O253  1  0.24217020  0.63413882  0.50720581  1
  O  O254  1  0.24630383  0.63106133  0.99415733  1
  O  O255  1  0.74272755  0.13664587  0.50415724  1
  O  O256  1  0.76097727  0.13294126  0.98672703  1
  O  O257  1  0.75824370  0.61962472  0.48708376  1
  O  O258  1  0.74338768  0.63375325  0.99322198  1
  O  O259  1  0.25875077  0.37198530  0.00815583  1
  O  O260  1  0.25303692  0.35996066  0.50157262  1
  O  O261  1  0.26117009  0.86849531  -0.00011596  1
  O  O262  1  0.25774334  0.86835205  0.50793032  1
  O  O263  1  0.76268599  0.35505612  -0.00379012  1
  O  O264  1  0.75514569  0.36677116  0.51215015  1
  O  O265  1  0.75724685  0.87169326  0.00449728  1
  O  O266  1  0.75756244  0.87017201  0.51104359  1
  O  O267  1  0.13203928  0.50003266  0.24553292  1
  O  O268  1  0.13334163  0.50712967  0.74058525  1
  O  O269  1  0.13183561  0.99933724  0.24870520  1
  O  O270  1  0.13676490  1.00370606  0.74340518  1
  O  O271  1  0.60197290  0.56581958  0.21016391  1
  O  O272  1  0.62633267  0.49898160  0.75148456  1
  O  O273  1  0.63189714  0.99112455  0.24934849  1
  O  O274  1  0.61901899  1.01090418  0.73662600  1
  O  O275  1  0.37978768  0.00399439  0.26105358  1
  O  O276  1  0.36911397  0.00747640  0.75384828  1
  O  O277  1  0.36711656  0.51038226  0.25725129  1
  O  O278  1  0.36795175  0.50796791  0.75421146  1
  O  O279  1  0.87129876  0.00214508  0.25571693  1
  O  O280  1  0.87567249  0.01142753  0.74290083  1
  O  O281  1  0.87630165  0.50087841  0.24957034  1
  O  O282  1  0.87514892  0.50512118  0.75857417  1
  O  O283  1  0.11505479  0.37526835  0.36495621  1
  O  O284  1  0.13153652  0.35864791  0.88446835  1
  O  O285  1  0.12594010  0.86415475  0.37000013  1
  O  O286  1  0.11967428  0.86217780  0.87893798  1
  O  O287  1  0.61018694  0.38085304  0.37528645  1
  O  O288  1  0.63285603  0.36444081  0.88392215  1
  O  O289  1  0.63191426  0.87188587  0.36648942  1
  O  O290  1  0.61606616  0.86966237  0.87347354  1
  O  O291  1  0.38821678  0.12128910  0.14067797  1
  O  O292  1  0.36974424  0.12968066  0.63720019  1
  O  O293  1  0.38367340  0.63011233  0.13631713  1
  O  O294  1  0.37960025  0.62723116  0.63674593  1
  O  O295  1  0.87438264  0.12232503  0.13875954  1
  O  O296  1  0.87324401  0.13459132  0.63096503  1
  O  O297  1  0.87283406  0.63153285  0.13184806  1
  O  O298  1  0.87757959  0.63001165  0.63456631  1
  O  O299  1  0.25055961  0.26356616  0.11562176  1
  O  O300  1  0.26089327  0.24985629  0.62490079  1
  O  O301  1  0.25858979  0.74998675  0.11806229  1
  O  O302  1  0.24781230  0.75812948  0.61786805  1
  O  O303  1  0.75485882  0.24600080  0.10744540  1
  O  O304  1  0.75604811  0.25638696  0.62124742  1
  O  O305  1  0.76057295  0.75618281  0.11907304  1
  O  O306  1  0.76061392  0.74589484  0.62565971  1
  O  O307  1  0.25541956  0.25213186  0.38462948  1
  O  O308  1  0.24538307  0.24316147  0.88008149  1
  O  O309  1  0.23842987  0.75250458  0.38989081  1
  O  O310  1  0.24337328  0.74707308  0.87860440  1
  O  O311  1  0.75865501  0.25761085  0.39980166  1
  O  O312  1  0.74884201  0.24189028  0.87908695  1
  O  O313  1  0.75099129  0.73542814  0.38002730  1
  O  O314  1  0.74416870  0.74669551  0.87820520  1
  O  O315  1  -0.00159087  0.11434115  -0.00900348  1
  O  O316  1  0.00430289  0.11328940  0.49983314  1
  O  O317  1  0.00635748  0.61606275  0.00360487  1
  O  O318  1  0.00658523  0.61261763  0.50079857  1
  O  O319  1  0.48707288  0.11909245  0.01235387  1
  O  O320  1  0.51223152  0.12153375  0.49784298  1
  O  O321  1  0.50417013  0.62120887  0.00583929  1
  O  O322  1  0.49141510  0.61667956  0.51227468  1
  O  O323  1  0.49651400  0.38366128  0.49116244  1
  O  O324  1  0.49399948  0.38522711  0.99388367  1
  O  O325  1  0.48361146  0.88432802  0.50571465  1
  O  O326  1  0.49273171  0.88059660  0.99520376  1
  O  O327  1  0.99057592  0.37610791  0.49381950  1
  O  O328  1  0.99635529  0.39091054  0.99912801  1
  O  O329  1  0.99479660  0.88958905  0.50715002  1
  O  O330  1  0.99472573  0.88083191  0.99420966  1
  O  O331  1  0.49400040  0.50056035  0.38396673  1
  O  O332  1  0.49199795  0.50365622  0.88470675  1
  O  O333  1  0.49456856  1.00206435  0.38710715  1
  O  O334  1  0.49520281  0.99976350  0.88002868  1
  O  O335  1  1.00361858  0.48944971  0.38882067  1
  O  O336  1  0.99041563  0.50662911  0.88202430  1
  O  O337  1  0.98600895  0.99632117  0.38197334  1
  O  O338  1  1.01169213  0.98768236  0.88269565  1
  O  O339  1  0.01231540  -0.00258468  0.11151707  1
  O  O340  1  0.00909232  0.00211919  0.61983132  1
  O  O341  1  0.01156629  0.50230688  0.11766072  1
  O  O342  1  0.00626915  0.49856043  0.61529743  1
  O  O343  1  0.49924856  0.00602255  0.11555970  1
  O  O344  1  0.50493032  0.00286989  0.61211661  1
  O  O345  1  0.49697794  0.50336938  0.11149262  1
  O  O346  1  0.49719018  0.50837164  0.61927427  1
  O  O347  1  0.24767179  0.38370202  0.24425781  1
  O  O348  1  0.25332718  0.38806203  0.75134530  1
  O  O349  1  0.23350560  0.87244304  0.24682483  1
  O  O350  1  0.25562956  0.88618568  0.74213242  1
  O  O351  1  0.76445857  0.38281903  0.25390513  1
  O  O352  1  0.75881079  0.37090159  0.73701326  1
  O  O353  1  0.74323607  0.87873171  0.24294353  1
  O  O354  1  0.75062769  0.87701685  0.74533195  1
  O  O355  1  0.26286859  0.11800437  0.24923277  1
  O  O356  1  0.25821308  0.11621971  0.75784287  1
  O  O357  1  0.25875631  0.61910521  0.24779290  1
  O  O358  1  0.25679164  0.62020042  0.75355008  1
  O  O359  1  0.75624085  0.10677780  0.24214746  1
  O  O360  1  0.75690815  0.12171722  0.75891877  1
  O  O361  1  0.76325426  0.62276645  0.26056130  1
  O  O362  1  0.76325798  0.62285089  0.75808726  1
  O  O363  1  0.38351646  0.11716520  0.35949870  1
  O  O364  1  0.36690370  0.12120796  0.86554492  1
  O  O365  1  0.37243047  0.61362537  0.37044621  1
  O  O366  1  0.37009865  0.62145433  0.86518544  1
  O  O367  1  0.87585317  0.10996712  0.35877548  1
  O  O368  1  0.86079098  0.12686213  0.86226628  1
  O  O369  1  0.86404201  0.62072733  0.36782498  1
  O  O370  1  0.87279201  0.61977153  0.86997930  1
  O  O371  1  0.13752497  0.38928568  0.13142288  1
  O  O372  1  0.12615472  0.38703919  0.61945746  1
  O  O373  1  0.13026366  0.88395234  0.13097081  1
  O  O374  1  0.13805798  0.88670860  0.61941932  1
  O  O375  1  0.62687395  0.37072620  0.13038309  1
  O  O376  1  0.63759937  0.37004160  0.62264766  1
  O  O377  1  0.63699840  0.87126893  0.12995339  1
  O  O378  1  0.62016109  0.89818242  0.61986080  1
  O  O379  1  0.13212051  0.26309342  0.24503937  1
  O  O380  1  0.11784183  0.24676657  0.75775419  1
  O  O381  1  0.12123584  0.75402275  0.26139943  1
  O  O382  1  0.11353582  0.74095411  0.75738194  1
  O  O383  1  0.65153870  0.23890632  0.25563699  1
  O  O384  1  0.61679494  0.24621283  0.75416551  1
  O  O385  1  0.61279141  0.75451239  0.25808078  1
  O  O386  1  0.61540672  0.74464651  0.75984683  1
  O  O387  1  0.37338012  0.23659130  0.25244085  1
  O  O388  1  0.37864320  0.24275236  0.74431861  1
  O  O389  1  0.37479260  0.74825470  0.24951545  1
  O  O390  1  0.38032608  0.74231580  0.74932220  1
  O  O391  1  0.86080111  0.23348128  0.24650361  1
  O  O392  1  0.88294362  0.24125033  0.74355417  1
  O  O393  1  0.87523114  0.74276084  0.24329584  1
  O  O394  1  0.88775606  0.74031005  0.74756194  1
  O  O395  1  0.38017251  0.49881922  0.49390567  1
  O  O396  1  0.37887659  0.49558343  0.99505043  1
  O  O397  1  0.38027423  0.99805353  0.49182798  1
  O  O398  1  0.38295658  0.99345252  0.99365699  1
  O  O399  1  0.88288767  0.48408541  0.50921671  1
  O  O400  1  0.88513628  0.49459031  0.99475636  1
  O  O401  1  0.87822389  1.00215746  0.48850075  1
  O  O402  1  0.88393914  0.98646772  1.00481068  1
  O  O403  1  0.11821323  -0.00134829  0.00725955  1
  O  O404  1  0.11840426  0.00311562  0.50512843  1
  O  O405  1  0.12202052  0.50588935  0.00719603  1
  O  O406  1  0.12093551  0.50333703  0.50413139  1
  O  O407  1  0.60910615  -0.00589421  -0.00062666  1
  O  O408  1  0.61857152  0.00964660  0.50341697  1
  O  O409  1  0.61171447  0.51512293  -0.00348900  1
  O  O410  1  0.61223458  0.49798434  0.50992697  1
  O  O411  1  0.36577758  0.38414153  0.11690922  1
  O  O412  1  0.36959773  0.36501232  0.62180303  1
  O  O413  1  0.37450022  0.86829444  0.11841143  1
  O  O414  1  0.36180065  0.87588781  0.61684507  1
  O  O415  1  0.87682448  0.36586301  0.11130474  1
  O  O416  1  0.86842334  0.36374032  0.61766186  1
  O  O417  1  0.86633195  0.86871886  0.12004394  1
  O  O418  1  0.87884724  0.85787197  0.62784583  1
  O  O419  1  0.13789095  0.10999229  0.36051559  1
  O  O420  1  0.14011396  0.13106699  0.87206648  1
  O  O421  1  0.12284266  0.63007291  0.38802974  1
  O  O422  1  0.12880072  0.63594471  0.88101235  1
  O  O423  1  0.62788891  0.12020553  0.39114726  1
  O  O424  1  0.64165688  0.13748246  0.87125750  1
  O  O425  1  0.64516892  0.62187727  0.37014374  1
  O  O426  1  0.62854282  0.63608929  0.88307776  1
