# generated using pymatgen
data_V85Zn86O256
_symmetry_space_group_name_H-M   'P 1'
_cell_length_a   16.91576746
_cell_length_b   16.92724455
_cell_length_c   16.92071616
_cell_angle_alpha   90.09556528
_cell_angle_beta   89.98992472
_cell_angle_gamma   90.00093511
_symmetry_Int_Tables_number   1
_chemical_formula_structural   V85Zn86O256
_chemical_formula_sum   'V85 Zn86 O256'
_cell_volume   4845.02591272
_cell_formula_units_Z   1
loop_
 _symmetry_equiv_pos_site_id
 _symmetry_equiv_pos_as_xyz
  1  'x, y, z'
loop_
 _atom_site_type_symbol
 _atom_site_label
 _atom_site_symmetry_multiplicity
 _atom_site_fract_x
 _atom_site_fract_y
 _atom_site_fract_z
 _atom_site_occupancy
  V  V0  1  0.62506039  0.50896647  0.11853410  1
  V  V1  1  0.62757352  0.87676830  0.75732045  1
  V  V2  1  0.00176263  0.12489480  0.62504308  1
  V  V3  1  0.24637290  0.01002712  0.25407451  1
  V  V4  1  0.87547451  0.74765832  0.62774829  1
  V  V5  1  0.61995129  0.75868722  0.37480451  1
  V  V6  1  0.88336448  -0.00423034  0.87426177  1
  V  V7  1  0.12749096  0.62442784  0.49945678  1
  V  V8  1  0.87553165  0.87345906  0.49849647  1
  V  V9  1  0.11823493  0.74928689  0.37062598  1
  V  V10  1  0.74219147  0.73871286  -0.00296788  1
  V  V11  1  0.47959042  0.60093385  0.64887970  1
  V  V12  1  0.48818610  0.37255102  0.88546079  1
  V  V13  1  0.48523001  0.62693288  0.12982851  1
  V  V14  1  0.13163063  0.24844026  0.37305704  1
  V  V15  1  0.75062699  0.23615107  -0.00607638  1
  V  V16  1  0.48637716  0.74480625  0.25416279  1
  V  V17  1  0.26546657  0.61498453  0.86145658  1
  V  V18  1  0.50499158  0.35773335  0.36938779  1
  V  V19  1  0.12921732  0.50179050  0.13002179  1
  V  V20  1  0.00198865  0.12307318  0.12308402  1
  V  V21  1  0.87749146  0.25030724  0.12217174  1
  V  V22  1  0.74756064  0.24854115  0.49803274  1
  V  V23  1  0.62330728  0.37463373  0.75613051  1
  V  V24  1  0.36996063  0.50196907  0.36124616  1
  V  V25  1  0.13778080  0.62948413  -0.00043081  1
  V  V26  1  0.37641461  0.74822340  0.62304093  1
  V  V27  1  0.25293214  0.37794353  0.12771357  1
  V  V28  1  0.48684645  0.50353798  -0.00068016  1
  V  V29  1  0.25315686  0.25704455  -0.00235170  1
  V  V30  1  0.13119207  0.12398377  0.49554129  1
  V  V31  1  0.37576768  0.12189740  0.75378593  1
  V  V32  1  0.13600375  0.75187681  0.87861556  1
  V  V33  1  0.49920756  0.49969100  0.49110732  1
  V  V34  1  0.13098736  0.37548342  0.75933022  1
  V  V35  1  -0.00083214  0.75160262  0.76015480  1
  V  V36  1  0.74934647  0.87444263  0.62767483  1
  V  V37  1  0.87559233  0.48689416  0.37191635  1
  V  V38  1  0.00097719  -0.00182203  0.49781180  1
  V  V39  1  0.12126021  0.87634232  0.75490256  1
  V  V40  1  0.61980613  0.62473298  0.49839900  1
  V  V41  1  0.12530313  0.13065470  -0.00453644  1
  V  V42  1  0.75023327  0.37599761  0.62558863  1
  V  V43  1  0.87920042  0.87222562  -0.00361511  1
  V  V44  1  0.87276147  0.12076941  0.25082136  1
  V  V45  1  0.87596102  0.37593146  -0.00367122  1
  V  V46  1  0.12871474  0.50019671  0.63238104  1
  V  V47  1  0.49904111  0.12643701  0.62383006  1
  V  V48  1  0.74683332  0.37545667  0.12285330  1
  V  V49  1  0.00170964  0.63215393  0.12731222  1
  V  V50  1  0.74654661  0.50792497  0.75723466  1
  V  V51  1  0.62537704  0.00123355  0.62534060  1
  V  V52  1  0.00322856  0.50176533  -0.00025583  1
  V  V53  1  0.87668115  0.62724490  0.25405939  1
  V  V54  1  0.25345449  -0.00168473  0.75649186  1
  V  V55  1  0.74823236  0.74803045  0.50135870  1
  V  V56  1  0.87310312  0.51011900  0.87672809  1
  V  V57  1  0.11891919  0.87306247  0.24687766  1
  V  V58  1  0.87685938  0.25224327  0.62657629  1
  V  V59  1  0.62909549  0.24137165  0.87834083  1
  V  V60  1  0.50128380  0.12925992  0.13149762  1
  V  V61  1  0.62604865  0.73154219  0.87598086  1
  V  V62  1  0.37268775  0.37269099  0.49762894  1
  V  V63  1  0.12152018  0.38102050  0.25645918  1
  V  V64  1  0.25721834  0.86617900  0.12362300  1
  V  V65  1  0.25180957  0.87503801  0.62236709  1
  V  V66  1  0.25007569  0.62141501  0.35985996  1
  V  V67  1  -0.00466039  0.25515481  0.25905181  1
  V  V68  1  0.62617448  0.49764082  0.62199822  1
  V  V69  1  0.49652959  0.75445771  0.75014330  1
  V  V70  1  0.87373167  0.75192447  0.12974536  1
  V  V71  1  0.74980223  0.00585218  0.75938544  1
  V  V72  1  0.62647404  0.00317522  0.11235393  1
  V  V73  1  0.25108927  0.37585692  0.62859275  1
  V  V74  1  0.00741463  0.25164724  0.75735101  1
  V  V75  1  0.38038416  -0.00001343  0.37525875  1
  V  V76  1  0.00061327  0.62447503  0.62837719  1
  V  V77  1  -0.00030363  0.49086745  0.49709316  1
  V  V78  1  0.37851572  0.25339884  0.12918143  1
  V  V79  1  0.62419623  0.12629631  0.49131400  1
  V  V80  1  0.49110099  0.88030302  0.87970750  1
  V  V81  1  0.87235676  0.12744834  0.75582153  1
  V  V82  1  0.48530338  0.00857063  -0.00470034  1
  V  V83  1  0.25082881  0.12820941  0.87627603  1
  V  V84  1  0.61744870  0.87589535  0.24461819  1
  Zn  Zn85  1  0.00623445  0.37462750  0.87777719  1
  Zn  Zn86  1  0.12654908  0.00005265  0.62510935  1
  Zn  Zn87  1  0.25136403  0.24662478  0.49639605  1
  Zn  Zn88  1  0.87170577  -0.00171291  0.37367088  1
  Zn  Zn89  1  0.74442352  0.50271863  0.25138875  1
  Zn  Zn90  1  0.38538792  0.86957123  0.49009637  1
  Zn  Zn91  1  0.37338842  0.13257472  0.25720853  1
  Zn  Zn92  1  0.61420700  0.36565146  0.24465667  1
  Zn  Zn93  1  0.74967126  0.62333954  0.37533706  1
  Zn  Zn94  1  0.12875419  -0.00045259  0.12101540  1
  Zn  Zn95  1  0.25061953  0.74983120  0.49641757  1
  Zn  Zn96  1  0.74466830  0.87296761  0.12219738  1
  Zn  Zn97  1  0.49817049  0.24933633  0.75341540  1
  Zn  Zn98  1  0.74725289  -0.00393532  0.25068809  1
  Zn  Zn99  1  0.37312070  0.24759203  0.62425317  1
  Zn  Zn100  1  -0.00399534  0.86944955  0.36863175  1
  Zn  Zn101  1  0.87724026  0.37038928  0.49445051  1
  Zn  Zn102  1  0.50327584  -0.00497543  0.49388776  1
  Zn  Zn103  1  0.74817935  0.12344648  0.37293860  1
  Zn  Zn104  1  0.86958606  0.62840005  0.75427688  1
  Zn  Zn105  1  0.00528606  -0.00576890  -0.00497155  1
  Zn  Zn106  1  0.36571314  0.86249180  0.00070310  1
  Zn  Zn107  1  0.18550023  0.19179885  0.18475475  1
  Zn  Zn108  1  0.18851156  0.18947524  0.68519440  1
  Zn  Zn109  1  0.18861732  0.69143057  0.18808057  1
  Zn  Zn110  1  0.19052764  0.68753853  0.69102721  1
  Zn  Zn111  1  0.68565352  0.18800828  0.18445090  1
  Zn  Zn112  1  0.68616546  0.18869279  0.68697361  1
  Zn  Zn113  1  0.68608202  0.68780175  0.18783538  1
  Zn  Zn114  1  0.67863672  0.68534289  0.68572361  1
  Zn  Zn115  1  0.31046265  0.31734010  0.30838051  1
  Zn  Zn116  1  0.31106748  0.30818450  0.81081328  1
  Zn  Zn117  1  0.30397630  0.81651931  0.31189370  1
  Zn  Zn118  1  0.31305648  0.80898154  0.81131095  1
  Zn  Zn119  1  0.78098787  0.29803186  0.29618335  1
  Zn  Zn120  1  0.81226389  0.31777451  0.81392970  1
  Zn  Zn121  1  0.80417654  0.81198449  0.31196358  1
  Zn  Zn122  1  0.81051299  0.81228179  0.81765308  1
  Zn  Zn123  1  0.18743117  0.43702899  0.43712863  1
  Zn  Zn124  1  0.19472722  0.44315451  0.94013870  1
  Zn  Zn125  1  0.18928276  0.93679544  0.43388943  1
  Zn  Zn126  1  0.18960006  0.94004320  0.93896140  1
  Zn  Zn127  1  0.68949163  0.43484634  0.43404114  1
  Zn  Zn128  1  0.68438607  0.43797347  0.93944917  1
  Zn  Zn129  1  0.68772373  0.93901814  0.43545132  1
  Zn  Zn130  1  0.69101387  0.93353786  0.93988493  1
  Zn  Zn131  1  0.31119285  0.06340888  0.06928261  1
  Zn  Zn132  1  0.31273211  0.05852886  0.56301329  1
  Zn  Zn133  1  0.31162104  0.56289551  0.06374369  1
  Zn  Zn134  1  0.30983482  0.55845958  0.55767110  1
  Zn  Zn135  1  0.81315685  0.05832575  0.06358500  1
  Zn  Zn136  1  0.81196041  0.06181358  0.56575734  1
  Zn  Zn137  1  0.81307166  0.56442019  0.06281780  1
  Zn  Zn138  1  0.81297018  0.56194083  0.56179925  1
  Zn  Zn139  1  0.43879272  0.43510550  0.18600963  1
  Zn  Zn140  1  0.43928121  0.43113898  0.68857140  1
  Zn  Zn141  1  0.43756365  0.93843262  0.19056670  1
  Zn  Zn142  1  0.43726966  0.93848965  0.68319276  1
  Zn  Zn143  1  0.93774385  0.43991072  0.18603584  1
  Zn  Zn144  1  0.93890954  0.43827064  0.69038253  1
  Zn  Zn145  1  0.93794111  0.93804547  0.18293192  1
  Zn  Zn146  1  0.93920152  0.93657708  0.68620998  1
  Zn  Zn147  1  0.06002047  0.06203126  0.31337004  1
  Zn  Zn148  1  0.06594699  0.06489572  0.81322368  1
  Zn  Zn149  1  0.05683359  0.56421825  0.31293595  1
  Zn  Zn150  1  0.06455165  0.56508988  0.81540538  1
  Zn  Zn151  1  0.56101145  0.06180758  0.30841147  1
  Zn  Zn152  1  0.56018109  0.06316416  0.81438645  1
  Zn  Zn153  1  0.56339899  0.56066576  0.30796841  1
  Zn  Zn154  1  0.54084569  0.55623310  0.80886965  1
  Zn  Zn155  1  0.43286645  0.18071235  0.43710182  1
  Zn  Zn156  1  0.43424496  0.18890870  0.94146102  1
  Zn  Zn157  1  0.43538998  0.68516545  0.43674103  1
  Zn  Zn158  1  0.43786505  0.68853097  0.94235644  1
  Zn  Zn159  1  0.93879281  0.18653999  0.43639265  1
  Zn  Zn160  1  0.93682983  0.18596721  0.93521617  1
  Zn  Zn161  1  0.93920312  0.68301778  0.43908740  1
  Zn  Zn162  1  0.94091382  0.68888327  0.94169918  1
  Zn  Zn163  1  0.06485894  0.31216573  0.06447346  1
  Zn  Zn164  1  0.06519415  0.31179733  0.56518833  1
  Zn  Zn165  1  0.06374881  0.81312729  0.06266801  1
  Zn  Zn166  1  0.06373256  0.81074624  0.56537544  1
  Zn  Zn167  1  0.56485863  0.31096412  0.05889014  1
  Zn  Zn168  1  0.56162007  0.31088555  0.56069145  1
  Zn  Zn169  1  0.53918350  0.80625169  0.05683740  1
  Zn  Zn170  1  0.55978639  0.81297225  0.56436555  1
  O  O171  1  0.11758890  0.12478744  0.11707154  1
  O  O172  1  0.11717044  0.12439318  0.61792775  1
  O  O173  1  0.12057779  0.62239040  0.12077256  1
  O  O174  1  0.12394885  0.61826241  0.61984092  1
  O  O175  1  0.61831687  0.11324469  0.12930093  1
  O  O176  1  0.61791346  0.12063761  0.61995083  1
  O  O177  1  0.61755146  0.61111359  0.12964002  1
  O  O178  1  0.61238287  0.61568761  0.61498914  1
  O  O179  1  0.38054580  0.38257603  0.37959618  1
  O  O180  1  0.39014998  0.37034237  0.86895138  1
  O  O181  1  0.36187507  0.89228716  0.37625855  1
  O  O182  1  0.38734079  0.87168515  0.87663363  1
  O  O183  1  0.86846733  0.38573690  0.37337045  1
  O  O184  1  0.87842829  0.38476017  0.88473329  1
  O  O185  1  0.87503489  0.87058887  0.38718542  1
  O  O186  1  0.87432104  0.88350932  0.88175083  1
  O  O187  1  0.25222947  -0.00048295  0.35957710  1
  O  O188  1  0.24884419  0.00671520  0.86278287  1
  O  O189  1  0.26235409  0.50355361  0.37819176  1
  O  O190  1  0.25469410  0.51556713  0.87781329  1
  O  O191  1  0.75329581  0.00433946  0.36978319  1
  O  O192  1  0.75929087  -0.00381734  0.86371765  1
  O  O193  1  0.75884845  0.50351722  0.37252765  1
  O  O194  1  0.75738450  0.49479268  0.86827303  1
  O  O195  1  0.23694591  0.49481913  0.12112898  1
  O  O196  1  0.24139874  0.48827436  0.62012006  1
  O  O197  1  0.24797804  0.99414835  0.13834079  1
  O  O198  1  0.24829250  0.99195200  0.63634061  1
  O  O199  1  0.73723784  0.49691502  0.11807529  1
  O  O200  1  0.74415257  0.49456149  0.63079751  1
  O  O201  1  0.73802852  0.99738302  0.12670791  1
  O  O202  1  0.74613434  0.99287825  0.63640673  1
  O  O203  1  0.00714333  0.36475753  0.24085206  1
  O  O204  1  0.01013457  0.36817657  0.75087677  1
  O  O205  1  0.01346751  0.88248645  0.25037439  1
  O  O206  1  0.01009605  0.86624204  0.74530124  1
  O  O207  1  0.49759086  0.37213843  0.26448879  1
  O  O208  1  0.50770411  0.37066422  0.76183512  1
  O  O209  1  0.50874006  0.86153790  0.24514613  1
  O  O210  1  0.50748209  0.87271105  0.75534707  1
  O  O211  1  0.49627625  0.12359347  0.23571322  1
  O  O212  1  0.49181338  0.12655624  0.74469016  1
  O  O213  1  0.49886005  0.63445497  0.24629511  1
  O  O214  1  0.52586596  0.65129529  0.74050862  1
  O  O215  1  0.99223196  0.13128085  0.24243931  1
  O  O216  1  0.99588035  0.13245750  0.74476987  1
  O  O217  1  0.98835519  0.62571328  0.24083085  1
  O  O218  1  0.99883071  0.63331187  0.74511287  1
  O  O219  1  0.36089653  0.24747486  0.01174084  1
  O  O220  1  0.37325400  0.26076038  0.50011510  1
  O  O221  1  0.43284167  0.77320302  0.01194127  1
  O  O222  1  0.37045317  0.75144117  0.50672831  1
  O  O223  1  0.87227549  0.25858216  0.00064412  1
  O  O224  1  0.87469493  0.24911734  0.51406051  1
  O  O225  1  0.86692899  0.75347730  0.00647035  1
  O  O226  1  0.87121133  0.75429795  0.50690698  1
  O  O227  1  0.12162475  0.24323224  0.49024465  1
  O  O228  1  0.13530944  0.23887111  1.00567855  1
  O  O229  1  0.12732342  0.73999430  0.49596115  1
  O  O230  1  0.11811871  0.74248440  0.98885448  1
  O  O231  1  0.63567844  0.23972065  0.50754232  1
  O  O232  1  0.63843738  0.25343878  0.99088746  1
  O  O233  1  0.62559313  0.74230357  0.49635590  1
  O  O234  1  0.63547479  0.75516547  0.99212559  1
  O  O235  1  0.49198891  0.24252720  0.11622295  1
  O  O236  1  0.49904333  0.23794462  0.62731478  1
  O  O237  1  0.51188537  0.73631042  0.14570048  1
  O  O238  1  0.48782191  0.74557870  0.63079190  1
  O  O239  1  0.99603525  0.24087566  0.13203204  1
  O  O240  1  0.99346728  0.24668261  0.63434086  1
  O  O241  1  0.99071730  0.73891321  0.11942486  1
  O  O242  1  0.99593176  0.74389629  0.63529302  1
  O  O243  1  0.00576599  0.24945976  0.36298732  1
  O  O244  1  -0.00430315  0.25332401  0.86115410  1
  O  O245  1  0.01347691  0.74944022  0.38098907  1
  O  O246  1  0.00934597  0.74425328  0.86424438  1
  O  O247  1  0.49651690  0.25951570  0.37836673  1
  O  O248  1  0.50674199  0.25961673  0.87964592  1
  O  O249  1  0.50715199  0.74260850  0.36498927  1
  O  O250  1  0.51070550  0.76138712  0.86593701  1
  O  O251  1  0.23489751  0.12598664  0.50741115  1
  O  O252  1  0.24564071  0.12986591  0.99391172  1
  O  O253  1  0.23653270  0.62215419  0.49346250  1
  O  O254  1  0.24051315  0.62565424  0.99748490  1
  O  O255  1  0.74154692  0.13046706  0.50441280  1
  O  O256  1  0.76042146  0.13732204  0.99907719  1
  O  O257  1  0.73816319  0.63073524  0.50305712  1
  O  O258  1  0.75251971  0.63973659  1.00029233  1
  O  O259  1  0.24050887  0.36734216  0.01272374  1
  O  O260  1  0.25790386  0.37388671  0.50582504  1
  O  O261  1  0.25062933  0.88075024  0.01633402  1
  O  O262  1  0.24632444  0.87396985  0.51473107  1
  O  O263  1  0.75968412  0.37316181  0.00643959  1
  O  O264  1  0.75153139  0.36731055  0.50776254  1
  O  O265  1  0.76156753  0.86508523  0.00172130  1
  O  O266  1  0.75584285  0.86891171  0.50686127  1
  O  O267  1  0.11531880  0.49299094  0.24241491  1
  O  O268  1  0.11848136  0.49398372  0.73777620  1
  O  O269  1  0.13298079  0.99567278  0.25006530  1
  O  O270  1  0.13111747  0.99214292  0.74861263  1
  O  O271  1  0.62550147  0.49143396  0.23598466  1
  O  O272  1  0.62808466  0.49036715  0.74725278  1
  O  O273  1  0.62133659  0.99090811  0.23967796  1
  O  O274  1  0.63290644  0.99700410  0.74800150  1
  O  O275  1  0.36380453  0.00207571  0.25778697  1
  O  O276  1  0.36750182  0.01149707  0.74556720  1
  O  O277  1  0.37578740  0.49649832  0.26318561  1
  O  O278  1  0.44588832  0.53543948  0.73100945  1
  O  O279  1  0.87410537  0.00689677  0.24982405  1
  O  O280  1  0.87060682  0.00609946  0.75382135  1
  O  O281  1  0.87884033  0.50966389  0.25790367  1
  O  O282  1  0.86590028  0.50071939  0.75958071  1
  O  O283  1  0.12551453  0.37055372  0.36360201  1
  O  O284  1  0.12757349  0.38431566  0.86268383  1
  O  O285  1  0.12479808  0.86542838  0.36751726  1
  O  O286  1  0.13234763  0.86812202  0.86447011  1
  O  O287  1  0.60680976  0.37801344  0.37637650  1
  O  O288  1  0.61683464  0.36940932  0.86968023  1
  O  O289  1  0.62566979  0.86374638  0.36931222  1
  O  O290  1  0.61971726  0.87588971  0.86570770  1
  O  O291  1  0.38259441  0.13396714  0.12792030  1
  O  O292  1  0.38239013  0.12484552  0.62991912  1
  O  O293  1  0.38518229  0.62227526  0.12714429  1
  O  O294  1  0.38047185  0.63001810  0.61692656  1
  O  O295  1  0.88296855  0.12944260  0.12886161  1
  O  O296  1  0.88143166  0.13132403  0.63509195  1
  O  O297  1  0.88285994  0.63063180  0.13028317  1
  O  O298  1  0.88076334  0.63113371  0.62821361  1
  O  O299  1  0.25407905  0.25890472  0.11847167  1
  O  O300  1  0.25033238  0.26303041  0.61924882  1
  O  O301  1  0.24978753  0.76626364  0.12864746  1
  O  O302  1  0.26135963  0.75508664  0.62680212  1
  O  O303  1  0.75926889  0.25823120  0.11206913  1
  O  O304  1  0.75913997  0.25475251  0.62012776  1
  O  O305  1  0.75442328  0.74952690  0.11364732  1
  O  O306  1  0.75303722  0.75466888  0.62224760  1
  O  O307  1  0.23605581  0.25477397  0.37508784  1
  O  O308  1  0.25225309  0.24329493  0.88588560  1
  O  O309  1  0.23975898  0.73964464  0.37605235  1
  O  O310  1  0.24057352  0.74205526  0.87157997  1
  O  O311  1  0.76518955  0.24310874  0.39627516  1
  O  O312  1  0.74297612  0.25751490  0.88261621  1
  O  O313  1  0.73892551  0.74552211  0.38438379  1
  O  O314  1  0.74114719  0.75075351  0.88639272  1
  O  O315  1  0.00804144  0.12813790  0.00530827  1
  O  O316  1  0.00634411  0.11698131  0.50500574  1
  O  O317  1  0.00919889  0.62005747  0.00794999  1
  O  O318  1  0.01118396  0.61635621  0.50705924  1
  O  O319  1  0.49658685  0.11391707  0.00665538  1
  O  O320  1  0.50670805  0.12049389  0.50721383  1
  O  O321  1  0.49870499  0.60873244  0.00883295  1
  O  O322  1  0.50311223  0.61420550  0.50434376  1
  O  O323  1  0.49315325  0.37919274  0.48987400  1
  O  O324  1  0.49954344  0.38068962  0.99111118  1
  O  O325  1  0.49703090  0.88339732  0.50846533  1
  O  O326  1  0.51446062  0.89951855  0.98906220  1
  O  O327  1  0.99817680  0.38708947  0.50698962  1
  O  O328  1  0.99591844  0.38110003  0.99905554  1
  O  O329  1  0.99241225  0.88043166  0.50189791  1
  O  O330  1  0.98541901  0.87594573  1.00528688  1
  O  O331  1  0.48920531  0.49778523  0.37971038  1
  O  O332  1  0.50330036  0.48703551  0.89183152  1
  O  O333  1  0.48487167  1.00023240  0.37143152  1
  O  O334  1  0.49986206  0.99848938  0.88640265  1
  O  O335  1  0.99059088  0.50441718  0.38645147  1
  O  O336  1  0.99287736  0.49894752  0.88181281  1
  O  O337  1  0.99650995  0.99492611  0.38776778  1
  O  O338  1  0.98776435  1.00492432  0.87406130  1
  O  O339  1  0.00216016  0.01368307  0.12010109  1
  O  O340  1  0.00212707  0.00469851  0.61461491  1
  O  O341  1  0.00878450  0.51090718  0.11956759  1
  O  O342  1  0.00638192  0.50608160  0.61997865  1
  O  O343  1  0.50602873  0.00679790  0.11406754  1
  O  O344  1  0.50807670  0.01255100  0.62827387  1
  O  O345  1  0.50625000  0.50315170  0.11925263  1
  O  O346  1  0.50791700  0.49400576  0.60503581  1
  O  O347  1  0.23587596  0.37302960  0.23757345  1
  O  O348  1  0.24433202  0.37251375  0.74199010  1
  O  O349  1  0.23837239  0.88373455  0.24125272  1
  O  O350  1  0.24606909  0.88106739  0.74391689  1
  O  O351  1  0.77252192  0.38966214  0.22466302  1
  O  O352  1  0.74308541  0.38473037  0.74529652  1
  O  O353  1  0.73297685  0.87285790  0.24418713  1
  O  O354  1  0.74467847  0.88225189  0.74781067  1
  O  O355  1  0.24748402  0.11283231  0.24387367  1
  O  O356  1  0.25367988  0.11937972  0.75520667  1
  O  O357  1  0.24256193  0.62125488  0.26046364  1
  O  O358  1  0.25113166  0.62277862  0.76168644  1
  O  O359  1  0.76413243  0.12330144  0.24754774  1
  O  O360  1  0.75961199  0.11677653  0.74232847  1
  O  O361  1  0.76284605  0.62232107  0.24853653  1
  O  O362  1  0.74714553  0.61151209  0.74454390  1
  O  O363  1  0.37052006  0.11066006  0.37263984  1
  O  O364  1  0.36288361  0.12839976  0.86786938  1
  O  O365  1  0.36482621  0.61001211  0.38099472  1
  O  O366  1  0.36437230  0.63359304  0.87737432  1
  O  O367  1  0.87737759  0.12194575  0.36391893  1
  O  O368  1  0.87657368  0.11901848  0.86124026  1
  O  O369  1  0.87376636  0.62083071  0.36728270  1
  O  O370  1  0.87817175  0.61406742  0.87565164  1
  O  O371  1  0.12798864  0.38475353  0.13303703  1
  O  O372  1  0.13203575  0.38213155  0.63249095  1
  O  O373  1  0.13099981  0.87801654  0.13063302  1
  O  O374  1  0.13362184  0.87293029  0.63765782  1
  O  O375  1  0.63303181  0.38126730  0.12456460  1
  O  O376  1  0.62777745  0.37911778  0.63311368  1
  O  O377  1  0.61971443  0.88630265  0.12747934  1
  O  O378  1  0.62965860  0.87894811  0.63874904  1
  O  O379  1  0.11590669  0.25589192  0.25587420  1
  O  O380  1  0.11795949  0.26109781  0.74505230  1
  O  O381  1  0.12582766  0.75922953  0.25819552  1
  O  O382  1  0.11931991  0.75621177  0.75750210  1
  O  O383  1  0.67251090  0.26981878  0.25814897  1
  O  O384  1  0.62629496  0.26220856  0.75588132  1
  O  O385  1  0.62057649  0.75370219  0.25994402  1
  O  O386  1  0.62578291  0.76186621  0.75820661  1
  O  O387  1  0.36681426  0.24874008  0.23544753  1
  O  O388  1  0.37538074  0.23570783  0.74560744  1
  O  O389  1  0.38795529  0.75450806  0.25921930  1
  O  O390  1  0.38721634  0.75368197  0.74169799  1
  O  O391  1  0.87949723  0.24408207  0.24221577  1
  O  O392  1  0.87896261  0.24571451  0.74357946  1
  O  O393  1  0.86821750  0.74593953  0.23755475  1
  O  O394  1  0.88173557  0.75038613  0.74794814  1
  O  O395  1  0.38232327  0.48852397  0.49386816  1
  O  O396  1  0.38802350  0.49515550  1.00694915  1
  O  O397  1  0.37284926  0.99960466  0.48581239  1
  O  O398  1  0.38501099  0.99567776  1.00378158  1
  O  O399  1  0.88244100  0.49870457  0.49215395  1
  O  O400  1  0.88071963  0.49535942  0.99548919  1
  O  O401  1  0.88128718  0.99008317  0.50201851  1
  O  O402  1  0.87549424  0.99206691  0.99052035  1
  O  O403  1  0.12328681  0.01402982  -0.00036087  1
  O  O404  1  0.11812445  0.00533838  0.50015727  1
  O  O405  1  0.12078474  0.50927131  0.00776761  1
  O  O406  1  0.11807667  0.50378926  0.50786704  1
  O  O407  1  0.62630878  0.00305336  0.01006910  1
  O  O408  1  0.62703823  0.00818474  0.50875263  1
  O  O409  1  0.61343358  0.49344654  0.01417000  1
  O  O410  1  0.61896315  0.50591933  0.49897589  1
  O  O411  1  0.36371092  0.36988986  0.12928628  1
  O  O412  1  0.36921645  0.37454217  0.61836100  1
  O  O413  1  0.36006234  0.87913357  0.12885652  1
  O  O414  1  0.36665907  0.86684939  0.62480490  1
  O  O415  1  0.87495295  0.37249433  0.10995684  1
  O  O416  1  0.86979963  0.36704419  0.62624135  1
  O  O417  1  0.87157273  0.86605812  0.11956803  1
  O  O418  1  0.87037004  0.86857625  0.61639336  1
  O  O419  1  0.11767217  0.13516280  0.38329287  1
  O  O420  1  0.13834821  0.12503557  0.88074408  1
  O  O421  1  0.12910791  0.62783799  0.38105345  1
  O  O422  1  0.13372689  0.63161746  0.88241009  1
  O  O423  1  0.62393132  0.12072315  0.38752965  1
  O  O424  1  0.62353076  0.14236872  0.86564134  1
  O  O425  1  0.62399259  0.62945879  0.38593421  1
  O  O426  1  0.61470921  0.63333671  0.86993867  1
