# generated using pymatgen
data_V85Zn86O256
_symmetry_space_group_name_H-M   'P 1'
_cell_length_a   16.93362564
_cell_length_b   16.92642759
_cell_length_c   16.92560604
_cell_angle_alpha   89.99013039
_cell_angle_beta   89.99390578
_cell_angle_gamma   89.93584286
_symmetry_Int_Tables_number   1
_chemical_formula_structural   V85Zn86O256
_chemical_formula_sum   'V85 Zn86 O256'
_cell_volume   4851.31203228
_cell_formula_units_Z   1
loop_
 _symmetry_equiv_pos_site_id
 _symmetry_equiv_pos_as_xyz
  1  'x, y, z'
loop_
 _atom_site_type_symbol
 _atom_site_label
 _atom_site_symmetry_multiplicity
 _atom_site_fract_x
 _atom_site_fract_y
 _atom_site_fract_z
 _atom_site_occupancy
  V  V0  1  0.87840287  0.62247564  0.25168768  1
  V  V1  1  -0.00731984  0.37666925  0.37489754  1
  V  V2  1  0.00177198  0.62142871  0.11864587  1
  V  V3  1  0.12897868  0.49527840  0.12338256  1
  V  V4  1  0.75112369  0.12420812  0.87008143  1
  V  V5  1  0.24677538  0.75831305  0.00385340  1
  V  V6  1  0.62490299  0.12785864  0.00084343  1
  V  V7  1  0.50192358  0.00096230  -0.00304424  1
  V  V8  1  0.49734700  0.50156405  0.50277678  1
  V  V9  1  0.00097604  0.00556733  0.49808752  1
  V  V10  1  0.86525621  0.24416733  0.62890608  1
  V  V11  1  0.50726262  0.63149587  0.13010582  1
  V  V12  1  0.24348778  0.25169402  0.50659272  1
  V  V13  1  0.75071332  0.75172190  0.51292178  1
  V  V14  1  0.24988836  0.25220900  0.01583155  1
  V  V15  1  0.25018518  0.49528569  0.74657245  1
  V  V16  1  0.36954493  0.74885420  0.62049848  1
  V  V17  1  -0.00408420  0.62794980  0.62351427  1
  V  V18  1  0.62632617  0.50153298  0.11220890  1
  V  V19  1  0.12773454  0.12075339  0.00392749  1
  V  V20  1  0.13158869  0.74371754  0.86883202  1
  V  V21  1  0.50146453  0.25188674  0.75274726  1
  V  V22  1  0.49857826  0.62586501  0.62794001  1
  V  V23  1  0.87256856  0.74598279  0.11837138  1
  V  V24  1  0.00138125  0.48433058  -0.00742463  1
  V  V25  1  0.12048231  0.37487611  0.75553857  1
  V  V26  1  0.12769097  0.49187704  0.62166134  1
  V  V27  1  0.37649961  0.12556309  0.75033305  1
  V  V28  1  0.49790770  -0.00004910  0.49573880  1
  V  V29  1  0.13345166  0.62084949  -0.00720330  1
  V  V30  1  -0.00090066  0.24848204  0.25049905  1
  V  V31  1  0.25070778  0.12813055  0.87557675  1
  V  V32  1  0.37848791  -0.00418824  0.87390512  1
  V  V33  1  0.37376323  0.87808347  0.49708065  1
  V  V34  1  0.86868615  0.87258570  0.51621640  1
  V  V35  1  0.50479664  0.12443546  0.62374503  1
  V  V36  1  -0.00005999  0.11634374  0.12776139  1
  V  V37  1  0.49709946  0.86817849  0.37077018  1
  V  V38  1  0.37097505  0.75139255  0.13682246  1
  V  V39  1  0.25048247  0.00031150  0.74847645  1
  V  V40  1  0.12893735  0.37244801  0.24871751  1
  V  V41  1  0.74584908  0.25084941  0.48472489  1
  V  V42  1  0.61821240  0.00324515  0.12729731  1
  V  V43  1  -0.00372628  0.75010405  0.74574963  1
  V  V44  1  0.37650402  0.87280499  0.00131539  1
  V  V45  1  0.75411660  0.62390791  0.37554022  1
  V  V46  1  0.37026145  0.25721518  0.62835937  1
  V  V47  1  0.12686526  0.62885242  0.50112333  1
  V  V48  1  0.63121117  0.37469272  0.74751703  1
  V  V49  1  0.86835350  0.37789402  0.50531367  1
  V  V50  1  0.87402815  0.62575896  0.75108320  1
  V  V51  1  0.87005136  0.12465032  0.25560139  1
  V  V52  1  0.24666036  0.87222240  0.61414116  1
  V  V53  1  0.75042362  0.87593140  0.12422714  1
  V  V54  1  0.00480367  -0.00186986  -0.00056286  1
  V  V55  1  0.87678196  0.00343649  0.86859861  1
  V  V56  1  0.87409165  0.87423076  -0.00335094  1
  V  V57  1  0.62514774  0.62691450  0.50044776  1
  V  V58  1  0.26133494  0.12351437  0.37895739  1
  V  V59  1  0.24927980  0.63064456  0.37734570  1
  V  V60  1  0.12378982  0.24266507  0.38060654  1
  V  V61  1  0.36773470  0.62665892  0.75842738  1
  V  V62  1  0.73839331  0.62994676  0.87692666  1
  V  V63  1  0.36861922  0.49891027  0.87839430  1
  V  V64  1  0.36808007  0.37747837  0.50333149  1
  V  V65  1  0.39505125  0.24663364  0.13299871  1
  V  V66  1  0.74824913  0.00116078  0.25756938  1
  V  V67  1  0.87781294  0.48881647  0.87512644  1
  V  V68  1  0.62216394  0.86581723  0.25124033  1
  V  V69  1  0.37435398  0.37672934  0.00885402  1
  V  V70  1  0.37196066  0.49864968  0.37473051  1
  V  V71  1  -0.00622818  0.50081029  0.49500856  1
  V  V72  1  -0.00300946  0.24673425  0.75285323  1
  V  V73  1  0.12100453  0.74944748  0.37108517  1
  V  V74  1  0.75241442  0.50139247  0.24623613  1
  V  V75  1  0.49785794  0.75640257  0.75681041  1
  V  V76  1  0.25167827  0.49898670  0.24533210  1
  V  V77  1  0.62971346  0.87152041  0.74736276  1
  V  V78  1  -0.00788643  0.87278314  0.37425314  1
  V  V79  1  0.62763317  0.12844296  0.48362398  1
  V  V80  1  0.12582740  0.87593292  0.75007925  1
  V  V81  1  0.63267175  0.49554994  0.62450872  1
  V  V82  1  0.87526845  0.25489128  0.11407025  1
  V  V83  1  0.75306905  -0.00137774  0.74003070  1
  V  V84  1  0.12642979  0.00834061  0.61546266  1
  Zn  Zn85  1  0.38496058  0.11456845  0.24967590  1
  Zn  Zn86  1  0.73162471  0.74717202  -0.00499848  1
  Zn  Zn87  1  0.25067398  -0.00265623  0.24010582  1
  Zn  Zn88  1  0.62997009  -0.00357305  0.62048185  1
  Zn  Zn89  1  0.62416967  0.37485766  0.25165343  1
  Zn  Zn90  1  0.75276615  0.49749736  0.74782115  1
  Zn  Zn91  1  -0.00008556  0.12623386  0.62383251  1
  Zn  Zn92  1  0.52978784  0.23838793  0.27555143  1
  Zn  Zn93  1  0.50651660  0.37161769  0.37454068  1
  Zn  Zn94  1  0.75516550  0.38027480  0.11512222  1
  Zn  Zn95  1  0.12293467  0.89520926  0.23356056  1
  Zn  Zn96  1  0.00212228  0.75300495  0.24440977  1
  Zn  Zn97  1  0.00095960  0.87386780  0.87163041  1
  Zn  Zn98  1  0.50049374  0.37820418  0.87672780  1
  Zn  Zn99  1  0.62667977  0.25393561  0.87669705  1
  Zn  Zn100  1  0.87031903  0.00184007  0.37801590  1
  Zn  Zn101  1  0.75391457  0.25677662  -0.00742583  1
  Zn  Zn102  1  0.38316475  0.62758623  0.25483681  1
  Zn  Zn103  1  0.50193056  0.50505627  -0.00299467  1
  Zn  Zn104  1  0.62242181  0.74414050  0.37209655  1
  Zn  Zn105  1  0.12000942  0.25500261  0.87924364  1
  Zn  Zn106  1  0.56246754  0.81284982  0.91585065  1
  Zn  Zn107  1  0.18638493  0.17138106  0.19227120  1
  Zn  Zn108  1  0.18566016  0.18917475  0.68792654  1
  Zn  Zn109  1  0.18766548  0.68753995  0.18726812  1
  Zn  Zn110  1  0.18784808  0.68386303  0.68450418  1
  Zn  Zn111  1  0.68848279  0.18803611  0.18619466  1
  Zn  Zn112  1  0.68749754  0.18594491  0.68643618  1
  Zn  Zn113  1  0.68891422  0.68487522  0.18280031  1
  Zn  Zn114  1  0.68440219  0.68667572  0.69222094  1
  Zn  Zn115  1  0.31356710  0.31209530  0.31321082  1
  Zn  Zn116  1  0.30961941  0.31607572  0.81606334  1
  Zn  Zn117  1  0.30376647  0.81908087  0.31545159  1
  Zn  Zn118  1  0.30982294  0.81468090  0.81348921  1
  Zn  Zn119  1  0.81162373  0.31410021  0.30668419  1
  Zn  Zn120  1  0.81095615  0.31105889  0.80966602  1
  Zn  Zn121  1  0.81076499  0.80780028  0.31222594  1
  Zn  Zn122  1  0.81129971  0.81280798  0.80992647  1
  Zn  Zn123  1  0.18544912  0.43564347  0.43506573  1
  Zn  Zn124  1  0.19250483  0.43484231  0.93562712  1
  Zn  Zn125  1  0.19103477  0.92851319  0.41526503  1
  Zn  Zn126  1  0.18566627  0.93645294  1.07066331  1
  Zn  Zn127  1  0.69167033  0.44082685  0.43424714  1
  Zn  Zn128  1  0.69310329  0.43606161  0.93410123  1
  Zn  Zn129  1  0.68433607  0.93625167  0.43810278  1
  Zn  Zn130  1  0.69066054  0.93894435  0.93416503  1
  Zn  Zn131  1  0.32059520  0.06733960  0.06415693  1
  Zn  Zn132  1  0.31283652  0.06578627  0.55936121  1
  Zn  Zn133  1  0.31416904  0.56835907  0.06571288  1
  Zn  Zn134  1  0.30849946  0.56461157  0.56515682  1
  Zn  Zn135  1  0.81115006  0.06373055  0.06281505  1
  Zn  Zn136  1  0.81296136  0.06738688  0.55722592  1
  Zn  Zn137  1  0.81361847  0.56073737  0.05301632  1
  Zn  Zn138  1  0.81338774  0.56491577  0.56390826  1
  Zn  Zn139  1  0.44417265  0.43358689  0.18913506  1
  Zn  Zn140  1  0.44011438  0.43702397  0.68883236  1
  Zn  Zn141  1  0.43180692  0.94040406  0.18816147  1
  Zn  Zn142  1  0.44022039  0.93614424  0.68449652  1
  Zn  Zn143  1  0.93988947  0.43828496  0.18570285  1
  Zn  Zn144  1  0.93838213  0.43517462  0.68568170  1
  Zn  Zn145  1  0.93715350  0.93618560  0.18922982  1
  Zn  Zn146  1  0.93963436  0.94016654  0.68588214  1
  Zn  Zn147  1  0.06512356  0.05969657  0.31503262  1
  Zn  Zn148  1  0.06426162  0.06427358  0.81212187  1
  Zn  Zn149  1  0.06154413  0.56133185  0.31141526  1
  Zn  Zn150  1  0.06144950  0.56048696  0.81178083  1
  Zn  Zn151  1  0.55471237  0.05660404  0.31113443  1
  Zn  Zn152  1  0.56627579  0.05835674  0.81218679  1
  Zn  Zn153  1  0.57111062  0.54168386  0.31737985  1
  Zn  Zn154  1  0.55748709  0.56087118  0.81026658  1
  Zn  Zn155  1  0.43987116  0.19397877  0.43927409  1
  Zn  Zn156  1  0.43854157  0.18767626  0.94130146  1
  Zn  Zn157  1  0.43627585  0.68942757  0.43810781  1
  Zn  Zn158  1  0.43322242  0.68091291  0.94335823  1
  Zn  Zn159  1  0.93358323  0.18897889  0.43843429  1
  Zn  Zn160  1  0.94002233  0.18347437  0.93262830  1
  Zn  Zn161  1  0.93393450  0.69071572  0.43806314  1
  Zn  Zn162  1  0.94078052  0.68405392  0.93323178  1
  Zn  Zn163  1  0.06475619  0.30647561  0.06656438  1
  Zn  Zn164  1  0.05732171  0.31306682  0.56641664  1
  Zn  Zn165  1  0.05782843  0.80726259  0.05765985  1
  Zn  Zn166  1  0.06018234  0.81489230  0.55852006  1
  Zn  Zn167  1  0.56666904  0.31976915  0.06107280  1
  Zn  Zn168  1  0.56006918  0.31330330  0.55664755  1
  Zn  Zn169  1  0.55624572  0.81474156  0.07738975  1
  Zn  Zn170  1  0.56249747  0.81157343  0.56655204  1
  O  O171  1  0.11415066  0.13090267  0.11163232  1
  O  O172  1  0.12666184  0.11162865  0.62470837  1
  O  O173  1  0.11792419  0.61827305  0.11727635  1
  O  O174  1  0.11789113  0.61515845  0.61771138  1
  O  O175  1  0.63454004  0.11504485  0.11037851  1
  O  O176  1  0.61270377  0.12593961  0.61906469  1
  O  O177  1  0.61466200  0.62194520  0.12148568  1
  O  O178  1  0.61683795  0.61844834  0.62239204  1
  O  O179  1  0.37320556  0.38473840  0.38504603  1
  O  O180  1  0.37595008  0.38221239  0.88542192  1
  O  O181  1  0.38111864  0.86576836  0.39073983  1
  O  O182  1  0.36745861  0.88412186  0.88690730  1
  O  O183  1  0.88682345  0.36868989  0.38445700  1
  O  O184  1  0.87204931  0.39018053  0.86721993  1
  O  O185  1  0.88311680  0.87388529  0.37763518  1
  O  O186  1  0.87702262  0.88254226  0.88097593  1
  O  O187  1  0.24560650  0.02731136  0.39822549  1
  O  O188  1  0.26400253  0.01517109  0.86656944  1
  O  O189  1  0.25631110  0.50834364  0.37163588  1
  O  O190  1  0.26076960  0.49873168  0.86527758  1
  O  O191  1  0.75020849  -0.00547057  0.36129171  1
  O  O192  1  0.75919884  0.00434894  0.86515022  1
  O  O193  1  0.75450521  0.51598909  0.36346288  1
  O  O194  1  0.76344753  0.51108773  0.87092215  1
  O  O195  1  0.24413654  0.50509792  0.13628368  1
  O  O196  1  0.23852365  0.50164872  0.63129657  1
  O  O197  1  0.24764227  1.01078782  0.12314695  1
  O  O198  1  0.24444273  0.99403439  0.62729843  1
  O  O199  1  0.74352728  0.50617734  0.12549839  1
  O  O200  1  0.73668022  0.50522211  0.62714608  1
  O  O201  1  0.74226670  0.99220069  0.12992817  1
  O  O202  1  0.75260651  1.00823598  0.63672863  1
  O  O203  1  0.00372201  0.37072333  0.25837992  1
  O  O204  1  0.00883463  0.36233472  0.74311912  1
  O  O205  1  0.00392314  0.87341342  0.25947925  1
  O  O206  1  0.00750998  0.86572006  0.74499387  1
  O  O207  1  0.50362529  0.36727765  0.25602065  1
  O  O208  1  0.50655386  0.36616646  0.75221904  1
  O  O209  1  0.50857660  0.88095259  0.26002886  1
  O  O210  1  0.50670316  0.86638972  0.74824483  1
  O  O211  1  0.49710835  0.13158024  0.25549320  1
  O  O212  1  0.49714834  0.13020767  0.74271100  1
  O  O213  1  0.50041523  0.61503117  0.23488273  1
  O  O214  1  0.48885653  0.63189240  0.74461141  1
  O  O215  1  0.99391308  0.12824621  0.24246191  1
  O  O216  1  1.00711079  0.14121035  0.74540869  1
  O  O217  1  0.99482668  0.62313557  0.23804061  1
  O  O218  1  0.99593691  0.63007723  0.74162714  1
  O  O219  1  0.37046272  0.25619670  0.01053359  1
  O  O220  1  0.36794286  0.26007194  0.51056239  1
  O  O221  1  0.36588455  0.75613175  0.00425711  1
  O  O222  1  0.37844786  0.75655770  0.51497335  1
  O  O223  1  0.88081402  0.24255123  0.01185279  1
  O  O224  1  0.86390115  0.25518568  0.50777711  1
  O  O225  1  0.87868568  0.75640328  0.00571345  1
  O  O226  1  0.86766142  0.76403824  0.49912589  1
  O  O227  1  0.13229544  0.26219305  0.49408438  1
  O  O228  1  0.13229825  0.24204066  0.99742431  1
  O  O229  1  0.11514350  0.73382575  0.49380167  1
  O  O230  1  0.12978544  0.74199678  0.98871862  1
  O  O231  1  0.63984357  0.24617316  0.50608184  1
  O  O232  1  0.62480923  0.24037534  0.99726364  1
  O  O233  1  0.63194498  0.74381487  0.50019579  1
  O  O234  1  0.62107886  0.76748796  0.99909576  1
  O  O235  1  0.49435594  0.25365639  0.12469843  1
  O  O236  1  0.49273563  0.24459256  0.63318767  1
  O  O237  1  0.48882897  0.73896427  0.13009011  1
  O  O238  1  0.49001635  0.74542846  0.63606687  1
  O  O239  1  0.99275830  0.23823470  0.12989780  1
  O  O240  1  0.99004033  0.24651392  0.63125022  1
  O  O241  1  0.99233656  0.73540978  0.12278742  1
  O  O242  1  1.00677389  0.73627998  0.62998189  1
  O  O243  1  0.00554116  0.25643638  0.37275176  1
  O  O244  1  -0.00084788  0.24829416  0.85881944  1
  O  O245  1  0.00252340  0.75345169  0.36966375  1
  O  O246  1  0.01211621  0.75087512  0.86509989  1
  O  O247  1  0.51186165  0.25886419  0.38952695  1
  O  O248  1  0.49981630  0.24797757  0.86134973  1
  O  O249  1  0.50369205  0.76244807  0.37999333  1
  O  O250  1  0.48785452  0.74496025  0.86212231  1
  O  O251  1  0.25404174  0.14485651  0.49714145  1
  O  O252  1  0.24451648  0.13069403  0.99271833  1
  O  O253  1  0.23734231  0.61919658  0.49205965  1
  O  O254  1  0.23793082  0.63294000  1.00212806  1
  O  O255  1  0.74244738  0.13967634  0.50046968  1
  O  O256  1  0.74391744  0.12425113  0.98739599  1
  O  O257  1  0.74867955  0.63062531  0.49262425  1
  O  O258  1  0.75476497  0.62907231  0.98129071  1
  O  O259  1  0.25826604  0.36214033  -0.00370937  1
  O  O260  1  0.25980135  0.36907422  0.49739596  1
  O  O261  1  0.25618717  0.86339138  0.00162191  1
  O  O262  1  0.25614977  0.87983996  0.50778087  1
  O  O263  1  0.75152205  0.36990992  0.00158036  1
  O  O264  1  0.75629162  0.36657682  0.49486240  1
  O  O265  1  0.76292880  0.87633755  0.00308233  1
  O  O266  1  0.76057017  0.86825861  0.49626167  1
  O  O267  1  0.13062477  0.49216604  0.24602212  1
  O  O268  1  0.12918337  0.49479311  0.74254115  1
  O  O269  1  0.13236609  1.01020261  0.24354853  1
  O  O270  1  0.12918229  0.99220713  0.74173178  1
  O  O271  1  0.64178258  0.51082476  0.22991471  1
  O  O272  1  0.62263178  0.49237741  0.74116120  1
  O  O273  1  0.63068471  0.99386689  0.24268231  1
  O  O274  1  0.63305709  0.99170951  0.74382345  1
  O  O275  1  0.36539468  0.00104106  0.25082475  1
  O  O276  1  0.37250613  0.00403270  0.75454443  1
  O  O277  1  0.36702870  0.49897924  0.25794188  1
  O  O278  1  0.36770146  0.50542843  0.75358094  1
  O  O279  1  0.86600270  0.00631362  0.24954427  1
  O  O280  1  0.86833552  -0.00696543  0.75779289  1
  O  O281  1  0.87004306  0.51505682  0.23786932  1
  O  O282  1  0.87676978  0.50574283  0.75673616  1
  O  O283  1  0.11444622  0.36884727  0.36675183  1
  O  O284  1  0.12847167  0.37423780  0.86028599  1
  O  O285  1  0.10263081  0.85719759  0.39680611  1
  O  O286  1  0.12346122  0.86579817  0.85475609  1
  O  O287  1  0.61036656  0.42619053  0.35987097  1
  O  O288  1  0.62013708  0.37544840  0.86376043  1
  O  O289  1  0.61720183  0.87177483  0.36729993  1
  O  O290  1  0.62350821  0.88696762  0.85549420  1
  O  O291  1  0.38021119  0.14406536  0.12378046  1
  O  O292  1  0.38489714  0.13475343  0.62979492  1
  O  O293  1  0.38066647  0.63477636  0.13363588  1
  O  O294  1  0.37671992  0.63236856  0.63314279  1
  O  O295  1  0.88274028  0.13092651  0.13135543  1
  O  O296  1  0.87734399  0.14097192  0.62132402  1
  O  O297  1  0.88191499  0.62995954  0.12366582  1
  O  O298  1  0.88382971  0.61977679  0.63808042  1
  O  O299  1  0.24853059  0.24262604  0.11663275  1
  O  O300  1  0.25874991  0.24838477  0.62088130  1
  O  O301  1  0.25835004  0.74230943  0.11479990  1
  O  O302  1  0.25634865  0.75968320  0.62907607  1
  O  O303  1  0.76916931  0.24746403  0.11993291  1
  O  O304  1  0.76256595  0.24918356  0.62261115  1
  O  O305  1  0.75810548  0.75487570  0.11766749  1
  O  O306  1  0.74770945  0.74124442  0.61229484  1
  O  O307  1  0.24225511  0.24725389  0.38514399  1
  O  O308  1  0.25016676  0.23831869  0.88038481  1
  O  O309  1  0.23910354  0.73688539  0.37624774  1
  O  O310  1  0.23742714  0.75285775  0.88059411  1
  O  O311  1  0.75496357  0.25222516  0.38630473  1
  O  O312  1  0.74927872  0.23853542  0.87295656  1
  O  O313  1  0.74699802  0.73849399  0.38132946  1
  O  O314  1  0.75390312  0.73499117  0.87301471  1
  O  O315  1  0.00724281  0.11707324  0.00425525  1
  O  O316  1  -0.00743668  0.10982346  0.49942719  1
  O  O317  1  0.01176698  0.61753571  0.00356335  1
  O  O318  1  0.00060786  0.61814196  0.50479425  1
  O  O319  1  0.50866377  0.11068596  -0.00495456  1
  O  O320  1  0.50508165  0.11819362  0.50599293  1
  O  O321  1  0.48802062  0.61948749  0.02181136  1
  O  O322  1  0.50343799  0.62218375  0.50826664  1
  O  O323  1  0.48593459  0.38554301  0.50099524  1
  O  O324  1  0.49042080  0.38208410  0.99645313  1
  O  O325  1  0.49349091  0.88088525  0.49866425  1
  O  O326  1  0.49361667  0.88429808  0.99462563  1
  O  O327  1  0.99236705  0.38244240  0.49441573  1
  O  O328  1  1.01125924  0.38548609  1.00175865  1
  O  O329  1  0.98353185  0.88077026  0.49754891  1
  O  O330  1  0.99039628  0.88087863  0.99604497  1
  O  O331  1  0.47882851  0.51227084  0.38541687  1
  O  O332  1  0.48290688  0.50287625  0.87595435  1
  O  O333  1  0.50351518  0.98583487  0.38962434  1
  O  O334  1  0.48650346  1.00444305  0.87866428  1
  O  O335  1  1.00411180  0.49270069  0.38642919  1
  O  O336  1  0.98915272  0.50097359  0.87893459  1
  O  O337  1  0.99690688  0.99103794  0.38224495  1
  O  O338  1  0.99437252  0.99820108  0.87961282  1
  O  O339  1  -0.00792802  0.00960693  0.11598200  1
  O  O340  1  0.00838916  0.00279300  0.61786795  1
  O  O341  1  0.00602443  0.50663035  0.11519589  1
  O  O342  1  0.00611815  0.50853521  0.61570827  1
  O  O343  1  0.51240858  -0.00559754  0.11559739  1
  O  O344  1  0.50068346  0.00901899  0.61551373  1
  O  O345  1  0.51347650  0.50657047  0.12305163  1
  O  O346  1  0.50336865  0.50826587  0.62058922  1
  O  O347  1  0.23997704  0.38677608  0.26012572  1
  O  O348  1  0.24329578  0.38708649  0.74988246  1
  O  O349  1  0.22285312  0.89354283  0.30047150  1
  O  O350  1  0.24451876  0.88139612  0.73889597  1
  O  O351  1  0.75797774  0.39309751  0.24348161  1
  O  O352  1  0.73580510  0.37641746  0.74931831  1
  O  O353  1  0.74458642  0.88039155  0.24380578  1
  O  O354  1  0.73941158  0.88065630  0.74967868  1
  O  O355  1  0.25625261  0.12964884  0.27074759  1
  O  O356  1  0.25554852  0.12173730  0.75522188  1
  O  O357  1  0.24846402  0.61376306  0.26035034  1
  O  O358  1  0.25714266  0.61171831  0.74355242  1
  O  O359  1  0.75974905  0.11276603  0.24043385  1
  O  O360  1  0.74197797  0.11496017  0.76167029  1
  O  O361  1  0.75916040  0.62287163  0.25411847  1
  O  O362  1  0.75901838  0.62366952  0.75641456  1
  O  O363  1  0.36366600  0.13287539  0.38050690  1
  O  O364  1  0.37017774  0.12181104  0.86937071  1
  O  O365  1  0.36424961  0.62308784  0.37416747  1
  O  O366  1  0.37205672  0.61967825  0.86370035  1
  O  O367  1  0.87918283  0.12357108  0.35998225  1
  O  O368  1  0.86815967  0.11142676  0.87746863  1
  O  O369  1  0.87038578  0.63098581  0.36188451  1
  O  O370  1  0.87539963  0.61785728  0.86226780  1
  O  O371  1  0.11942775  0.37831147  0.14095738  1
  O  O372  1  0.11990124  0.38703407  0.63220896  1
  O  O373  1  0.12721700  0.85877995  0.12605623  1
  O  O374  1  0.13121164  0.87855268  0.62979998  1
  O  O375  1  0.62993032  0.39247023  0.12610380  1
  O  O376  1  0.61487575  0.38641469  0.63116018  1
  O  O377  1  0.62979200  0.88445050  0.13456486  1
  O  O378  1  0.62073219  0.87878824  0.64011706  1
  O  O379  1  0.11901948  0.25457444  0.25718337  1
  O  O380  1  0.11569091  0.25793728  0.74949576  1
  O  O381  1  0.12224538  0.74530980  0.26411616  1
  O  O382  1  0.11819910  0.75133977  0.75120747  1
  O  O383  1  0.63903036  0.26182365  0.24861708  1
  O  O384  1  0.61692597  0.25657681  0.74857127  1
  O  O385  1  0.63089198  0.76260228  0.24823439  1
  O  O386  1  0.61506807  0.76122452  0.74922686  1
  O  O387  1  0.37228193  0.25366490  0.23437169  1
  O  O388  1  0.37979390  0.24791817  0.74504427  1
  O  O389  1  0.36246277  0.75463439  0.24007042  1
  O  O390  1  0.37584786  0.74485312  0.74342520  1
  O  O391  1  0.88064523  0.24249549  0.24177033  1
  O  O392  1  0.88382321  0.25657714  0.73752324  1
  O  O393  1  0.87598693  0.74061397  0.23483423  1
  O  O394  1  0.88936966  0.74445311  0.75409727  1
  O  O395  1  0.37338016  0.49477788  0.49714167  1
  O  O396  1  0.36776370  0.49364700  0.99423461  1
  O  O397  1  0.38442852  0.98991155  0.50747586  1
  O  O398  1  0.38303202  0.99458761  0.99394429  1
  O  O399  1  0.88215233  0.49205988  0.50494052  1
  O  O400  1  0.88695357  0.50344518  0.98413065  1
  O  O401  1  0.87697173  0.98916031  0.49818421  1
  O  O402  1  0.88422686  0.99358766  0.99326104  1
  O  O403  1  0.11186889  0.00434678  -0.00062497  1
  O  O404  1  0.11316869  -0.01270373  0.50761241  1
  O  O405  1  0.12369813  0.50417955  0.00105223  1
  O  O406  1  0.11708924  0.50533952  0.50477560  1
  O  O407  1  0.61938111  0.00224666  0.00484449  1
  O  O408  1  0.62010787  0.00837986  0.50336599  1
  O  O409  1  0.62616956  0.50265668  0.00861985  1
  O  O410  1  0.61971348  0.50740592  0.50919569  1
  O  O411  1  0.37736554  0.36729225  0.11480070  1
  O  O412  1  0.37783795  0.36521375  0.62058070  1
  O  O413  1  0.38375383  0.86469663  0.11095824  1
  O  O414  1  0.36705517  0.86851437  0.61828458  1
  O  O415  1  0.88122301  0.35790435  0.12761708  1
  O  O416  1  0.87935223  0.36434535  0.61162395  1
  O  O417  1  0.87286495  0.86625137  0.11742125  1
  O  O418  1  0.87404739  0.87515165  0.61443125  1
  O  O419  1  0.12841244  0.14031609  0.37684267  1
  O  O420  1  0.13289773  0.12535204  0.88603271  1
  O  O421  1  0.12749164  0.62843439  0.38227244  1
  O  O422  1  0.12250699  0.63058093  0.88031738  1
  O  O423  1  0.62360060  0.11781184  0.38548742  1
  O  O424  1  0.63239910  0.12274882  0.88487798  1
  O  O425  1  0.63303766  0.62352652  0.38305274  1
  O  O426  1  0.63971775  0.61932091  0.86611364  1
