# generated using pymatgen
data_V85Zn86O256
_symmetry_space_group_name_H-M   'P 1'
_cell_length_a   16.95859573
_cell_length_b   16.97831555
_cell_length_c   16.97835060
_cell_angle_alpha   89.97337887
_cell_angle_beta   90.06636019
_cell_angle_gamma   90.04415636
_symmetry_Int_Tables_number   1
_chemical_formula_structural   V85Zn86O256
_chemical_formula_sum   'V85 Zn86 O256'
_cell_volume   4888.54388903
_cell_formula_units_Z   1
loop_
 _symmetry_equiv_pos_site_id
 _symmetry_equiv_pos_as_xyz
  1  'x, y, z'
loop_
 _atom_site_type_symbol
 _atom_site_label
 _atom_site_symmetry_multiplicity
 _atom_site_fract_x
 _atom_site_fract_y
 _atom_site_fract_z
 _atom_site_occupancy
  V  V0  1  0.12743536  0.13127061  -0.01255661  1
  V  V1  1  0.37438340  0.75707452  0.62206625  1
  V  V2  1  0.37043781  0.00128282  0.87454789  1
  V  V3  1  0.13344827  0.61385401  0.00598178  1
  V  V4  1  0.25100452  0.74740638  -0.00698462  1
  V  V5  1  0.37150781  -0.00502441  0.37786975  1
  V  V6  1  0.75831997  0.50230705  0.74623061  1
  V  V7  1  0.12031914  0.62512810  0.50040552  1
  V  V8  1  0.62652142  -0.00391329  0.12426602  1
  V  V9  1  0.24627843  -0.00146003  0.24715028  1
  V  V10  1  0.12401295  0.75295115  0.87600759  1
  V  V11  1  0.50264688  0.87573315  0.87646539  1
  V  V12  1  0.36843695  0.74864919  0.12694317  1
  V  V13  1  0.49784271  0.62522988  0.62260150  1
  V  V14  1  0.11724081  0.50073283  0.62567532  1
  V  V15  1  0.87548730  0.12565192  0.75077864  1
  V  V16  1  0.88531499  0.87519878  -0.00569882  1
  V  V17  1  -0.00452803  0.12063117  0.11918706  1
  V  V18  1  -0.00703565  0.62573325  0.62017561  1
  V  V19  1  0.37091828  0.61673652  0.25582323  1
  V  V20  1  0.38569414  0.39786673  -0.02357092  1
  V  V21  1  0.87782789  0.37826556  0.49921956  1
  V  V22  1  0.00073853  0.12904253  0.62235438  1
  V  V23  1  0.62821324  0.12319065  0.00181345  1
  V  V24  1  0.87419137  0.25194458  0.62485424  1
  V  V25  1  0.74578139  0.37430552  0.62780815  1
  V  V26  1  0.62408880  0.24281091  0.87307382  1
  V  V27  1  0.62520124  0.87357738  0.25186300  1
  V  V28  1  -0.00576184  0.87576901  0.38044560  1
  V  V29  1  0.25488921  -0.00318636  0.74840525  1
  V  V30  1  0.62200673  0.12685883  0.50044565  1
  V  V31  1  0.49987747  0.00177864  0.00024220  1
  V  V32  1  0.50029346  0.74921750  0.75069315  1
  V  V33  1  0.62505727  0.50022172  0.61845428  1
  V  V34  1  0.25324551  0.61458709  0.37615936  1
  V  V35  1  0.62060625  0.36764061  0.24928648  1
  V  V36  1  0.35184648  0.27919330  0.13447363  1
  V  V37  1  0.63203899  0.74529876  0.87390574  1
  V  V38  1  0.87290448  0.63265800  0.25051368  1
  V  V39  1  0.87719943  0.50219190  0.37650197  1
  V  V40  1  -0.00274673  0.75065676  0.75235388  1
  V  V41  1  0.62754570  0.87387029  0.74797324  1
  V  V42  1  0.49636011  0.74917470  0.25049042  1
  V  V43  1  0.37588562  0.87464430  0.00234001  1
  V  V44  1  0.49311579  0.37538789  0.36838598  1
  V  V45  1  0.12026716  -0.00092530  0.11244202  1
  V  V46  1  0.74816991  0.49817679  0.25357111  1
  V  V47  1  0.87281655  0.62890487  0.74377226  1
  V  V48  1  0.49484642  0.87394588  0.38131656  1
  V  V49  1  0.32087751  0.17582009  0.81408442  1
  V  V50  1  0.12217801  0.87375334  0.24977118  1
  V  V51  1  0.75028099  0.12425468  0.37252020  1
  V  V52  1  -0.00824537  -0.00218564  0.50171136  1
  V  V53  1  0.75263501  0.26172187  -0.00311401  1
  V  V54  1  0.74585194  0.25173141  0.49706616  1
  V  V55  1  0.38231264  0.12106738  0.24512810  1
  V  V56  1  0.48947200  0.12660274  0.62557399  1
  V  V57  1  0.61067683  0.49993068  0.12745047  1
  V  V58  1  0.62356986  -0.00270529  0.62347636  1
  V  V59  1  0.00217303  0.62034317  0.12815615  1
  V  V60  1  0.74604141  -0.00039009  0.74829681  1
  V  V61  1  0.75869630  0.86830385  0.12679168  1
  V  V62  1  -0.00409775  0.75409289  0.24677742  1
  V  V63  1  0.25113241  0.75861206  0.49794226  1
  V  V64  1  0.75548755  0.75001709  0.00047221  1
  V  V65  1  0.74567420  0.63260755  0.38228757  1
  V  V66  1  0.50229742  0.13316490  0.12975121  1
  V  V67  1  0.81614881  0.82365246  0.57013275  1
  V  V68  1  0.50249077  0.24808642  0.75191800  1
  V  V69  1  -0.00519324  0.38864392  0.88891731  1
  V  V70  1  0.24994111  0.12562421  0.37010847  1
  V  V71  1  0.61497461  0.62185983  -0.00058089  1
  V  V72  1  0.60830221  0.39552297  0.77103364  1
  V  V73  1  0.12410985  0.12436632  0.49562001  1
  V  V74  1  0.25185267  0.25310303  0.49739835  1
  V  V75  1  0.75538287  0.12028709  0.87711623  1
  V  V76  1  0.87557677  0.26252011  0.12115624  1
  V  V77  1  0.00017259  0.37821465  0.36835242  1
  V  V78  1  0.24457266  0.37974162  0.62296468  1
  V  V79  1  0.49438019  -0.00014088  0.49973577  1
  V  V80  1  0.00770640  0.25406583  0.76040709  1
  V  V81  1  0.36882243  0.62025276  0.75967320  1
  V  V82  1  0.37352354  0.38807084  0.49779757  1
  V  V83  1  0.12334039  0.25502543  0.36450734  1
  V  V84  1  0.80588880  0.56648642  0.92380881  1
  Zn  Zn85  1  -0.01002106  0.50162859  0.00492638  1
  Zn  Zn86  1  0.62666707  0.63473066  0.50322484  1
  Zn  Zn87  1  0.00134645  0.25212786  0.24364271  1
  Zn  Zn88  1  0.89717765  -0.00262212  0.88409865  1
  Zn  Zn89  1  0.87649623  0.12427079  0.24762279  1
  Zn  Zn90  1  0.49554550  0.62225776  0.12645394  1
  Zn  Zn91  1  0.12649301  0.87478058  0.75103914  1
  Zn  Zn92  1  0.75235774  -0.00111522  0.25187019  1
  Zn  Zn93  1  0.74726628  0.37894734  0.12005069  1
  Zn  Zn94  1  0.12459409  0.75051686  0.37575050  1
  Zn  Zn95  1  0.87226817  0.00038556  0.37458492  1
  Zn  Zn96  1  0.49761881  0.50263642  0.49541607  1
  Zn  Zn97  1  0.24811638  0.87636955  0.12352915  1
  Zn  Zn98  1  0.62730817  0.75572001  0.38162234  1
  Zn  Zn99  1  0.24969514  0.87671732  0.62231957  1
  Zn  Zn100  1  0.12895855  0.37431975  0.76523139  1
  Zn  Zn101  1  0.21953213  0.40189746  0.15110071  1
  Zn  Zn102  1  0.37108666  0.25105910  0.62709866  1
  Zn  Zn103  1  0.61836339  0.24768297  0.36861694  1
  Zn  Zn104  1  0.12786253  -0.00213878  0.62569246  1
  Zn  Zn105  1  0.25135439  0.25008780  -0.00361192  1
  Zn  Zn106  1  0.25591306  0.50097070  0.75607806  1
  Zn  Zn107  1  0.18465656  0.18406831  0.18286908  1
  Zn  Zn108  1  0.18431565  0.19014199  0.68279928  1
  Zn  Zn109  1  0.18765205  0.57274771  0.19147653  1
  Zn  Zn110  1  0.18658267  0.68751495  0.68619337  1
  Zn  Zn111  1  0.69071878  0.18841990  0.18473199  1
  Zn  Zn112  1  0.68318470  0.18693256  0.68624869  1
  Zn  Zn113  1  0.68547672  0.68775743  0.18873101  1
  Zn  Zn114  1  0.69192990  0.69024905  0.68088773  1
  Zn  Zn115  1  0.31681419  0.30942716  0.31159405  1
  Zn  Zn116  1  0.31557551  0.33949158  0.81561867  1
  Zn  Zn117  1  0.30837853  0.80985411  0.31329472  1
  Zn  Zn118  1  0.31378490  0.81136843  0.81270228  1
  Zn  Zn119  1  0.81240180  0.31145416  0.30815775  1
  Zn  Zn120  1  0.81373917  0.31538631  0.81241511  1
  Zn  Zn121  1  0.81367107  0.81474838  0.31796206  1
  Zn  Zn122  1  0.81320277  0.81418219  0.80854894  1
  Zn  Zn123  1  0.18064200  0.44159173  0.43816622  1
  Zn  Zn124  1  0.19025110  0.42614208  0.94132453  1
  Zn  Zn125  1  0.18198908  0.93770121  0.43658327  1
  Zn  Zn126  1  0.18885818  0.93430148  0.93504523  1
  Zn  Zn127  1  0.68490772  0.43666321  0.43433967  1
  Zn  Zn128  1  0.65952761  0.44058868  0.93176933  1
  Zn  Zn129  1  0.68800941  0.93616324  0.44162701  1
  Zn  Zn130  1  0.69195116  0.93481632  0.93647347  1
  Zn  Zn131  1  0.30962664  0.06637643  0.06033945  1
  Zn  Zn132  1  0.31038944  0.06343286  0.56003429  1
  Zn  Zn133  1  0.31928833  0.55934634  0.05902261  1
  Zn  Zn134  1  0.30767976  0.56836261  0.56663383  1
  Zn  Zn135  1  0.81484534  0.05749455  0.06182451  1
  Zn  Zn136  1  0.81031488  0.06025249  0.56423284  1
  Zn  Zn137  1  0.81093439  0.56414575  0.08570143  1
  Zn  Zn138  1  0.81441911  0.56306413  0.56079086  1
  Zn  Zn139  1  0.41698612  0.43147541  0.19249174  1
  Zn  Zn140  1  0.43542094  0.43771306  0.68489390  1
  Zn  Zn141  1  0.43827399  0.93832355  0.18887699  1
  Zn  Zn142  1  0.43674345  0.93796009  0.69099225  1
  Zn  Zn143  1  1.05064170  0.43954172  0.18908167  1
  Zn  Zn144  1  0.94058513  0.44021714  0.68756888  1
  Zn  Zn145  1  0.93553828  0.94154215  0.18783831  1
  Zn  Zn146  1  0.94249553  0.94428414  0.70314244  1
  Zn  Zn147  1  0.05820122  0.06241491  0.30754777  1
  Zn  Zn148  1  0.06227478  0.05970067  0.80744682  1
  Zn  Zn149  1  0.05851637  0.56664962  0.32157625  1
  Zn  Zn150  1  0.10348071  0.54002837  0.83863879  1
  Zn  Zn151  1  0.56529612  0.05951617  0.31382219  1
  Zn  Zn152  1  0.55737332  0.06578066  0.81159531  1
  Zn  Zn153  1  0.55952472  0.55878372  0.31357189  1
  Zn  Zn154  1  0.56673548  0.56685282  0.80713969  1
  Zn  Zn155  1  0.43579745  0.19115482  0.43447431  1
  Zn  Zn156  1  0.45003189  0.21796697  0.96177090  1
  Zn  Zn157  1  0.43580362  0.68928796  0.43990910  1
  Zn  Zn158  1  0.43935546  0.68794218  0.93646946  1
  Zn  Zn159  1  0.93516415  0.19024079  0.43506965  1
  Zn  Zn160  1  0.93755556  0.18564934  0.94134342  1
  Zn  Zn161  1  0.93273628  0.69756095  0.44223493  1
  Zn  Zn162  1  0.94520771  0.69198799  0.94013624  1
  Zn  Zn163  1  0.06235659  0.30881116  0.05404501  1
  Zn  Zn164  1  0.06198016  0.31162013  0.55640265  1
  Zn  Zn165  1  0.06505835  0.80493055  0.06892263  1
  Zn  Zn166  1  0.06235237  0.81276961  0.56923176  1
  Zn  Zn167  1  0.55511995  0.31774477  0.06032940  1
  Zn  Zn168  1  0.55890349  0.31574762  0.56505995  1
  Zn  Zn169  1  0.56399891  0.80909730  0.06352600  1
  Zn  Zn170  1  0.56515507  0.81271390  0.56136285  1
  O  O171  1  0.11680744  0.11662512  0.11648910  1
  O  O172  1  0.11795366  0.12614816  0.61285780  1
  O  O173  1  0.11631000  0.63119418  0.11451854  1
  O  O174  1  0.11851816  0.61784324  0.61956027  1
  O  O175  1  0.62205095  0.11420649  0.12360774  1
  O  O176  1  0.61201969  0.12006548  0.61847133  1
  O  O177  1  0.62225218  0.61815130  0.11947959  1
  O  O178  1  0.61697675  0.61954153  0.62363920  1
  O  O179  1  0.38468834  0.37236001  0.38233314  1
  O  O180  1  0.38415425  0.40180000  0.87528153  1
  O  O181  1  0.38221221  0.88413186  0.36760434  1
  O  O182  1  0.38318447  0.88239894  0.88128996  1
  O  O183  1  0.87634991  0.38213352  0.37987030  1
  O  O184  1  0.89655533  0.37189341  0.86554278  1
  O  O185  1  0.88948737  0.87998024  0.37285640  1
  O  O186  1  0.87024637  0.87502042  0.89105332  1
  O  O187  1  0.25455525  0.00417597  0.36933991  1
  O  O188  1  0.26439392  -0.00297802  0.87006630  1
  O  O189  1  0.24856852  0.51572471  0.38202414  1
  O  O190  1  0.21001397  0.49779751  0.85827408  1
  O  O191  1  0.74918248  0.01039236  0.37572506  1
  O  O192  1  0.74978722  0.00962592  0.86656760  1
  O  O193  1  0.75134181  0.50828727  0.36742427  1
  O  O194  1  0.74711715  0.50235365  0.86818264  1
  O  O195  1  0.25490706  0.50563177  0.13069224  1
  O  O196  1  0.24006945  0.49451545  0.62785084  1
  O  O197  1  0.24060801  0.99817629  0.13164877  1
  O  O198  1  0.25405634  0.99873576  0.63315301  1
  O  O199  1  0.73913248  0.49777598  0.14057862  1
  O  O200  1  0.74629297  0.49357106  0.62855854  1
  O  O201  1  0.73921345  0.99100927  0.12500696  1
  O  O202  1  0.72942209  1.01157875  0.63022354  1
  O  O203  1  -0.00797544  0.37014731  0.26554640  1
  O  O204  1  0.00141246  0.36099528  0.74613113  1
  O  O205  1  0.00233281  0.87144102  0.25518031  1
  O  O206  1  0.00569861  0.85095136  0.73900240  1
  O  O207  1  0.50235943  0.37713826  0.26185929  1
  O  O208  1  0.50474299  0.36058217  0.74133342  1
  O  O209  1  0.50600657  0.87001651  0.25835739  1
  O  O210  1  0.50603799  0.86932250  0.75784857  1
  O  O211  1  0.49332247  0.11579412  0.24406930  1
  O  O212  1  0.50278464  0.13652489  0.73837315  1
  O  O213  1  0.49353740  0.63659970  0.25456230  1
  O  O214  1  0.49564202  0.62939184  0.73991110  1
  O  O215  1  1.00049491  0.13128997  0.23470065  1
  O  O216  1  0.99748342  0.13939797  0.73842446  1
  O  O217  1  0.99144855  0.63516174  0.25080887  1
  O  O218  1  0.98362209  0.62955273  0.74153118  1
  O  O219  1  0.36417077  0.22751307  0.03861542  1
  O  O220  1  0.36088651  0.25686569  0.49808612  1
  O  O221  1  0.37198577  0.75263441  0.00567361  1
  O  O222  1  0.36479859  0.74645434  0.51034176  1
  O  O223  1  0.86504286  0.24414454  0.01036588  1
  O  O224  1  0.86200535  0.25580591  0.50413989  1
  O  O225  1  0.86156637  0.75478869  -0.00505381  1
  O  O226  1  0.87082299  0.76186659  0.50914461  1
  O  O227  1  0.13389919  0.24165202  0.49031276  1
  O  O228  1  0.12951824  0.23600379  0.99451640  1
  O  O229  1  0.13341125  0.74039672  0.50265004  1
  O  O230  1  0.13538274  0.74719383  0.99780406  1
  O  O231  1  0.63471750  0.24757942  0.50380953  1
  O  O232  1  0.63155379  0.24106257  0.99264044  1
  O  O233  1  0.61962457  0.74720203  0.49346334  1
  O  O234  1  0.63487215  0.74170160  0.99490974  1
  O  O235  1  0.50493028  0.23331034  0.12587680  1
  O  O236  1  0.49453275  0.24347375  0.63150802  1
  O  O237  1  0.49165599  0.75187872  0.13692290  1
  O  O238  1  0.49402728  0.74325266  0.63067235  1
  O  O239  1  0.98597357  0.24417650  0.12147041  1
  O  O240  1  0.99537584  0.24273461  0.62508595  1
  O  O241  1  1.00068131  0.74090987  0.14129836  1
  O  O242  1  1.00954042  0.73324847  0.63853807  1
  O  O243  1  0.00739016  0.25678391  0.37276828  1
  O  O244  1  -0.00541958  0.24811941  0.86066364  1
  O  O245  1  0.00224912  0.75863259  0.36830343  1
  O  O246  1  0.00795532  0.74574806  0.86130923  1
  O  O247  1  0.50296676  0.26768556  0.38160772  1
  O  O248  1  0.51296901  0.23356859  0.86415370  1
  O  O249  1  0.49601337  0.75896049  0.36563678  1
  O  O250  1  0.51135573  0.75594060  0.87124431  1
  O  O251  1  0.24374050  0.13331786  0.49108395  1
  O  O252  1  0.23239410  0.12479464  1.00098497  1
  O  O253  1  0.24466377  0.63419976  0.49240295  1
  O  O254  1  0.24018025  0.63203827  1.00640640  1
  O  O255  1  0.74383313  0.13238406  0.49242963  1
  O  O256  1  0.74589281  0.12661394  0.99221169  1
  O  O257  1  0.74849910  0.62001107  0.48457369  1
  O  O258  1  0.74940702  0.62632791  0.99369834  1
  O  O259  1  0.27836334  0.36922328  -0.00966719  1
  O  O260  1  0.25429232  0.37054110  0.50143692  1
  O  O261  1  0.25926633  0.86680258  0.00110958  1
  O  O262  1  0.24430582  0.86282075  0.49872480  1
  O  O263  1  0.74013023  0.36293580  -0.00270398  1
  O  O264  1  0.75457127  0.36768514  0.50355076  1
  O  O265  1  0.75406117  0.86566421  0.00809026  1
  O  O266  1  0.75825251  0.88449698  0.51054290  1
  O  O267  1  0.11863677  0.50550970  0.25129757  1
  O  O268  1  0.11461538  0.49255400  0.73100849  1
  O  O269  1  0.12726009  0.99203830  0.24203989  1
  O  O270  1  0.14559115  1.00378347  0.74933845  1
  O  O271  1  0.62939536  0.49116733  0.24599521  1
  O  O272  1  0.64091843  0.50526081  0.73213307  1
  O  O273  1  0.62642225  0.98716448  0.24251718  1
  O  O274  1  0.62887089  0.99874868  0.74406248  1
  O  O275  1  0.36886805  0.00383070  0.25995628  1
  O  O276  1  0.36796950  0.00162209  0.75960828  1
  O  O277  1  0.38227119  0.51863701  0.25457974  1
  O  O278  1  0.37478575  0.51569407  0.74304160  1
  O  O279  1  0.86935665  0.00579001  0.25371833  1
  O  O280  1  0.84935257  0.01465192  0.72923144  1
  O  O281  1  0.86224216  0.51186764  0.26494849  1
  O  O282  1  0.86421660  0.50641708  0.74550224  1
  O  O283  1  0.11251961  0.36691308  0.38551831  1
  O  O284  1  0.10224567  0.36877616  0.87788934  1
  O  O285  1  0.11274730  0.87729253  0.36613328  1
  O  O286  1  0.12819504  0.85923518  0.87231795  1
  O  O287  1  0.61575141  0.37178105  0.36634137  1
  O  O288  1  0.64630828  0.34651783  0.86768955  1
  O  O289  1  0.61675412  0.87781693  0.36671176  1
  O  O290  1  0.62024403  0.86901874  0.87022803  1
  O  O291  1  0.39123590  0.10082953  0.13575653  1
  O  O292  1  0.38554506  0.13021350  0.61774381  1
  O  O293  1  0.37750886  0.63501511  0.13483742  1
  O  O294  1  0.38261184  0.63457772  0.63178402  1
  O  O295  1  0.88180419  0.12738216  0.12324782  1
  O  O296  1  0.88180479  0.13329721  0.62730250  1
  O  O297  1  0.88072670  0.62960713  0.14350085  1
  O  O298  1  0.88118634  0.62336038  0.62961775  1
  O  O299  1  0.24815470  0.25726339  0.12180891  1
  O  O300  1  0.24896251  0.25849391  0.61405568  1
  O  O301  1  0.26456547  0.75551735  0.11310218  1
  O  O302  1  0.25805175  0.74971039  0.61684482  1
  O  O303  1  0.75748557  0.25036355  0.11349835  1
  O  O304  1  0.75252592  0.25539666  0.61924394  1
  O  O305  1  0.74286487  0.75751012  0.11483692  1
  O  O306  1  0.75451009  0.76718887  0.63062701  1
  O  O307  1  0.24428934  0.24843953  0.37797761  1
  O  O308  1  0.26853525  0.24326139  0.86996731  1
  O  O309  1  0.24603072  0.74457248  0.38434590  1
  O  O310  1  0.24714049  0.75028418  0.88685611  1
  O  O311  1  0.74555931  0.24496682  0.38276072  1
  O  O312  1  0.75147082  0.23570034  0.87984111  1
  O  O313  1  0.74733004  0.73541973  0.36870997  1
  O  O314  1  0.73783422  0.75571835  0.88162043  1
  O  O315  1  0.01020246  0.12736019  0.01030042  1
  O  O316  1  0.00694355  0.12426519  0.50358166  1
  O  O317  1  0.00566072  0.62572934  0.01271831  1
  O  O318  1  0.00797735  0.63464580  0.50663095  1
  O  O319  1  0.50913642  0.11968681  0.00922678  1
  O  O320  1  0.50283464  0.12106658  0.50401242  1
  O  O321  1  0.51206632  0.63246578  0.00628898  1
  O  O322  1  0.49811676  0.62165922  0.51142293  1
  O  O323  1  0.48868185  0.37805083  0.49581709  1
  O  O324  1  0.47722492  0.33793458  0.97873271  1
  O  O325  1  0.50048326  0.88258167  0.48711279  1
  O  O326  1  0.49721674  0.88095526  0.99592119  1
  O  O327  1  0.98221221  0.36651785  0.49114361  1
  O  O328  1  0.99260095  0.38115937  0.99310197  1
  O  O329  1  1.01100059  0.88749097  0.49317873  1
  O  O330  1  0.98237992  0.86005753  1.00794949  1
  O  O331  1  0.50534686  0.48245610  0.38068615  1
  O  O332  1  0.56820770  0.46169167  0.84865796  1
  O  O333  1  0.49109337  0.99336729  0.37812648  1
  O  O334  1  0.49118341  0.99774356  0.87985548  1
  O  O335  1  0.98681902  0.49300724  0.37741203  1
  O  O336  1  1.00228792  0.49270375  0.88101706  1
  O  O337  1  0.99986052  0.99555925  0.38423907  1
  O  O338  1  0.97705056  0.99052248  0.80802181  1
  O  O339  1  0.00871559  0.00775443  0.12689638  1
  O  O340  1  0.00374907  0.01571570  0.61971458  1
  O  O341  1  -0.01068163  0.51630345  0.12480436  1
  O  O342  1  0.00276916  0.51281365  0.62083820  1
  O  O343  1  0.51374251  -0.00019339  0.12029489  1
  O  O344  1  0.50174771  0.00828183  0.62170899  1
  O  O345  1  0.50911616  0.50178086  0.13731105  1
  O  O346  1  0.50838740  0.50777502  0.62407101  1
  O  O347  1  0.31156857  0.36229872  0.21331135  1
  O  O348  1  0.24389569  0.37575382  0.73628181  1
  O  O349  1  0.23967781  0.88077691  0.24911754  1
  O  O350  1  0.25160112  0.88364658  0.74834078  1
  O  O351  1  0.74021073  0.38388368  0.25041989  1
  O  O352  1  0.74117362  0.38469505  0.74704948  1
  O  O353  1  0.74211450  0.87240656  0.24413519  1
  O  O354  1  0.74062623  0.88842343  0.75705893  1
  O  O355  1  0.25621591  0.11709355  0.25250416  1
  O  O356  1  0.25639206  0.12506568  0.75120942  1
  O  O357  1  0.25603937  0.63158950  0.26828451  1
  O  O358  1  0.26609349  0.62670067  0.74634616  1
  O  O359  1  0.74411346  0.12464512  0.26388009  1
  O  O360  1  0.75103484  0.12321151  0.75913559  1
  O  O361  1  0.75422589  0.62023325  0.25717468  1
  O  O362  1  0.76225460  0.61944483  0.74373964  1
  O  O363  1  0.36976535  0.11988846  0.36532379  1
  O  O364  1  0.37883727  0.12072875  0.87731773  1
  O  O365  1  0.36142541  0.63145003  0.37152175  1
  O  O366  1  0.38478210  0.62655938  0.85803191  1
  O  O367  1  0.86386222  0.12658613  0.37191580  1
  O  O368  1  0.87072623  0.11768473  0.87055345  1
  O  O369  1  0.86525918  0.62131406  0.37290707  1
  O  O370  1  0.86974540  0.62520664  0.87005963  1
  O  O371  1  0.11611760  0.36951957  0.13021619  1
  O  O372  1  0.13344336  0.38297224  0.61213803  1
  O  O373  1  0.12422812  0.88281409  0.13124161  1
  O  O374  1  0.13060542  0.88030078  0.63129177  1
  O  O375  1  0.62254460  0.38157384  0.12948535  1
  O  O376  1  0.62667132  0.38464880  0.63507097  1
  O  O377  1  0.63131218  0.87886974  0.13131439  1
  O  O378  1  0.61149930  0.88877883  0.63465189  1
  O  O379  1  0.12654696  0.24712222  0.26217682  1
  O  O380  1  0.11098922  0.25192028  0.74595100  1
  O  O381  1  0.11457111  0.76794915  0.25304045  1
  O  O382  1  0.11757288  0.74145787  0.76129303  1
  O  O383  1  0.62938524  0.26451487  0.24702270  1
  O  O384  1  0.61673791  0.25434914  0.75538510  1
  O  O385  1  0.61561214  0.76005695  0.25279314  1
  O  O386  1  0.62087608  0.75176092  0.75688156  1
  O  O387  1  0.37330647  0.22908085  0.23308384  1
  O  O388  1  0.37758476  0.24595434  0.75608859  1
  O  O389  1  0.37915977  0.74661272  0.24329797  1
  O  O390  1  0.38226746  0.74135681  0.74526720  1
  O  O391  1  0.87155998  0.24537613  0.23267996  1
  O  O392  1  0.88094435  0.24402156  0.74227533  1
  O  O393  1  0.88196376  0.74286023  0.25915374  1
  O  O394  1  0.88661890  0.74277281  0.75735691  1
  O  O395  1  0.37227513  0.49017347  0.50664013  1
  O  O396  1  0.39391795  0.49486357  1.00079304  1
  O  O397  1  0.37762357  1.00542860  0.48513535  1
  O  O398  1  0.37983546  0.99611127  0.99338510  1
  O  O399  1  0.86470366  0.48965406  0.48734674  1
  O  O400  1  0.86188825  0.51472190  0.99111927  1
  O  O401  1  0.88958084  1.01005536  0.49856638  1
  O  O402  1  0.87467644  0.98231833  0.99737178  1
  O  O403  1  0.12877768  0.00137628  0.00933152  1
  O  O404  1  0.11961988  0.01474043  0.49905676  1
  O  O405  1  0.12406406  0.51311177  0.00325489  1
  O  O406  1  0.12792213  0.51638978  0.50949961  1
  O  O407  1  0.62237333  0.00320153  0.00600295  1
  O  O408  1  0.61466937  0.00513854  0.50754301  1
  O  O409  1  0.62916067  0.51118152  0.01362545  1
  O  O410  1  0.62596933  0.50154052  0.51080656  1
  O  O411  1  0.40271344  0.36458333  0.10028760  1
  O  O412  1  0.36198486  0.37272383  0.61712190  1
  O  O413  1  0.37595294  0.86967142  0.11912058  1
  O  O414  1  0.37611643  0.86065464  0.63031907  1
  O  O415  1  0.86863211  0.36049842  0.12318126  1
  O  O416  1  0.86823687  0.37180779  0.61720554  1
  O  O417  1  0.86194382  0.87825969  0.11806517  1
  O  O418  1  0.87841561  0.88099232  0.62745958  1
  O  O419  1  0.12959473  0.13189834  0.37855397  1
  O  O420  1  0.11608022  0.11455498  0.89022030  1
  O  O421  1  0.13404128  0.62952591  0.38477434  1
  O  O422  1  0.11735648  0.63881222  0.90010370  1
  O  O423  1  0.62884881  0.12812349  0.38272192  1
  O  O424  1  0.63429622  0.12796670  0.87829780  1
  O  O425  1  0.63785433  0.62367726  0.37359783  1
  O  O426  1  0.62143171  0.63410421  0.88470861  1
