# generated using pymatgen
data_V85Zn86O256
_symmetry_space_group_name_H-M   'P 1'
_cell_length_a   16.93555118
_cell_length_b   16.93256203
_cell_length_c   16.93816865
_cell_angle_alpha   90.06423069
_cell_angle_beta   90.08982589
_cell_angle_gamma   90.01214980
_symmetry_Int_Tables_number   1
_chemical_formula_structural   V85Zn86O256
_chemical_formula_sum   'V85 Zn86 O256'
_cell_volume   4857.21857425
_cell_formula_units_Z   1
loop_
 _symmetry_equiv_pos_site_id
 _symmetry_equiv_pos_as_xyz
  1  'x, y, z'
loop_
 _atom_site_type_symbol
 _atom_site_label
 _atom_site_symmetry_multiplicity
 _atom_site_fract_x
 _atom_site_fract_y
 _atom_site_fract_z
 _atom_site_occupancy
  V  V0  1  0.49333065  0.62585050  0.63410324  1
  V  V1  1  0.74987429  0.11688456  0.37347118  1
  V  V2  1  0.00158845  0.75438582  0.25113752  1
  V  V3  1  0.88312253  0.00102227  0.37983025  1
  V  V4  1  0.61802685  0.25104136  0.87058241  1
  V  V5  1  -0.01484680  0.37815904  0.87801622  1
  V  V6  1  -0.00141163  0.62592380  0.12519051  1
  V  V7  1  0.49211061  0.13840568  0.12766779  1
  V  V8  1  0.12050774  0.12053067  -0.00477282  1
  V  V9  1  0.62098089  0.36668158  0.24707099  1
  V  V10  1  0.87460343  0.74966814  0.62702951  1
  V  V11  1  0.12578299  0.74836315  0.87954730  1
  V  V12  1  0.12474200  0.49944746  0.62781205  1
  V  V13  1  0.24922849  0.49903642  0.25071995  1
  V  V14  1  0.49500382  0.74787439  0.76408780  1
  V  V15  1  0.25549863  0.37597743  0.61792067  1
  V  V16  1  0.12431319  0.25227716  0.87242716  1
  V  V17  1  0.62376518  0.12483990  0.49763964  1
  V  V18  1  0.25313372  0.37053600  0.12538909  1
  V  V19  1  0.38213552  0.63002966  0.25059751  1
  V  V20  1  0.37850432  0.50628738  0.87720809  1
  V  V21  1  0.12479347  0.36870491  0.25244127  1
  V  V22  1  0.49869904  0.37817500  0.87763224  1
  V  V23  1  0.38021920  0.25395931  0.62293102  1
  V  V24  1  0.25638550  0.50399541  0.75276037  1
  V  V25  1  0.87471457  0.88087711  0.00340635  1
  V  V26  1  0.86428804  0.75589189  0.12738466  1
  V  V27  1  -0.00338563  0.13037506  0.11815394  1
  V  V28  1  -0.00481030  0.25175493  0.74133143  1
  V  V29  1  0.00270667  0.36949584  0.37583407  1
  V  V30  1  0.75230967  0.49790239  0.75949900  1
  V  V31  1  0.49671212  0.36321410  0.37701372  1
  V  V32  1  0.25077378  0.87572074  0.11949361  1
  V  V33  1  0.74012317  0.75515587  -0.00455559  1
  V  V34  1  0.11772303  -0.00676357  0.61641778  1
  V  V35  1  -0.00297085  0.62411022  0.62663137  1
  V  V36  1  0.37359623  0.49331242  0.37991933  1
  V  V37  1  0.25067813  -0.00473083  0.74082434  1
  V  V38  1  0.37655981  -0.00721318  0.37088907  1
  V  V39  1  0.76017889  0.36974351  0.12411987  1
  V  V40  1  0.24698602  0.13284181  0.37642869  1
  V  V41  1  0.25464743  0.25006037  0.00178983  1
  V  V42  1  0.37618592  0.13976164  0.24713418  1
  V  V43  1  0.61766179  0.37253944  0.74672737  1
  V  V44  1  0.12648201  0.75455323  0.38457155  1
  V  V45  1  -0.01759198  0.49693399  -0.00121092  1
  V  V46  1  0.61746958  0.49836136  0.12329085  1
  V  V47  1  0.62597467  0.24458142  0.36691054  1
  V  V48  1  0.38929977  0.87287414  -0.00105079  1
  V  V49  1  0.87410479  0.12044531  0.24652166  1
  V  V50  1  0.65128427  0.88325536  0.24563575  1
  V  V51  1  0.87308757  0.62133310  0.76056290  1
  V  V52  1  -0.00063973  0.50154840  0.49943076  1
  V  V53  1  0.87628372  0.36592386  0.50270044  1
  V  V54  1  0.74914428  0.12759902  0.87112007  1
  V  V55  1  0.75043410  0.62218191  0.38201948  1
  V  V56  1  0.25167519  0.12545788  0.87023143  1
  V  V57  1  0.74904013  0.49775454  0.25101876  1
  V  V58  1  0.75352452  0.36896356  0.62532322  1
  V  V59  1  0.24655154  0.62840523  0.38015958  1
  V  V60  1  0.00097802  0.88238518  0.87981721  1
  V  V61  1  0.62814891  0.50551012  0.62212237  1
  V  V62  1  0.38088717  -0.00419915  0.87459031  1
  V  V63  1  0.62100554  0.86711917  0.76654307  1
  V  V64  1  -0.00447298  0.25106746  0.24548885  1
  V  V65  1  0.87276322  0.62680131  0.25259149  1
  V  V66  1  0.11763893  -0.00000013  0.12112960  1
  V  V67  1  0.12542986  0.37559774  0.75211268  1
  V  V68  1  0.74864942  0.75112721  0.49772592  1
  V  V69  1  0.58310120  0.67737855  0.45352638  1
  V  V70  1  -0.00337959  0.75252173  0.75382782  1
  V  V71  1  0.11808535  0.13232417  0.49860394  1
  V  V72  1  0.75050798  -0.00387835  0.75143373  1
  V  V73  1  0.62025707  0.12779650  0.00079826  1
  V  V74  1  0.25110227  0.00515588  0.24547032  1
  V  V75  1  0.76151224  0.25435084  0.00006352  1
  V  V76  1  0.49941536  0.12771130  0.63029612  1
  V  V77  1  0.62099704  0.62145341  -0.00423658  1
  V  V78  1  0.12354665  0.49906244  0.12177336  1
  V  V79  1  0.49995198  -0.00904078  0.49199016  1
  V  V80  1  0.38011726  0.37728263  0.00541716  1
  V  V81  1  0.87337335  0.12794087  0.74074166  1
  V  V82  1  0.62195809  -0.00578619  0.62462790  1
  V  V83  1  0.88543939  0.87848366  0.50289032  1
  V  V84  1  0.50251696  0.49272076  0.50051854  1
  Zn  Zn85  1  0.12542271  0.87569872  0.24934476  1
  Zn  Zn86  1  0.25107465  0.74553849  0.00329582  1
  Zn  Zn87  1  0.75104565  0.62361217  0.87851890  1
  Zn  Zn88  1  0.74514365  0.87118338  0.62419945  1
  Zn  Zn89  1  0.35785260  0.75547398  0.62823913  1
  Zn  Zn90  1  0.37978152  0.12985612  0.74968035  1
  Zn  Zn91  1  0.63171225  0.00185487  0.12690291  1
  Zn  Zn92  1  0.00416326  0.88005378  0.37981625  1
  Zn  Zn93  1  0.36246334  0.86781579  0.50056214  1
  Zn  Zn94  1  0.50382601  0.62757670  0.12891282  1
  Zn  Zn95  1  0.37848421  0.75639763  0.13196847  1
  Zn  Zn96  1  0.50270405  0.00113857  -0.00018441  1
  Zn  Zn97  1  0.13179433  0.86792280  0.74254476  1
  Zn  Zn98  1  0.25559128  0.62721533  0.87828203  1
  Zn  Zn99  1  0.12593602  0.62410859  0.00067072  1
  Zn  Zn100  1  0.25201822  0.25367302  0.49758659  1
  Zn  Zn101  1  0.75322466  0.24703340  0.50281412  1
  Zn  Zn102  1  0.88062295  0.00256495  0.87580534  1
  Zn  Zn103  1  -0.00577648  0.12479484  0.61871939  1
  Zn  Zn104  1  0.53197117  0.80591316  0.31752844  1
  Zn  Zn105  1  0.12759020  0.63041809  0.50502203  1
  Zn  Zn106  1  0.87494110  0.49681109  0.37490289  1
  Zn  Zn107  1  0.18478748  0.18863371  0.18503979  1
  Zn  Zn108  1  0.18760653  0.18762268  0.68307047  1
  Zn  Zn109  1  0.18911751  0.68788321  0.19075448  1
  Zn  Zn110  1  0.18335106  0.68218380  0.69514317  1
  Zn  Zn111  1  0.70456113  0.16031727  0.16987593  1
  Zn  Zn112  1  0.68472327  0.18709390  0.68609388  1
  Zn  Zn113  1  0.68109975  0.69187470  0.19267367  1
  Zn  Zn114  1  0.68557949  0.68700050  0.68821115  1
  Zn  Zn115  1  0.31113534  0.31257132  0.31441140  1
  Zn  Zn116  1  0.31631728  0.31372317  0.80684883  1
  Zn  Zn117  1  0.30714902  0.81455089  0.31061897  1
  Zn  Zn118  1  0.31377539  0.81164469  0.81279111  1
  Zn  Zn119  1  0.81146812  0.30658665  0.31332152  1
  Zn  Zn120  1  0.80947874  0.31080495  0.81046058  1
  Zn  Zn121  1  0.81017305  0.81290985  0.31814711  1
  Zn  Zn122  1  0.81055046  0.81385977  0.81738129  1
  Zn  Zn123  1  0.18382994  0.43953943  0.43790454  1
  Zn  Zn124  1  0.18676906  0.43787014  0.93799381  1
  Zn  Zn125  1  0.18438662  0.94717498  0.43247740  1
  Zn  Zn126  1  0.19002591  0.93701627  0.93407073  1
  Zn  Zn127  1  0.68637562  0.43520422  0.43780623  1
  Zn  Zn128  1  0.68777199  0.43616453  0.93959311  1
  Zn  Zn129  1  0.68688320  0.93208841  0.43285692  1
  Zn  Zn130  1  0.68990241  0.93936982  0.94139042  1
  Zn  Zn131  1  0.31369593  0.06183591  0.05990289  1
  Zn  Zn132  1  0.31291508  0.05978465  0.55803749  1
  Zn  Zn133  1  0.31126451  0.56058919  0.06213046  1
  Zn  Zn134  1  0.31482717  0.56198227  0.56211053  1
  Zn  Zn135  1  0.81335881  0.06418260  0.05775231  1
  Zn  Zn136  1  0.80877537  0.05827402  0.56235756  1
  Zn  Zn137  1  0.80499527  0.56577053  0.06766467  1
  Zn  Zn138  1  0.81389485  0.55893484  0.56484169  1
  Zn  Zn139  1  0.43790436  0.43459857  0.19165857  1
  Zn  Zn140  1  0.43697669  0.43705066  0.68912007  1
  Zn  Zn141  1  0.44352739  0.94499851  0.18204462  1
  Zn  Zn142  1  0.43627216  0.93707242  0.68921782  1
  Zn  Zn143  1  0.93625272  0.43956888  0.18760891  1
  Zn  Zn144  1  0.93516401  0.43652374  0.68842392  1
  Zn  Zn145  1  0.93471221  0.93961062  0.18874685  1
  Zn  Zn146  1  0.93840005  0.93585019  0.68661680  1
  Zn  Zn147  1  0.06330821  0.06476646  0.31142138  1
  Zn  Zn148  1  0.06429176  0.06266576  0.80461809  1
  Zn  Zn149  1  0.06208990  0.56259961  0.31219826  1
  Zn  Zn150  1  0.06052845  0.56173481  0.81614466  1
  Zn  Zn151  1  0.55821331  0.04681105  0.30013211  1
  Zn  Zn152  1  0.56368459  0.06008209  0.81213814  1
  Zn  Zn153  1  0.56118110  0.55230173  0.31113649  1
  Zn  Zn154  1  0.56368822  0.56015127  0.81432889  1
  Zn  Zn155  1  0.43428712  0.18303769  0.44085753  1
  Zn  Zn156  1  0.43640312  0.19072434  0.93507066  1
  Zn  Zn157  1  0.41418080  0.68554675  0.44758177  1
  Zn  Zn158  1  0.44037276  0.68916705  0.94757176  1
  Zn  Zn159  1  0.93976455  0.19011020  0.43323119  1
  Zn  Zn160  1  0.93799572  0.18745215  0.92826947  1
  Zn  Zn161  1  0.93761088  0.69023245  0.43823833  1
  Zn  Zn162  1  0.93709598  0.69018155  0.94264719  1
  Zn  Zn163  1  0.06210218  0.31249076  0.05896414  1
  Zn  Zn164  1  0.06624157  0.31193232  0.56321619  1
  Zn  Zn165  1  0.05963726  0.81318226  0.06249084  1
  Zn  Zn166  1  0.20106089  0.81517101  0.55999290  1
  Zn  Zn167  1  0.56322483  0.30806520  0.06204528  1
  Zn  Zn168  1  0.56388769  0.31046489  0.56006940  1
  Zn  Zn169  1  0.56201520  0.81398242  0.09060892  1
  Zn  Zn170  1  0.52762058  0.82872289  0.58035654  1
  O  O171  1  0.11682466  0.12056685  0.11510228  1
  O  O172  1  0.12324328  0.11891669  0.61322823  1
  O  O173  1  0.11795768  0.61539364  0.12853323  1
  O  O174  1  0.11520652  0.61728850  0.62504353  1
  O  O175  1  0.60628276  0.14020260  0.11227658  1
  O  O176  1  0.62098508  0.11617529  0.61744421  1
  O  O177  1  0.62869240  0.61400275  0.12076604  1
  O  O178  1  0.61870004  0.61002957  0.62959932  1
  O  O179  1  0.38434883  0.38030324  0.37094578  1
  O  O180  1  0.38294141  0.37886460  0.88057302  1
  O  O181  1  0.36987919  0.88914173  0.37226001  1
  O  O182  1  0.36893185  0.88465932  0.88568260  1
  O  O183  1  0.88257658  0.37594389  0.38236081  1
  O  O184  1  0.88602465  0.37391867  0.86862083  1
  O  O185  1  0.87503247  0.88473261  0.38400122  1
  O  O186  1  0.88285857  0.87631450  0.88333861  1
  O  O187  1  0.25519610  0.01241659  0.36236146  1
  O  O188  1  0.25602210  0.00870743  0.86531305  1
  O  O189  1  0.25616129  0.50151828  0.36998300  1
  O  O190  1  0.25964357  0.49678845  0.86917692  1
  O  O191  1  0.76079681  0.01282560  0.38127077  1
  O  O192  1  0.74849038  0.00600947  0.86268040  1
  O  O193  1  0.75159642  0.50474834  0.37061322  1
  O  O194  1  0.74838856  0.49784197  0.86276985  1
  O  O195  1  0.24091158  0.49228200  0.13156985  1
  O  O196  1  0.24803089  0.49540858  0.63231967  1
  O  O197  1  0.23968762  0.99903917  0.12827401  1
  O  O198  1  0.24258522  1.00996408  0.63749479  1
  O  O199  1  0.74147205  0.48938316  0.13265657  1
  O  O200  1  0.74272687  0.49087231  0.63082722  1
  O  O201  1  0.73436725  1.05416151  0.13122941  1
  O  O202  1  0.73933538  0.99748795  0.63619424  1
  O  O203  1  0.00394679  0.37058423  0.25509681  1
  O  O204  1  0.00458995  0.37043762  0.75551226  1
  O  O205  1  -0.00064399  0.86345380  0.25168891  1
  O  O206  1  -0.00242398  0.86230168  0.75653906  1
  O  O207  1  0.51306064  0.37623419  0.26021494  1
  O  O208  1  0.51223772  0.37771516  0.75576456  1
  O  O209  1  0.51170034  0.89090159  0.25047874  1
  O  O210  1  0.51219619  0.86166825  0.75075867  1
  O  O211  1  0.49115240  0.12456361  0.23667174  1
  O  O212  1  0.50289439  0.11985171  0.73409745  1
  O  O213  1  0.48495243  0.61709197  0.25439352  1
  O  O214  1  0.50625723  0.63218976  0.74301840  1
  O  O215  1  0.99796702  0.13402815  0.24220615  1
  O  O216  1  0.99088564  0.13428202  0.74924494  1
  O  O217  1  0.99336549  0.63428009  0.24684212  1
  O  O218  1  0.99168549  0.63247147  0.74838196  1
  O  O219  1  0.36145026  0.26059520  -0.00863991  1
  O  O220  1  0.36931135  0.24376590  0.51484332  1
  O  O221  1  0.36986319  0.76101487  0.00071078  1
  O  O222  1  0.35753499  0.75160983  0.51134365  1
  O  O223  1  0.85994031  0.24717469  -0.00933314  1
  O  O224  1  0.87573749  0.26157015  0.49875176  1
  O  O225  1  0.86565954  0.75775986  0.00865200  1
  O  O226  1  0.86803919  0.75456494  0.50912531  1
  O  O227  1  0.13083163  0.23666419  0.50407792  1
  O  O228  1  0.13416759  0.24141766  0.99234411  1
  O  O229  1  0.12707062  0.74984733  0.48805208  1
  O  O230  1  0.12642402  0.74886213  0.99349999  1
  O  O231  1  0.62618874  0.24026559  0.48936520  1
  O  O232  1  0.63039404  0.24340253  0.98895089  1
  O  O233  1  0.63367073  0.74809393  0.51093041  1
  O  O234  1  0.63770192  0.74009813  1.01179327  1
  O  O235  1  0.49064021  0.23883116  0.11872134  1
  O  O236  1  0.49464265  0.24093567  0.61909067  1
  O  O237  1  0.48954764  0.74001839  0.12528237  1
  O  O238  1  0.51049284  0.72955322  0.63557994  1
  O  O239  1  1.00453509  0.24256078  0.13150603  1
  O  O240  1  1.00264141  0.24998906  0.63793869  1
  O  O241  1  0.99221778  0.74479107  0.13284254  1
  O  O242  1  0.98414917  0.74268339  0.63698351  1
  O  O243  1  0.00141502  0.26282905  0.36600321  1
  O  O244  1  0.00590199  0.25841801  0.86508014  1
  O  O245  1  0.00800820  0.75130024  0.36809677  1
  O  O246  1  0.00312443  0.75780173  0.87098146  1
  O  O247  1  0.50573965  0.25762677  0.38232982  1
  O  O248  1  0.50987277  0.26012749  0.87477699  1
  O  O249  1  0.50893999  0.72932572  0.39557633  1
  O  O250  1  0.50026824  0.74059047  0.86220522  1
  O  O251  1  0.24055048  0.12424857  0.49109954  1
  O  O252  1  0.24522039  0.13104820  0.98894758  1
  O  O253  1  0.24634397  0.61383185  0.48480537  1
  O  O254  1  0.24486190  0.62599255  0.99730910  1
  O  O255  1  0.73887322  0.12553573  0.49612253  1
  O  O256  1  0.74301229  0.13897781  0.98794531  1
  O  O257  1  0.75494098  0.62732771  0.49003977  1
  O  O258  1  0.74364365  0.63576058  0.99950378  1
  O  O259  1  0.25451295  0.36716659  0.00478862  1
  O  O260  1  0.24340046  0.37724255  0.51390065  1
  O  O261  1  0.25358349  0.87682853  0.01121444  1
  O  O262  1  0.25193741  0.89605979  0.50383850  1
  O  O263  1  0.74530795  0.36262590  0.00754253  1
  O  O264  1  0.75961374  0.37563048  0.50707045  1
  O  O265  1  0.75539346  0.86283567  -0.00167398  1
  O  O266  1  0.75561476  0.86470727  0.50306639  1
  O  O267  1  0.12526454  0.49003693  0.24030217  1
  O  O268  1  0.12949519  0.49387741  0.74655120  1
  O  O269  1  0.13513003  1.00281436  0.24057737  1
  O  O270  1  0.13617860  0.99963612  0.73879041  1
  O  O271  1  0.63156512  0.48791416  0.24499229  1
  O  O272  1  0.63267251  0.49201191  0.74357351  1
  O  O273  1  0.63868278  0.99271661  0.24781745  1
  O  O274  1  0.62846045  0.98938761  0.74444644  1
  O  O275  1  0.36381540  0.00980373  0.25222345  1
  O  O276  1  0.36609696  0.00277465  0.75323732  1
  O  O277  1  0.37055302  0.50338524  0.26283249  1
  O  O278  1  0.36734886  0.49290801  0.76231715  1
  O  O279  1  0.87926452  0.01397745  0.25834065  1
  O  O280  1  0.86492841  0.00349259  0.75017518  1
  O  O281  1  0.86779042  0.50850162  0.25189664  1
  O  O282  1  0.86470329  0.50931654  0.74372687  1
  O  O283  1  0.11648207  0.38080171  0.36411686  1
  O  O284  1  0.12014650  0.37014007  0.86823645  1
  O  O285  1  0.12318199  0.86996094  0.36979392  1
  O  O286  1  0.11809064  0.86558467  0.87363437  1
  O  O287  1  0.61951116  0.36495949  0.36892397  1
  O  O288  1  0.61809927  0.37111019  0.86915588  1
  O  O289  1  0.63169620  0.87496697  0.35455521  1
  O  O290  1  0.62555746  0.87864482  0.86441343  1
  O  O291  1  0.38222366  0.12233442  0.13133973  1
  O  O292  1  0.38465345  0.12873986  0.62494308  1
  O  O293  1  0.37261071  0.61704659  0.14433231  1
  O  O294  1  0.39120852  0.62229550  0.62544289  1
  O  O295  1  0.89040175  0.12134853  0.13063492  1
  O  O296  1  0.87446138  0.12014690  0.63572491  1
  O  O297  1  0.87844645  0.63359715  0.13385709  1
  O  O298  1  0.87772206  0.63033405  0.63455677  1
  O  O299  1  0.24363626  0.25602833  0.11225750  1
  O  O300  1  0.25581843  0.26090904  0.62404046  1
  O  O301  1  0.25495857  0.76154901  0.12786750  1
  O  O302  1  0.24439226  0.75838533  0.64516843  1
  O  O303  1  0.74604476  0.25406829  0.10772461  1
  O  O304  1  0.74164940  0.26452502  0.62182875  1
  O  O305  1  0.76141427  0.74390434  0.11790385  1
  O  O306  1  0.75898211  0.74613429  0.61740423  1
  O  O307  1  0.25026045  0.23780955  0.37636271  1
  O  O308  1  0.24502268  0.24354165  0.87714927  1
  O  O309  1  0.23851982  0.73977581  0.36554964  1
  O  O310  1  0.23937237  0.74810547  0.87395741  1
  O  O311  1  0.74216220  0.24092226  0.38216916  1
  O  O312  1  0.73881037  0.25080457  0.88179340  1
  O  O313  1  0.75365885  0.74023207  0.39010220  1
  O  O314  1  0.75131877  0.74661209  0.89206408  1
  O  O315  1  0.00855006  0.13242625  0.00372354  1
  O  O316  1  0.01267920  0.13157096  0.50030920  1
  O  O317  1  0.00098525  0.61697691  0.00822083  1
  O  O318  1  -0.00105209  0.61678441  0.50627179  1
  O  O319  1  0.50450224  0.12825035  0.00352449  1
  O  O320  1  0.51159269  0.11857050  0.50599535  1
  O  O321  1  0.51796387  0.62492273  0.00444986  1
  O  O322  1  0.50586220  0.61717354  0.50889863  1
  O  O323  1  0.50347323  0.38360915  0.49212655  1
  O  O324  1  0.49144125  0.36970990  0.99207416  1
  O  O325  1  0.51142989  0.89083380  0.48373405  1
  O  O326  1  0.49149524  0.87824636  1.00663555  1
  O  O327  1  0.99699465  0.37837792  0.49394073  1
  O  O328  1  1.00146195  0.38233428  0.99031102  1
  O  O329  1  0.98389604  0.86978990  0.49888054  1
  O  O330  1  0.98905674  0.87088333  0.99100894  1
  O  O331  1  0.49475605  0.48856208  0.38352276  1
  O  O332  1  0.49447634  0.48692521  0.87168706  1
  O  O333  1  0.48648936  1.01506564  0.38133606  1
  O  O334  1  0.48476197  1.00686772  0.87579603  1
  O  O335  1  0.99914214  0.49067207  0.38249834  1
  O  O336  1  1.00330446  0.49060226  0.88670863  1
  O  O337  1  0.98813275  1.00033254  0.37194374  1
  O  O338  1  1.00199275  0.98600539  0.86581730  1
  O  O339  1  0.01248368  0.00828338  0.12957550  1
  O  O340  1  0.01505739  0.00526377  0.63313249  1
  O  O341  1  0.00559766  0.50364123  0.12024544  1
  O  O342  1  0.00329436  0.50362085  0.61934647  1
  O  O343  1  0.50719270  0.01939326  0.11698751  1
  O  O344  1  0.50697019  0.00733593  0.61483499  1
  O  O345  1  0.51434290  0.50042472  0.13166238  1
  O  O346  1  0.50489627  0.50652789  0.62019952  1
  O  O347  1  0.24137058  0.37803703  0.24672882  1
  O  O348  1  0.24394320  0.38384041  0.74204451  1
  O  O349  1  0.24943248  0.88703834  0.23703131  1
  O  O350  1  0.24896580  0.89251997  0.75603178  1
  O  O351  1  0.73965878  0.37376039  0.24558343  1
  O  O352  1  0.74288617  0.38061754  0.74314997  1
  O  O353  1  0.75208327  0.87651772  0.24559564  1
  O  O354  1  0.73874757  0.87874941  0.74873548  1
  O  O355  1  0.25259325  0.12242107  0.25298409  1
  O  O356  1  0.24826038  0.11803883  0.75933536  1
  O  O357  1  0.25559492  0.61592984  0.25984987  1
  O  O358  1  0.24564618  0.60767225  0.75804582  1
  O  O359  1  0.76606640  0.14124042  0.26498699  1
  O  O360  1  0.75357507  0.11812198  0.75175947  1
  O  O361  1  0.75155487  0.62212730  0.26329958  1
  O  O362  1  0.75491145  0.61677721  0.75281490  1
  O  O363  1  0.36629755  0.12030165  0.36605970  1
  O  O364  1  0.36637298  0.12077569  0.87107348  1
  O  O365  1  0.36633947  0.61519976  0.36685733  1
  O  O366  1  0.37920548  0.60924311  0.88593429  1
  O  O367  1  0.87084588  0.11981312  0.37141057  1
  O  O368  1  0.86776110  0.12114774  0.86228737  1
  O  O369  1  0.86792246  0.62233024  0.37039884  1
  O  O370  1  0.87440359  0.62933882  0.86401018  1
  O  O371  1  0.12979862  0.38060824  0.13133746  1
  O  O372  1  0.13136812  0.38095585  0.63270685  1
  O  O373  1  0.12962678  0.88466764  0.12482113  1
  O  O374  1  0.12261692  0.89107723  0.62446003  1
  O  O375  1  0.62907249  0.37685896  0.13176496  1
  O  O376  1  0.62831489  0.38259189  0.63105809  1
  O  O377  1  0.63449840  0.88589133  0.13435567  1
  O  O378  1  0.62098997  0.88594206  0.63122949  1
  O  O379  1  0.11520572  0.26180066  0.24540544  1
  O  O380  1  0.11840910  0.25491714  0.75389395  1
  O  O381  1  0.11538661  0.75165850  0.25649414  1
  O  O382  1  0.11080668  0.75086666  0.75948222  1
  O  O383  1  0.62936577  0.25242987  0.26227725  1
  O  O384  1  0.63127329  0.26007212  0.75829586  1
  O  O385  1  0.62413203  0.77255873  0.24425507  1
  O  O386  1  0.62053999  0.76152170  0.74946391  1
  O  O387  1  0.37045454  0.23906903  0.25004773  1
  O  O388  1  0.37135014  0.24600981  0.73254301  1
  O  O389  1  0.37168673  0.73342098  0.25595688  1
  O  O390  1  0.39155320  0.75471492  0.74735379  1
  O  O391  1  0.88884891  0.24043885  0.25451723  1
  O  O392  1  0.88173273  0.24070447  0.75306381  1
  O  O393  1  0.88000197  0.74668876  0.24588357  1
  O  O394  1  0.87504696  0.74417491  0.74590238  1
  O  O395  1  0.38500698  0.50414624  0.48770055  1
  O  O396  1  0.36980305  0.48458987  0.99295779  1
  O  O397  1  0.38514731  1.00155613  0.48879340  1
  O  O398  1  0.37427676  0.99266265  0.99025742  1
  O  O399  1  0.88694453  0.48993411  0.50073004  1
  O  O400  1  0.88336339  0.50311401  1.00918767  1
  O  O401  1  0.87184690  0.99157212  0.49417328  1
  O  O402  1  0.86720510  0.98649840  0.99573216  1
  O  O403  1  0.13043068  0.01293296  0.00452905  1
  O  O404  1  0.12375574  0.01208995  0.51195820  1
  O  O405  1  0.11915402  0.49795113  0.01328853  1
  O  O406  1  0.11183674  0.50067710  0.50748472  1
  O  O407  1  0.62569386  0.01796229  -0.00481780  1
  O  O408  1  0.62334406  0.00563345  0.50596083  1
  O  O409  1  0.63471840  0.51212159  0.00973597  1
  O  O410  1  0.61591565  0.49469754  0.50905531  1
  O  O411  1  0.36731702  0.38065696  0.11784494  1
  O  O412  1  0.36759471  0.36918775  0.62721875  1
  O  O413  1  0.36699505  0.88118243  0.11622247  1
  O  O414  1  0.41439034  0.86242031  0.60962758  1
  O  O415  1  0.85947967  0.37403184  0.13389026  1
  O  O416  1  0.86503524  0.37851429  0.61707219  1
  O  O417  1  0.88145452  0.86741069  0.11687024  1
  O  O418  1  0.87033000  0.86659287  0.62139948  1
  O  O419  1  0.13090934  0.11772649  0.38933965  1
  O  O420  1  0.12974788  0.12885582  0.87908819  1
  O  O421  1  0.13076767  0.63200356  0.37586850  1
  O  O422  1  0.12109246  0.63843736  0.87752829  1
  O  O423  1  0.63092160  0.12659234  0.37865846  1
  O  O424  1  0.62763726  0.13457718  0.87624136  1
  O  O425  1  0.63170596  0.61715075  0.37991568  1
  O  O426  1  0.62905993  0.61787379  0.89168101  1
