# generated using pymatgen
data_V85Zn86O256
_symmetry_space_group_name_H-M   'P 1'
_cell_length_a   16.93614866
_cell_length_b   16.94627833
_cell_length_c   16.94483432
_cell_angle_alpha   89.92298995
_cell_angle_beta   90.05941485
_cell_angle_gamma   89.92396449
_symmetry_Int_Tables_number   1
_chemical_formula_structural   V85Zn86O256
_chemical_formula_sum   'V85 Zn86 O256'
_cell_volume   4863.23560665
_cell_formula_units_Z   1
loop_
 _symmetry_equiv_pos_site_id
 _symmetry_equiv_pos_as_xyz
  1  'x, y, z'
loop_
 _atom_site_type_symbol
 _atom_site_label
 _atom_site_symmetry_multiplicity
 _atom_site_fract_x
 _atom_site_fract_y
 _atom_site_fract_z
 _atom_site_occupancy
  V  V0  1  0.00347224  0.61348984  0.12243507  1
  V  V1  1  0.37838612  0.12481743  0.25006421  1
  V  V2  1  0.37757468  0.37458609  0.49776314  1
  V  V3  1  0.75052440  0.37211096  0.13275981  1
  V  V4  1  0.73692346  0.38077590  0.62162664  1
  V  V5  1  0.62096524  0.37952351  0.76733444  1
  V  V6  1  0.12559720  0.74842281  0.37517008  1
  V  V7  1  -0.00116612  0.75337846  0.76166637  1
  V  V8  1  0.38235397  0.87157814  0.50326552  1
  V  V9  1  0.50561271  0.25190117  0.76571154  1
  V  V10  1  0.50600427  0.37658010  0.36665914  1
  V  V11  1  0.11816605  0.13065278  0.00859644  1
  V  V12  1  0.37675643  0.25966070  0.12761222  1
  V  V13  1  0.49158744  0.62878343  0.62388590  1
  V  V14  1  0.61940098  0.76166055  0.87264369  1
  V  V15  1  0.25569614  0.74818044  0.50390739  1
  V  V16  1  0.87980209  0.12710345  0.74997862  1
  V  V17  1  0.88137739  0.87351904  -0.00255822  1
  V  V18  1  0.87602326  0.37480614  0.00221163  1
  V  V19  1  0.62407792  -0.01029920  0.12266794  1
  V  V20  1  -0.00009641  0.00182478  0.49989859  1
  V  V21  1  -0.00170139  0.74150456  0.24895575  1
  V  V22  1  0.68917165  0.68460139  0.32768846  1
  V  V23  1  0.24953711  0.62404727  0.37433326  1
  V  V24  1  -0.01382138  0.37679813  0.37508941  1
  V  V25  1  0.62779556  0.25272516  0.36946321  1
  V  V26  1  0.61665555  0.62464914  -0.00412419  1
  V  V27  1  0.87544702  0.00242861  0.37199596  1
  V  V28  1  0.74526806  0.12903771  0.87471490  1
  V  V29  1  0.50703443  0.11820482  0.62412808  1
  V  V30  1  0.24978326  0.87149140  0.62930420  1
  V  V31  1  0.00240361  0.87303859  0.37527989  1
  V  V32  1  0.00049928  0.37725330  0.87474319  1
  V  V33  1  0.24789565  0.37620155  0.62297889  1
  V  V34  1  0.24933674  0.50790620  0.75216441  1
  V  V35  1  0.11967434  0.61875394  0.49900022  1
  V  V36  1  0.50703364  0.87371677  0.36328794  1
  V  V37  1  0.14023061  0.61296571  -0.00243737  1
  V  V38  1  0.75257902  0.25278453  0.49924833  1
  V  V39  1  -0.00278114  0.61889886  0.62255062  1
  V  V40  1  0.49459700  0.75165111  0.74555015  1
  V  V41  1  0.87363728  0.49968043  0.87689952  1
  V  V42  1  0.74640627  -0.00244991  0.24928820  1
  V  V43  1  0.87490374  0.75052812  0.62575086  1
  V  V44  1  0.87927025  -0.00210733  0.87319329  1
  V  V45  1  0.12436975  -0.00216431  0.62753269  1
  V  V46  1  0.37326088  0.74798672  0.11252319  1
  V  V47  1  0.12417708  0.37585764  0.74726977  1
  V  V48  1  0.76130220  0.49988765  0.25380044  1
  V  V49  1  0.62904558  0.62244293  0.50937942  1
  V  V50  1  0.74551106  0.74762495  0.50061134  1
  V  V51  1  0.74233621  0.88388242  0.62491530  1
  V  V52  1  0.38045385  0.00129595  0.39015299  1
  V  V53  1  0.87359773  0.51095796  0.39251672  1
  V  V54  1  0.88892991  0.24740950  0.12812707  1
  V  V55  1  -0.00064014  0.25131579  0.74857685  1
  V  V56  1  0.74659237  0.24994878  -0.00078691  1
  V  V57  1  0.37634947  0.62909887  0.24991427  1
  V  V58  1  0.13917651  0.74756579  0.88346198  1
  V  V59  1  0.87489269  0.25838109  0.62188259  1
  V  V60  1  0.23698541  0.49718597  0.24912608  1
  V  V61  1  0.12617390  0.25118571  0.87570199  1
  V  V62  1  0.24900924  0.24521064  0.49951129  1
  V  V63  1  0.49782360  0.47952698  -0.00310664  1
  V  V64  1  0.22996403  0.37642209  0.13242259  1
  V  V65  1  0.87504709  0.87514346  0.49985388  1
  V  V66  1  0.62423387  0.11615360  0.50155085  1
  V  V67  1  0.50590376  0.49803126  0.50709755  1
  V  V68  1  0.75019127  0.75220279  -0.00424287  1
  V  V69  1  0.87318218  0.62403307  0.75192866  1
  V  V70  1  0.12539461  0.87299095  0.25068675  1
  V  V71  1  0.50578469  0.12634614  0.12558251  1
  V  V72  1  0.25684895  0.25294368  0.00131463  1
  V  V73  1  0.11870061  0.00354762  0.12942448  1
  V  V74  1  0.62557136  0.49578757  0.13248004  1
  V  V75  1  0.24796713  0.86724720  0.11863323  1
  V  V76  1  0.87864088  0.74495628  0.12514710  1
  V  V77  1  0.00074208  0.00113106  -0.00177084  1
  V  V78  1  0.88795928  0.12646037  0.24520745  1
  V  V79  1  0.74696731  0.62549770  0.87383331  1
  V  V80  1  0.25078531  0.12623341  0.37759909  1
  V  V81  1  0.25052304  -0.00133852  0.25201598  1
  V  V82  1  0.37529633  0.49968240  0.37371340  1
  V  V83  1  0.11882461  0.25867678  0.36323542  1
  V  V84  1  0.38175835  0.25029082  0.62911085  1
  Zn  Zn85  1  0.74047659  0.50346634  0.74682282  1
  Zn  Zn86  1  0.62302599  0.12629865  -0.00322990  1
  Zn  Zn87  1  0.12418227  0.87382321  0.75619457  1
  Zn  Zn88  1  0.30063506  -0.02883835  0.80393175  1
  Zn  Zn89  1  0.48565470  0.00431159  -0.01080442  1
  Zn  Zn90  1  0.49934895  0.62481387  0.12562861  1
  Zn  Zn91  1  0.75013675  0.12619907  0.37247827  1
  Zn  Zn92  1  0.37863240  0.11974056  0.76482770  1
  Zn  Zn93  1  0.50765168  0.25392831  0.24911207  1
  Zn  Zn94  1  0.01280836  0.49649085  0.00124914  1
  Zn  Zn95  1  0.61858346  0.88824765  0.74442624  1
  Zn  Zn96  1  0.47936349  0.89081495  0.86560525  1
  Zn  Zn97  1  0.37084465  0.62641037  0.75337744  1
  Zn  Zn98  1  0.36860805  0.88306640  -0.01193205  1
  Zn  Zn99  1  0.74808261  0.00622406  0.74583180  1
  Zn  Zn100  1  0.00068941  0.12837706  0.62225427  1
  Zn  Zn101  1  0.74893000  0.87229165  0.12701888  1
  Zn  Zn102  1  0.50827413  0.75318628  0.24840621  1
  Zn  Zn103  1  0.11479089  0.49428364  0.61747444  1
  Zn  Zn104  1  0.12344461  0.12721009  0.50146882  1
  Zn  Zn105  1  0.37862544  0.49700824  0.88006290  1
  Zn  Zn106  1  0.25252283  0.12172359  0.87194015  1
  Zn  Zn107  1  0.18914506  0.18542421  0.18843363  1
  Zn  Zn108  1  0.18940586  0.18277345  0.68744343  1
  Zn  Zn109  1  0.18583745  0.68267420  0.18347199  1
  Zn  Zn110  1  0.18043254  0.68915754  0.68518860  1
  Zn  Zn111  1  0.69382695  0.18302778  0.18820328  1
  Zn  Zn112  1  0.68641060  0.19099570  0.68942124  1
  Zn  Zn113  1  0.69030513  0.68363203  0.16878938  1
  Zn  Zn114  1  0.68286885  0.69166534  0.68749169  1
  Zn  Zn115  1  0.31249013  0.31233494  0.31194053  1
  Zn  Zn116  1  0.31653013  0.31693787  0.81462748  1
  Zn  Zn117  1  0.31534740  0.81336368  0.31285249  1
  Zn  Zn118  1  0.31298131  0.80186093  0.81253206  1
  Zn  Zn119  1  0.81606988  0.31196179  0.31167600  1
  Zn  Zn120  1  0.80831652  0.31449655  0.81049334  1
  Zn  Zn121  1  0.81946778  0.81765912  0.30724724  1
  Zn  Zn122  1  0.81212186  0.81507346  0.81180023  1
  Zn  Zn123  1  0.18552203  0.43494961  0.43615476  1
  Zn  Zn124  1  0.21642629  0.42887085  0.92832769  1
  Zn  Zn125  1  0.19062044  0.93757718  0.44243956  1
  Zn  Zn126  1  0.18144653  0.93225850  0.93998073  1
  Zn  Zn127  1  0.68899036  0.43852896  0.43643851  1
  Zn  Zn128  1  0.68826849  0.43888401  0.94260247  1
  Zn  Zn129  1  0.68832302  0.93729722  0.43554345  1
  Zn  Zn130  1  0.69054328  0.94277830  0.93906629  1
  Zn  Zn131  1  0.30808130  0.06581285  0.06180854  1
  Zn  Zn132  1  0.32776714  0.04675369  0.60454735  1
  Zn  Zn133  1  0.31457085  0.55613288  0.06607593  1
  Zn  Zn134  1  0.31260251  0.56056115  0.56235369  1
  Zn  Zn135  1  0.81231015  0.06350015  0.06422121  1
  Zn  Zn136  1  0.81425868  0.06823556  0.56002910  1
  Zn  Zn137  1  0.81226520  0.56307158  0.06116428  1
  Zn  Zn138  1  0.80919115  0.56314772  0.56507437  1
  Zn  Zn139  1  0.43559059  0.44252698  0.18665186  1
  Zn  Zn140  1  0.43873960  0.43569685  0.68863125  1
  Zn  Zn141  1  0.42931206  0.94369866  0.17088496  1
  Zn  Zn142  1  0.44115557  0.93571492  0.68153910  1
  Zn  Zn143  1  0.94164029  0.43248357  0.19573502  1
  Zn  Zn144  1  0.93109247  0.43771920  0.68799848  1
  Zn  Zn145  1  0.93756978  0.93440123  0.18588300  1
  Zn  Zn146  1  0.93668054  0.93645216  0.68692863  1
  Zn  Zn147  1  0.06566627  0.06598434  0.31728589  1
  Zn  Zn148  1  0.09460275  0.04605511  0.82809035  1
  Zn  Zn149  1  0.05450791  0.55910138  0.31534535  1
  Zn  Zn150  1  0.06658699  0.56298996  0.81217947  1
  Zn  Zn151  1  0.56323407  0.05944275  0.31289979  1
  Zn  Zn152  1  0.56592508  0.06123551  0.80737339  1
  Zn  Zn153  1  0.55960651  0.55662966  0.30969093  1
  Zn  Zn154  1  0.55580999  0.56219162  0.81505250  1
  Zn  Zn155  1  0.44117895  0.18899761  0.43944720  1
  Zn  Zn156  1  0.43203664  0.17959295  0.93861289  1
  Zn  Zn157  1  0.44146204  0.69016819  0.43426648  1
  Zn  Zn158  1  0.43296203  0.68404536  0.93001111  1
  Zn  Zn159  1  0.93734392  0.18909882  0.43449661  1
  Zn  Zn160  1  0.93707686  0.18739864  0.93887413  1
  Zn  Zn161  1  0.93435437  0.68611839  0.43762681  1
  Zn  Zn162  1  0.94171372  0.68126202  0.94132671  1
  Zn  Zn163  1  0.06321347  0.31651208  0.06298591  1
  Zn  Zn164  1  0.06033213  0.31441172  0.55351593  1
  Zn  Zn165  1  0.06368305  0.80969385  0.05909075  1
  Zn  Zn166  1  0.06315775  0.80715367  0.56432530  1
  Zn  Zn167  1  0.56808698  0.31005013  0.06672036  1
  Zn  Zn168  1  0.56529059  0.30847641  0.55949115  1
  Zn  Zn169  1  0.54955234  0.81495958  0.05456714  1
  Zn  Zn170  1  0.56309546  0.80971059  0.55706822  1
  O  O171  1  0.12581719  0.11590756  0.12147136  1
  O  O172  1  0.12135539  0.11509386  0.62140678  1
  O  O173  1  0.11644873  0.62826923  0.10856301  1
  O  O174  1  0.11326174  0.62362551  0.61572220  1
  O  O175  1  0.61890829  0.11998317  0.12472856  1
  O  O176  1  0.62134626  0.13564541  0.61090240  1
  O  O177  1  0.62310520  0.61424453  0.11276874  1
  O  O178  1  0.61801017  0.62537559  0.61367862  1
  O  O179  1  0.38300773  0.37892223  0.37984637  1
  O  O180  1  0.32554592  0.39710396  0.89060674  1
  O  O181  1  0.37836838  0.88433573  0.38272682  1
  O  O182  1  0.35756024  0.88880892  0.86926252  1
  O  O183  1  0.88079632  0.38054942  0.37737185  1
  O  O184  1  0.87800197  0.38240667  0.87884795  1
  O  O185  1  0.88366554  0.88202162  0.38032304  1
  O  O186  1  0.87225315  0.88979156  0.87962286  1
  O  O187  1  0.25861281  0.00606711  0.37215518  1
  O  O188  1  0.20879860  0.00887786  0.86168277  1
  O  O189  1  0.25631828  0.50403560  0.36952767  1
  O  O190  1  0.23151352  0.51614176  0.84984364  1
  O  O191  1  0.75792390  0.00056035  0.36728793  1
  O  O192  1  0.76320747  0.01131654  0.87516287  1
  O  O193  1  0.76363390  0.49164297  0.36750690  1
  O  O194  1  0.75554799  0.50786980  0.87488151  1
  O  O195  1  0.25281170  0.48299625  0.13320467  1
  O  O196  1  0.24839683  0.48490150  0.62306930  1
  O  O197  1  0.23495737  0.99276597  0.13458700  1
  O  O198  1  0.23356925  0.98497615  0.61310515  1
  O  O199  1  0.74657203  0.49443443  0.13064860  1
  O  O200  1  0.75427532  0.48373445  0.62883200  1
  O  O201  1  0.74040044  0.99873567  0.12998526  1
  O  O202  1  0.76090055  0.98562872  0.62149366  1
  O  O203  1  0.00365355  0.37773881  0.27259999  1
  O  O204  1  0.00486248  0.37133224  0.75405842  1
  O  O205  1  0.00592636  0.86456634  0.25490955  1
  O  O206  1  -0.00063946  0.85578333  0.74289800  1
  O  O207  1  0.49784589  0.37768301  0.26313500  1
  O  O208  1  0.51207139  0.36700790  0.74953430  1
  O  O209  1  0.49309283  0.87657968  0.26057917  1
  O  O210  1  0.50165341  0.86744414  0.74885161  1
  O  O211  1  0.49462395  0.12682716  0.24231915  1
  O  O212  1  0.50055758  0.14050771  0.74239245  1
  O  O213  1  0.49115458  0.62667960  0.24846574  1
  O  O214  1  0.50414004  0.63056536  0.73787091  1
  O  O215  1  0.98692701  0.11846348  0.25161892  1
  O  O216  1  0.98823167  0.13306821  0.74762287  1
  O  O217  1  1.00774755  0.63548709  0.24082311  1
  O  O218  1  0.99314779  0.63288447  0.74399441  1
  O  O219  1  0.36310330  0.24420953  0.01207625  1
  O  O220  1  0.37046841  0.25753987  0.50527209  1
  O  O221  1  0.37713499  0.75053146  0.01036083  1
  O  O222  1  0.36329051  0.75538534  0.49327273  1
  O  O223  1  0.86981992  0.25509623  0.00949449  1
  O  O224  1  0.86225309  0.24475225  0.50682352  1
  O  O225  1  0.87396605  0.75728695  0.00147073  1
  O  O226  1  0.86406396  0.75420569  0.50329835  1
  O  O227  1  0.13499524  0.24808619  0.49137483  1
  O  O228  1  0.12835024  0.24575847  0.99671678  1
  O  O229  1  0.13262227  0.74063473  0.49306054  1
  O  O230  1  0.12239584  0.74034841  0.98829658  1
  O  O231  1  0.63627346  0.24464348  0.48995356  1
  O  O232  1  0.64244598  0.24683162  1.00568968  1
  O  O233  1  0.63774879  0.74213229  0.49733773  1
  O  O234  1  0.62773999  0.74393381  0.99253959  1
  O  O235  1  0.49567847  0.24490764  0.13003281  1
  O  O236  1  0.49446379  0.24884872  0.63019584  1
  O  O237  1  0.49037723  0.74806119  0.13057322  1
  O  O238  1  0.50689102  0.74032980  0.63100712  1
  O  O239  1  0.98816213  0.25391553  0.12263727  1
  O  O240  1  0.99119594  0.25287394  0.62631455  1
  O  O241  1  0.99641308  0.74224912  0.13042310  1
  O  O242  1  0.99340963  0.73947482  0.63278023  1
  O  O243  1  0.01056549  0.25893748  0.37877523  1
  O  O244  1  0.00487182  0.25810624  0.87093422  1
  O  O245  1  0.00303361  0.75223991  0.36686756  1
  O  O246  1  -0.00176656  0.74551008  0.86314578  1
  O  O247  1  0.50904800  0.25955326  0.37415137  1
  O  O248  1  0.49593135  0.24669214  0.86410789  1
  O  O249  1  0.49547776  0.76680132  0.36773073  1
  O  O250  1  0.50729143  0.75373851  0.86525652  1
  O  O251  1  0.25388018  0.13908624  0.49832138  1
  O  O252  1  0.23579059  0.13575504  1.00484655  1
  O  O253  1  0.24489586  0.63142187  0.49568519  1
  O  O254  1  0.23898993  0.62024119  1.00657871  1
  O  O255  1  0.74148294  0.13410953  0.49765675  1
  O  O256  1  0.75474965  0.13368791  0.99237184  1
  O  O257  1  0.74199479  0.63350379  0.50365881  1
  O  O258  1  0.73912571  0.63122102  0.99443098  1
  O  O259  1  0.23782445  0.36223418  0.02248385  1
  O  O260  1  0.25543465  0.36593263  0.50406921  1
  O  O261  1  0.24909282  0.87829134  0.01533971  1
  O  O262  1  0.25718275  0.86450104  0.50440932  1
  O  O263  1  0.75745318  0.36988150  0.01039529  1
  O  O264  1  0.74343309  0.36847249  0.51380044  1
  O  O265  1  0.76364063  0.87017159  0.00111714  1
  O  O266  1  0.75437249  0.86893217  0.50589600  1
  O  O267  1  0.13805330  0.50684588  0.25616047  1
  O  O268  1  0.13026975  0.49414136  0.73894263  1
  O  O269  1  0.12666727  0.99483200  0.24641956  1
  O  O270  1  0.10454580  0.98989083  0.73046794  1
  O  O271  1  0.63672916  0.50633243  0.23823802  1
  O  O272  1  0.62238948  0.48463589  0.75532131  1
  O  O273  1  0.63540205  1.00557207  0.23790651  1
  O  O274  1  0.63592938  1.00019577  0.74483926  1
  O  O275  1  0.37042178  0.01167336  0.25400900  1
  O  O276  1  0.36421624  0.01077627  0.71812048  1
  O  O277  1  0.36865409  0.51115817  0.25483238  1
  O  O278  1  0.35826147  0.49470031  0.74695992  1
  O  O279  1  0.87304673  0.00799152  0.25122136  1
  O  O280  1  0.87539392  0.00836967  0.75658568  1
  O  O281  1  0.86279662  0.50459416  0.24843002  1
  O  O282  1  0.86903709  0.50506499  0.76221198  1
  O  O283  1  0.13067939  0.36021187  0.37016325  1
  O  O284  1  0.12271985  0.36581011  0.87059456  1
  O  O285  1  0.12100721  0.86908112  0.37199704  1
  O  O286  1  0.12484688  0.85364780  0.87448730  1
  O  O287  1  0.61729692  0.36683747  0.37973457  1
  O  O288  1  0.63397682  0.37168484  0.86523956  1
  O  O289  1  0.60559084  0.88316125  0.37924095  1
  O  O290  1  0.63484581  0.86428232  0.87390868  1
  O  O291  1  0.38122240  0.13553758  0.13577411  1
  O  O292  1  0.38851268  0.14249912  0.61897902  1
  O  O293  1  0.37465703  0.63151034  0.13278589  1
  O  O294  1  0.38875115  0.62129969  0.62407765  1
  O  O295  1  0.87386429  0.13130499  0.13653327  1
  O  O296  1  0.87442719  0.13795796  0.63283549  1
  O  O297  1  0.88441975  0.63783818  0.11468013  1
  O  O298  1  0.87750681  0.63133343  0.63140083  1
  O  O299  1  0.25564547  0.25901076  0.12613168  1
  O  O300  1  0.25675072  0.25971089  0.61803048  1
  O  O301  1  0.25634212  0.75745206  0.13097973  1
  O  O302  1  0.24237343  0.75663372  0.61308198  1
  O  O303  1  0.75874647  0.25725086  0.12167988  1
  O  O304  1  0.75405655  0.25920995  0.61893460  1
  O  O305  1  0.76077387  0.75209191  0.11470560  1
  O  O306  1  0.75518373  0.75774679  0.61702776  1
  O  O307  1  0.24517943  0.24575351  0.38123408  1
  O  O308  1  0.24098823  0.25138536  0.88809610  1
  O  O309  1  0.24479464  0.74308796  0.38110985  1
  O  O310  1  0.23707196  0.73845143  0.87024975  1
  O  O311  1  0.74618519  0.25113661  0.38264887  1
  O  O312  1  0.76381754  0.24133701  0.88723731  1
  O  O313  1  0.75264710  0.75060519  0.37829896  1
  O  O314  1  0.74472198  0.74400733  0.87781369  1
  O  O315  1  0.01025181  0.11920936  0.00138181  1
  O  O316  1  -0.00057139  0.11514296  0.50037745  1
  O  O317  1  0.00823605  0.61687011  0.00810750  1
  O  O318  1  0.00831518  0.63285536  0.50902883  1
  O  O319  1  0.50234621  0.12600189  0.01543458  1
  O  O320  1  0.51650403  0.13309651  0.50682625  1
  O  O321  1  0.51161694  0.62498138  0.00074421  1
  O  O322  1  0.50672734  0.61995154  0.50408033  1
  O  O323  1  0.49803775  0.38187649  0.49371345  1
  O  O324  1  0.50367154  0.38097478  1.00397199  1
  O  O325  1  0.48665577  0.86755016  0.49200904  1
  O  O326  1  0.48909424  0.87976461  0.98615932  1
  O  O327  1  1.01564165  0.38206494  0.47448378  1
  O  O328  1  0.99463659  0.37939671  0.99357518  1
  O  O329  1  0.99483482  0.87809077  0.49492362  1
  O  O330  1  0.98918370  0.88238487  1.00232456  1
  O  O331  1  0.49582680  0.49352750  0.38355804  1
  O  O332  1  0.50379122  0.49393003  0.89278248  1
  O  O333  1  0.48750282  0.99205061  0.37122673  1
  O  O334  1  0.50589494  1.00169708  0.87803538  1
  O  O335  1  0.98097914  0.49354624  0.37207797  1
  O  O336  1  0.99156379  0.49429679  0.87372973  1
  O  O337  1  0.99782490  0.99430986  0.38404349  1
  O  O338  1  0.99799626  1.00403145  0.88977615  1
  O  O339  1  0.01136946  -0.00733010  0.11657992  1
  O  O340  1  0.00044623  -0.00136210  0.61084101  1
  O  O341  1  -0.00640787  0.51084763  0.12644775  1
  O  O342  1  -0.00559910  0.51377991  0.62913186  1
  O  O343  1  0.51631848  0.00879272  0.13127112  1
  O  O344  1  0.50039657  0.01868834  0.62375112  1
  O  O345  1  0.51077340  0.49996530  0.11895086  1
  O  O346  1  0.49685951  0.50423002  0.61183962  1
  O  O347  1  0.25426667  0.38201038  0.24054188  1
  O  O348  1  0.24140237  0.38139457  0.73877430  1
  O  O349  1  0.24268039  0.88087128  0.24753433  1
  O  O350  1  0.24710713  0.86875533  0.73648543  1
  O  O351  1  0.75637441  0.38325148  0.23963594  1
  O  O352  1  0.73508632  0.37288655  0.74113241  1
  O  O353  1  0.75857184  0.89078741  0.24455747  1
  O  O354  1  0.75224441  0.87418971  0.73206598  1
  O  O355  1  0.25885480  0.11883161  0.25682352  1
  O  O356  1  0.26230634  0.13769176  0.75538106  1
  O  O357  1  0.25491174  0.61756863  0.25504556  1
  O  O358  1  0.25208468  0.60932109  0.72614993  1
  O  O359  1  0.76151839  0.11222178  0.25182909  1
  O  O360  1  0.76312571  0.13115527  0.75669695  1
  O  O361  1  0.74179969  0.62435984  0.26260939  1
  O  O362  1  0.75417632  0.62487961  0.75431498  1
  O  O363  1  0.37303834  0.11959860  0.37198062  1
  O  O364  1  0.36686288  0.11238213  0.88042937  1
  O  O365  1  0.36987886  0.61991068  0.36987845  1
  O  O366  1  0.38140722  0.61070780  0.86570657  1
  O  O367  1  0.87412690  0.12030295  0.36356652  1
  O  O368  1  0.87374537  0.11634410  0.86862960  1
  O  O369  1  0.87430806  0.61057975  0.37773377  1
  O  O370  1  0.86871311  0.61784352  0.87286982  1
  O  O371  1  0.13149564  0.37193811  0.13694140  1
  O  O372  1  0.13172384  0.37341877  0.62676693  1
  O  O373  1  0.12951188  0.87785455  0.13131300  1
  O  O374  1  0.13195799  0.87773908  0.62407248  1
  O  O375  1  0.63783552  0.38353955  0.12316182  1
  O  O376  1  0.63496879  0.37090163  0.63110028  1
  O  O377  1  0.62485693  0.88675630  0.11996988  1
  O  O378  1  0.64000785  0.87213266  0.61936541  1
  O  O379  1  0.12727337  0.24186241  0.26589671  1
  O  O380  1  0.11843878  0.25492085  0.75734637  1
  O  O381  1  0.11876604  0.75304718  0.25562337  1
  O  O382  1  0.11272834  0.74492203  0.76184829  1
  O  O383  1  0.62871056  0.24312702  0.26494187  1
  O  O384  1  0.61243527  0.25982558  0.74981855  1
  O  O385  1  0.63375822  0.73792435  0.25929886  1
  O  O386  1  0.61578266  0.75528047  0.75740606  1
  O  O387  1  0.37796035  0.23850616  0.24776186  1
  O  O388  1  0.38945434  0.25894707  0.74389801  1
  O  O389  1  0.37230450  0.73620406  0.24760972  1
  O  O390  1  0.38967547  0.74530671  0.74941732  1
  O  O391  1  0.87158114  0.23491644  0.24376584  1
  O  O392  1  0.88018827  0.24673775  0.74352446  1
  O  O393  1  0.88598278  0.75266096  0.23860834  1
  O  O394  1  0.88265954  0.74447774  0.74787917  1
  O  O395  1  0.38224435  0.49414164  0.49248482  1
  O  O396  1  0.39685959  0.50183084  1.00845628  1
  O  O397  1  0.36902938  0.99114704  0.49469802  1
  O  O398  1  0.38326673  0.98756249  1.04400638  1
  O  O399  1  0.87053370  0.50131665  0.49135157  1
  O  O400  1  0.87459695  0.49450955  0.98878415  1
  O  O401  1  0.88113553  0.99670025  0.49261588  1
  O  O402  1  0.88235381  0.99522497  0.99621381  1
  O  O403  1  0.11754739  0.00747624  0.00950768  1
  O  O404  1  0.11487821  -0.00005123  0.50610363  1
  O  O405  1  0.13163351  0.50947247  -0.01076313  1
  O  O406  1  0.13090350  0.51441103  0.49943090  1
  O  O407  1  0.62898438  0.00646665  0.01489598  1
  O  O408  1  0.63243580  0.01760443  0.49756327  1
  O  O409  1  0.61732423  0.50505625  0.00787414  1
  O  O410  1  0.61732461  0.50924665  0.49451644  1
  O  O411  1  0.37338212  0.36136600  0.13366740  1
  O  O412  1  0.36997884  0.36648270  0.61898015  1
  O  O413  1  0.36134262  0.85834853  0.13691890  1
  O  O414  1  0.36470801  0.87631608  0.61248842  1
  O  O415  1  0.87119990  0.36871450  0.12257001  1
  O  O416  1  0.86133139  0.36331480  0.63259378  1
  O  O417  1  0.87671736  0.86253420  0.11564992  1
  O  O418  1  0.86865958  0.86799521  0.61728778  1
  O  O419  1  0.13356731  0.13333132  0.38058009  1
  O  O420  1  0.12046917  0.14240297  0.88616878  1
  O  O421  1  0.12746644  0.62894467  0.38099663  1
  O  O422  1  0.11611638  0.63444745  0.88900959  1
  O  O423  1  0.62555777  0.13157183  0.38524708  1
  O  O424  1  0.64261170  0.12607330  0.87558640  1
  O  O425  1  0.62480055  0.62588281  0.38288640  1
  O  O426  1  0.62845638  0.63320037  0.87938141  1
