# generated using pymatgen
data_V85Zn86O256
_symmetry_space_group_name_H-M   'P 1'
_cell_length_a   16.93109942
_cell_length_b   16.92883533
_cell_length_c   16.91232291
_cell_angle_alpha   90.05641023
_cell_angle_beta   89.96189832
_cell_angle_gamma   90.04113203
_symmetry_Int_Tables_number   1
_chemical_formula_structural   V85Zn86O256
_chemical_formula_sum   'V85 Zn86 O256'
_cell_volume   4847.46949173
_cell_formula_units_Z   1
loop_
 _symmetry_equiv_pos_site_id
 _symmetry_equiv_pos_as_xyz
  1  'x, y, z'
loop_
 _atom_site_type_symbol
 _atom_site_label
 _atom_site_symmetry_multiplicity
 _atom_site_fract_x
 _atom_site_fract_y
 _atom_site_fract_z
 _atom_site_occupancy
  V  V0  1  0.37090428  0.50465503  0.87540658  1
  V  V1  1  0.62782315  0.87508316  0.75035887  1
  V  V2  1  0.00031260  0.24399924  0.74596892  1
  V  V3  1  0.11596867  0.25588931  0.36749230  1
  V  V4  1  0.38155874  0.87410893  0.49486767  1
  V  V5  1  0.60856256  0.26507324  0.86497593  1
  V  V6  1  0.50286339  0.00573790  0.49864993  1
  V  V7  1  0.62412103  0.12740195  -0.01306530  1
  V  V8  1  0.12345743  0.75009037  0.37607618  1
  V  V9  1  0.00764909  0.62272370  0.12618085  1
  V  V10  1  0.74631576  0.62407703  0.37195977  1
  V  V11  1  0.25419054  0.74399439  -0.00540937  1
  V  V12  1  0.37885273  0.12385449  0.73953412  1
  V  V13  1  0.37478540  0.25288107  0.12337380  1
  V  V14  1  -0.00263236  0.49793067  0.50053429  1
  V  V15  1  0.12449723  0.49703074  0.62406209  1
  V  V16  1  -0.00541945  0.62304616  0.63226548  1
  V  V17  1  0.00124952  0.37451559  0.87455558  1
  V  V18  1  0.00067261  -0.00690393  -0.00838109  1
  V  V19  1  0.74958128  0.37958176  0.12540799  1
  V  V20  1  0.12772825  0.24671408  0.87220972  1
  V  V21  1  0.00062481  0.88410680  0.38087167  1
  V  V22  1  0.37294115  0.62533040  0.24683224  1
  V  V23  1  0.49896012  0.25166411  0.24998383  1
  V  V24  1  0.75296222  0.87679040  0.12411444  1
  V  V25  1  0.00698013  0.49565784  0.00395483  1
  V  V26  1  0.25228193  0.00332779  0.25341230  1
  V  V27  1  0.12447867  0.87418760  0.24995940  1
  V  V28  1  0.75039721  0.37965170  0.63290939  1
  V  V29  1  0.87288264  0.74767104  0.62739562  1
  V  V30  1  0.87732068  0.88597393  0.50182967  1
  V  V31  1  0.37697061  0.37340833  -0.00749716  1
  V  V32  1  0.62752599  0.37834048  0.25225708  1
  V  V33  1  0.12858584  0.62239083  -0.00687205  1
  V  V34  1  0.37969089  0.00342646  0.37423401  1
  V  V35  1  0.25012548  0.88485309  0.62555312  1
  V  V36  1  0.74790182  0.12679183  0.37330464  1
  V  V37  1  0.25041571  0.37276828  0.61697256  1
  V  V38  1  0.49927583  0.63497809  0.63755180  1
  V  V39  1  0.61946389  0.62276633  0.50346294  1
  V  V40  1  0.49904191  0.12491904  0.12617492  1
  V  V41  1  0.12428168  0.62557248  0.50064652  1
  V  V42  1  0.49326779  0.75535587  0.24937061  1
  V  V43  1  0.87517763  0.74945766  0.12588260  1
  V  V44  1  0.25053050  0.24767509  -0.00202213  1
  V  V45  1  0.62177519  0.74134013  0.87198201  1
  V  V46  1  0.87657014  0.36968453  0.50188825  1
  V  V47  1  0.62376634  0.87635864  0.25273180  1
  V  V48  1  0.87952223  0.87414565  -0.01007622  1
  V  V49  1  0.86801714  0.49806296  0.37465435  1
  V  V50  1  0.50085098  0.49710874  -0.00472487  1
  V  V51  1  0.49863449  -0.00059629  -0.00171162  1
  V  V52  1  0.25228025  0.24964454  0.49131312  1
  V  V53  1  0.75475385  0.00368766  0.24618164  1
  V  V54  1  0.49904213  0.87034458  0.86587818  1
  V  V55  1  -0.00166358  0.12321138  0.13030735  1
  V  V56  1  0.76042630  0.62857464  0.87054756  1
  V  V57  1  0.87879556  0.24826351  0.12773707  1
  V  V58  1  0.00255218  0.11666149  0.62071997  1
  V  V59  1  0.12676104  0.12529298  0.00081399  1
  V  V60  1  0.87769331  0.37803686  -0.00398627  1
  V  V61  1  0.49518750  0.37600047  0.38020389  1
  V  V62  1  0.37365746  0.75353469  0.63339956  1
  V  V63  1  0.36865004  0.00089953  0.86895451  1
  V  V64  1  0.59767102  0.47964316  0.64631432  1
  V  V65  1  0.23705383  0.37562629  0.12509943  1
  V  V66  1  0.62120082  0.00787728  0.63019665  1
  V  V67  1  0.74773888  0.25204224  -0.01063684  1
  V  V68  1  0.87063911  0.62196768  0.25025568  1
  V  V69  1  0.49823736  0.62981664  0.12383812  1
  V  V70  1  0.38630147  0.25321529  0.62393810  1
  V  V71  1  0.12696342  0.88348281  0.75772854  1
  V  V72  1  0.23621827  0.49655982  0.24535537  1
  V  V73  1  0.62054291  0.75424812  0.37660175  1
  V  V74  1  0.24879126  0.50599683  0.75177682  1
  V  V75  1  0.74822998  0.24857918  0.49520534  1
  V  V76  1  0.75103431  0.88125151  0.62842147  1
  V  V77  1  0.75767202  0.50789585  0.74422229  1
  V  V78  1  0.85932475  0.23130672  0.64030686  1
  V  V79  1  0.12670167  0.11898654  0.49011699  1
  V  V80  1  0.25352577  0.86783179  0.12613917  1
  V  V81  1  0.62617158  0.50219971  0.12822257  1
  V  V82  1  0.00172195  0.75094596  0.75606918  1
  V  V83  1  0.37135241  0.49783037  0.37651983  1
  V  V84  1  0.37821792  0.86758602  0.00429908  1
  Zn  Zn85  1  -0.00234222  0.37431788  0.35868215  1
  Zn  Zn86  1  0.37234589  0.12843575  0.25553067  1
  Zn  Zn87  1  0.24775885  0.62463285  0.37327854  1
  Zn  Zn88  1  0.37186832  0.63250603  0.75925066  1
  Zn  Zn89  1  -0.00208729  0.75125355  0.25269853  1
  Zn  Zn90  1  0.12745608  0.37329138  0.74783403  1
  Zn  Zn91  1  0.87819576  0.00640029  0.37859844  1
  Zn  Zn92  1  0.12676517  0.00121434  0.62329499  1
  Zn  Zn93  1  0.12715572  -0.00222953  0.12472351  1
  Zn  Zn94  1  0.62196397  0.25005713  0.37358632  1
  Zn  Zn95  1  0.74926897  0.75203005  0.50143608  1
  Zn  Zn96  1  0.87835022  0.13058171  0.25124024  1
  Zn  Zn97  1  0.12706362  0.74894892  0.87327748  1
  Zn  Zn98  1  0.85424647  0.02153494  0.85470230  1
  Zn  Zn99  1  0.49413186  0.50353815  0.49623346  1
  Zn  Zn100  1  0.62745080  0.62595872  -0.00041794  1
  Zn  Zn101  1  0.62632349  0.00209487  0.12284805  1
  Zn  Zn102  1  0.87982502  0.50568951  0.86879023  1
  Zn  Zn103  1  0.74937226  0.74780079  -0.00131469  1
  Zn  Zn104  1  0.25126592  0.75094011  0.50008644  1
  Zn  Zn105  1  0.62226140  0.12816668  0.50432046  1
  Zn  Zn106  1  0.24681223  0.11661032  0.86499125  1
  Zn  Zn107  1  0.19023956  0.18426335  0.18543997  1
  Zn  Zn108  1  0.19262835  0.18372684  0.68438829  1
  Zn  Zn109  1  0.18841004  0.68896036  0.18562031  1
  Zn  Zn110  1  0.18782259  0.69057323  0.68533881  1
  Zn  Zn111  1  0.68661993  0.19068835  0.18162499  1
  Zn  Zn112  1  0.67695775  0.19760462  0.68589295  1
  Zn  Zn113  1  0.68676782  0.68876790  0.18929759  1
  Zn  Zn114  1  0.68472057  0.68915399  0.69110741  1
  Zn  Zn115  1  0.30956883  0.31446244  0.31118500  1
  Zn  Zn116  1  0.31301277  0.31388802  0.80594737  1
  Zn  Zn117  1  0.31202358  0.81438130  0.31621922  1
  Zn  Zn118  1  0.30841994  0.81605591  0.81375553  1
  Zn  Zn119  1  0.81174652  0.31582230  0.30937287  1
  Zn  Zn120  1  0.81581574  0.19977454  0.81766428  1
  Zn  Zn121  1  0.81182413  0.81217507  0.31436514  1
  Zn  Zn122  1  0.81252564  0.81316096  0.80840237  1
  Zn  Zn123  1  0.18708083  0.43513150  0.43510898  1
  Zn  Zn124  1  0.18731934  0.43575256  0.93827607  1
  Zn  Zn125  1  0.19374909  0.93688673  0.43659848  1
  Zn  Zn126  1  0.18821668  0.93396572  0.93954167  1
  Zn  Zn127  1  0.68445857  0.43946998  0.44478924  1
  Zn  Zn128  1  0.69263493  0.44255383  0.93676093  1
  Zn  Zn129  1  0.69148930  0.94027160  0.43974702  1
  Zn  Zn130  1  0.68832516  0.93553693  0.93398973  1
  Zn  Zn131  1  0.31301601  0.05901663  0.06316923  1
  Zn  Zn132  1  0.31209338  0.06649056  0.55863912  1
  Zn  Zn133  1  0.31234087  0.56084889  0.06574065  1
  Zn  Zn134  1  0.31159335  0.56548581  0.56290274  1
  Zn  Zn135  1  0.80384242  0.05634952  0.02626469  1
  Zn  Zn136  1  0.81497845  0.05897286  0.67462170  1
  Zn  Zn137  1  0.81334256  0.56253667  0.05802272  1
  Zn  Zn138  1  0.80973690  0.56497917  0.55948685  1
  Zn  Zn139  1  0.43475255  0.43875806  0.18656975  1
  Zn  Zn140  1  0.42596393  0.44186716  0.67974038  1
  Zn  Zn141  1  0.43790390  0.93746851  0.18674176  1
  Zn  Zn142  1  0.43818346  0.94105549  0.68550417  1
  Zn  Zn143  1  0.93186554  0.44328488  0.18536243  1
  Zn  Zn144  1  0.93552061  0.42971482  0.68913940  1
  Zn  Zn145  1  0.94033591  0.93979234  0.18567587  1
  Zn  Zn146  1  0.94230210  0.93379585  0.69117749  1
  Zn  Zn147  1  0.06609309  0.06291077  0.31218708  1
  Zn  Zn148  1  0.05630746  0.06232010  0.81233619  1
  Zn  Zn149  1  0.05620853  0.56153782  0.31418952  1
  Zn  Zn150  1  0.06443506  0.56156997  0.81210177  1
  Zn  Zn151  1  0.56292711  0.06027406  0.31384147  1
  Zn  Zn152  1  0.55747387  0.06356914  0.80945097  1
  Zn  Zn153  1  0.56041924  0.56305632  0.31098811  1
  Zn  Zn154  1  0.56296123  0.44350818  0.81235307  1
  Zn  Zn155  1  0.43590039  0.18629090  0.43893636  1
  Zn  Zn156  1  0.43735906  0.18569458  0.93046129  1
  Zn  Zn157  1  0.43648501  0.69022785  0.43445849  1
  Zn  Zn158  1  0.43974654  0.68629196  0.93735367  1
  Zn  Zn159  1  0.93697858  0.18476612  0.44106054  1
  Zn  Zn160  1  0.94454193  0.18972330  0.94675132  1
  Zn  Zn161  1  0.93809817  0.69150739  0.44204030  1
  Zn  Zn162  1  0.93978319  0.68753315  0.93987912  1
  Zn  Zn163  1  0.05903606  0.30924876  0.18606986  1
  Zn  Zn164  1  0.06197442  0.30640713  0.55979978  1
  Zn  Zn165  1  0.06479197  0.80947138  0.06258396  1
  Zn  Zn166  1  0.06174208  0.81335061  0.56564764  1
  Zn  Zn167  1  0.56234627  0.31299474  0.06030358  1
  Zn  Zn168  1  0.56280509  0.31433285  0.55828466  1
  Zn  Zn169  1  0.56525172  0.81131494  0.06201598  1
  Zn  Zn170  1  0.56088928  0.81565802  0.56265886  1
  O  O171  1  0.11921612  0.12305470  0.11623101  1
  O  O172  1  0.12030785  0.12387358  0.61357213  1
  O  O173  1  0.11155022  0.63221789  0.11799630  1
  O  O174  1  0.11766545  0.61891389  0.61748505  1
  O  O175  1  0.61040023  0.12730896  0.11606748  1
  O  O176  1  0.62867751  0.11192652  0.62643204  1
  O  O177  1  0.61956492  0.61806915  0.12525123  1
  O  O178  1  0.61135239  0.62519894  0.62173572  1
  O  O179  1  0.38316962  0.38523775  0.36582257  1
  O  O180  1  0.37056806  0.38219004  0.88564324  1
  O  O181  1  0.37243658  0.88402650  0.38568836  1
  O  O182  1  0.38242615  0.87901055  0.88179763  1
  O  O183  1  0.87464265  0.38263763  0.38066473  1
  O  O184  1  0.88871235  0.37327307  0.88797448  1
  O  O185  1  0.88353993  0.87187572  0.38291368  1
  O  O186  1  0.86867307  0.87440782  0.88946563  1
  O  O187  1  0.26136005  -0.00627428  0.36304142  1
  O  O188  1  0.26536538  -0.00445408  0.88019160  1
  O  O189  1  0.25325954  0.50014185  0.36277511  1
  O  O190  1  0.25706209  0.49350264  0.86476812  1
  O  O191  1  0.75237540  0.00930820  0.36586082  1
  O  O192  1  0.76328640  0.01401107  0.92217928  1
  O  O193  1  0.75989948  0.50821475  0.38295929  1
  O  O194  1  0.75179313  0.51078656  0.86472187  1
  O  O195  1  0.25111206  0.49136124  0.13658053  1
  O  O196  1  0.24649407  0.49214771  0.62696323  1
  O  O197  1  0.24986195  0.98569226  0.12947880  1
  O  O198  1  0.25106226  0.98865088  0.62113026  1
  O  O199  1  0.74183363  0.48925206  0.11765038  1
  O  O200  1  0.74846776  0.49736512  0.62908611  1
  O  O201  1  0.74819454  0.99252603  0.12790212  1
  O  O202  1  0.73872568  0.98739851  0.62281647  1
  O  O203  1  -0.00460018  0.37714792  0.24601611  1
  O  O204  1  0.00555249  0.36672943  0.75869369  1
  O  O205  1  0.00713141  0.87301433  0.25715159  1
  O  O206  1  0.01779688  0.86385675  0.74157916  1
  O  O207  1  0.50850321  0.37245824  0.25448124  1
  O  O208  1  0.53036834  0.41190932  0.70881892  1
  O  O209  1  0.51016719  0.86618787  0.24165904  1
  O  O210  1  0.50326345  0.87775925  0.76181009  1
  O  O211  1  0.49912891  0.13031739  0.24172830  1
  O  O212  1  0.47908983  0.12856838  0.75732152  1
  O  O213  1  0.49314136  0.63249906  0.24371407  1
  O  O214  1  0.49421213  0.62668697  0.73508679  1
  O  O215  1  0.99764804  0.11671826  0.23595689  1
  O  O216  1  1.00457089  0.13552584  0.73968552  1
  O  O217  1  0.99050528  0.62628595  0.24252901  1
  O  O218  1  1.00576708  0.63032969  0.73792895  1
  O  O219  1  0.37098761  0.25613256  0.00110434  1
  O  O220  1  0.36387270  0.24032636  0.51144144  1
  O  O221  1  0.37041874  0.75756483  -0.00177560  1
  O  O222  1  0.37459631  0.75868058  0.50563044  1
  O  O223  1  0.86643260  0.26000351  0.00857391  1
  O  O224  1  0.86728739  0.25475835  0.50765770  1
  O  O225  1  0.87581923  0.75678526  0.00917032  1
  O  O226  1  0.87287878  0.75660911  0.51267073  1
  O  O227  1  0.13166427  0.24312119  0.48870532  1
  O  O228  1  0.13009678  0.23377099  0.98927498  1
  O  O229  1  0.12411816  0.74192820  0.49458161  1
  O  O230  1  0.13301236  0.74184201  0.99692815  1
  O  O231  1  0.63275819  0.24903324  0.49403350  1
  O  O232  1  0.62784546  0.24760645  0.99118915  1
  O  O233  1  0.62462421  0.74638988  0.49180352  1
  O  O234  1  0.62879632  0.74917434  0.98939895  1
  O  O235  1  0.49395380  0.24487269  0.12905517  1
  O  O236  1  0.48517961  0.25466304  0.61673793  1
  O  O237  1  0.50634942  0.73762491  0.13271077  1
  O  O238  1  0.49177399  0.74204508  0.62168361  1
  O  O239  1  0.99091279  0.23867181  0.12125100  1
  O  O240  1  0.99319662  0.24212757  0.63203891  1
  O  O241  1  0.98875324  0.74285216  0.12674630  1
  O  O242  1  0.99410584  0.74106851  0.63138468  1
  O  O243  1  0.01229315  0.25078086  0.37685869  1
  O  O244  1  0.01110081  0.25393330  0.87002281  1
  O  O245  1  0.00998220  0.75699948  0.37466190  1
  O  O246  1  0.00024256  0.74366981  0.85959121  1
  O  O247  1  0.49794918  0.25785743  0.36829177  1
  O  O248  1  0.50946661  0.25917292  0.88000765  1
  O  O249  1  0.51251735  0.74696687  0.36438495  1
  O  O250  1  0.50807752  0.75912157  0.87980164  1
  O  O251  1  0.23601338  0.13512359  0.50223934  1
  O  O252  1  0.24358362  0.12809157  0.99767718  1
  O  O253  1  0.23509189  0.62588009  0.49790166  1
  O  O254  1  0.24097648  0.63186493  1.01175988  1
  O  O255  1  0.74744096  0.14127654  0.48950558  1
  O  O256  1  0.73127304  0.14417888  1.01774275  1
  O  O257  1  0.73693093  0.62911032  0.49172832  1
  O  O258  1  0.74704624  0.62615710  0.98866454  1
  O  O259  1  0.25653298  0.36863296  0.00626231  1
  O  O260  1  0.24645700  0.36804426  0.50872906  1
  O  O261  1  0.25852040  0.86746992  0.00645926  1
  O  O262  1  0.26153488  0.87390057  0.50755781  1
  O  O263  1  0.75763624  0.37187481  0.00390960  1
  O  O264  1  0.76140373  0.36890230  0.50042927  1
  O  O265  1  0.75802226  0.87004676  0.01383050  1
  O  O266  1  0.75717650  0.87160525  0.50828855  1
  O  O267  1  0.13775173  0.50696757  0.25316196  1
  O  O268  1  0.13145265  0.49696757  0.74242292  1
  O  O269  1  0.13543259  0.99158687  0.25062625  1
  O  O270  1  0.12030409  0.98680178  0.74939995  1
  O  O271  1  0.61924359  0.49447059  0.23642221  1
  O  O272  1  0.64032289  0.50728940  0.74108100  1
  O  O273  1  0.63511589  0.99246132  0.24706367  1
  O  O274  1  0.61836544  0.98916282  0.74447540  1
  O  O275  1  0.37095901  -0.00194522  0.25744228  1
  O  O276  1  0.37749961  0.01016807  0.75503898  1
  O  O277  1  0.36730184  0.50829215  0.25651247  1
  O  O278  1  0.36712809  0.50101948  0.75885724  1
  O  O279  1  0.86283479  0.00104980  0.25030723  1
  O  O280  1  0.86908187  -0.00585199  0.74835854  1
  O  O281  1  0.87177272  0.51392621  0.25864682  1
  O  O282  1  0.86373963  0.49545455  0.75066110  1
  O  O283  1  0.11868675  0.36022793  0.37865419  1
  O  O284  1  0.11534201  0.36559708  0.87683436  1
  O  O285  1  0.11922333  0.86904539  0.37313208  1
  O  O286  1  0.12878363  0.87197052  0.86159232  1
  O  O287  1  0.61845863  0.37885162  0.36647896  1
  O  O288  1  0.62302274  0.37059568  0.87809642  1
  O  O289  1  0.63361393  0.86806419  0.36216724  1
  O  O290  1  0.61945767  0.86998062  0.86974329  1
  O  O291  1  0.38615074  0.13127408  0.12241636  1
  O  O292  1  0.37343762  0.13430146  0.63160826  1
  O  O293  1  0.38380422  0.62052864  0.13737032  1
  O  O294  1  0.38355427  0.63657343  0.62203133  1
  O  O295  1  0.88292391  0.13381526  0.11985325  1
  O  O296  1  0.88697615  0.13285808  0.61040337  1
  O  O297  1  0.87774895  0.63027678  0.13195451  1
  O  O298  1  0.88394629  0.63314487  0.61809082  1
  O  O299  1  0.25740321  0.25413642  0.11843613  1
  O  O300  1  0.25260027  0.25773818  0.61391081  1
  O  O301  1  0.24913813  0.76126321  0.11659088  1
  O  O302  1  0.25797377  0.75968007  0.62053135  1
  O  O303  1  0.75126176  0.26536030  0.11554087  1
  O  O304  1  0.74905891  0.26230001  0.61198562  1
  O  O305  1  0.76081661  0.75506270  0.12642963  1
  O  O306  1  0.75659447  0.75839374  0.62609984  1
  O  O307  1  0.24133873  0.25691843  0.38501040  1
  O  O308  1  0.23932185  0.25306049  0.87801300  1
  O  O309  1  0.23632849  0.74817488  0.37738214  1
  O  O310  1  0.25023778  0.75079339  0.88985335  1
  O  O311  1  0.74823633  0.24613862  0.37759381  1
  O  O312  1  0.73719811  0.25461211  0.88626065  1
  O  O313  1  0.73760080  0.74281500  0.37556095  1
  O  O314  1  0.74456198  0.74407313  0.87353944  1
  O  O315  1  0.00929611  0.11423748  0.00925086  1
  O  O316  1  0.01665407  0.13162525  0.50648178  1
  O  O317  1  0.00682226  0.61828851  0.00629596  1
  O  O318  1  0.00756667  0.62020737  0.50839918  1
  O  O319  1  0.50336994  0.11829548  0.00384839  1
  O  O320  1  0.50388486  0.11137140  0.49597778  1
  O  O321  1  0.50233157  0.61715578  0.00870310  1
  O  O322  1  0.51078574  0.62865534  0.49969015  1
  O  O323  1  0.50164312  0.38013700  0.48383445  1
  O  O324  1  0.48794628  0.38578552  1.01108368  1
  O  O325  1  0.48803452  0.88428106  0.50368628  1
  O  O326  1  0.49512311  0.88084760  0.99563785  1
  O  O327  1  0.98669545  0.37685786  0.50066601  1
  O  O328  1  0.99417154  0.38413246  0.99464620  1
  O  O329  1  0.99217296  0.87024517  0.49245068  1
  O  O330  1  0.99739087  0.88379914  1.00272653  1
  O  O331  1  0.49011060  0.49425343  0.37184282  1
  O  O332  1  0.49301281  0.49641431  0.88867925  1
  O  O333  1  0.49411162  0.99676626  0.38228708  1
  O  O334  1  0.49167250  0.99172567  0.88169379  1
  O  O335  1  0.98536737  0.49938231  0.38234398  1
  O  O336  1  1.00030701  0.49112462  0.87958871  1
  O  O337  1  0.99803398  0.98831328  0.37083189  1
  O  O338  1  0.99307863  1.00490651  0.89058868  1
  O  O339  1  0.00726303  0.00594598  0.11721954  1
  O  O340  1  0.00308093  0.01346209  0.62721069  1
  O  O341  1  -0.00689160  0.51172714  0.11477232  1
  O  O342  1  0.00195510  0.50460755  0.62134319  1
  O  O343  1  0.50112256  0.00760897  0.11691453  1
  O  O344  1  0.51101850  -0.00581080  0.61484345  1
  O  O345  1  0.50517164  0.50988944  0.11917446  1
  O  O346  1  0.49348442  0.52099896  0.61428862  1
  O  O347  1  0.25120786  0.38846701  0.24136160  1
  O  O348  1  0.24826080  0.38425570  0.73650061  1
  O  O349  1  0.24683800  0.87887629  0.24268340  1
  O  O350  1  0.23567022  0.87077657  0.74172231  1
  O  O351  1  0.73633984  0.37504937  0.24170733  1
  O  O352  1  0.74839365  0.38471173  0.73295870  1
  O  O353  1  0.74646138  0.88073231  0.24160440  1
  O  O354  1  0.73995520  0.87358082  0.74179872  1
  O  O355  1  0.25515069  0.10763651  0.23986930  1
  O  O356  1  0.26737557  0.12948940  0.75170431  1
  O  O357  1  0.25609133  0.61616555  0.24713874  1
  O  O358  1  0.25251580  0.61074686  0.74035650  1
  O  O359  1  0.74943133  0.11902366  0.25203548  1
  O  O360  1  0.78010590  0.16024648  0.71614088  1
  O  O361  1  0.75385858  0.62785173  0.26334447  1
  O  O362  1  0.75122692  0.62096291  0.75631484  1
  O  O363  1  0.37729170  0.11002828  0.37343139  1
  O  O364  1  0.37069655  0.11628173  0.86771175  1
  O  O365  1  0.37155796  0.62144436  0.36232038  1
  O  O366  1  0.37809811  0.61018567  0.87629281  1
  O  O367  1  0.86442009  0.12620103  0.37149001  1
  O  O368  1  0.87048953  0.13213979  0.88738847  1
  O  O369  1  0.86726415  0.62235209  0.37152779  1
  O  O370  1  0.86483622  0.62604851  0.87730945  1
  O  O371  1  0.13850289  0.36282889  0.12030019  1
  O  O372  1  0.13045807  0.38025926  0.62271964  1
  O  O373  1  0.13375662  0.87385937  0.13221607  1
  O  O374  1  0.13378200  0.87849493  0.62991166  1
  O  O375  1  0.62980043  0.38204866  0.13007627  1
  O  O376  1  0.63917926  0.38583866  0.60600370  1
  O  O377  1  0.63525066  0.87442670  0.13426135  1
  O  O378  1  0.63110171  0.87905054  0.63251527  1
  O  O379  1  0.12939577  0.24551072  0.26276979  1
  O  O380  1  0.12053088  0.25024881  0.75598355  1
  O  O381  1  0.12346818  0.75541981  0.25855552  1
  O  O382  1  0.11932413  0.75626163  0.75123399  1
  O  O383  1  0.61706615  0.26040664  0.24952903  1
  O  O384  1  0.62005703  0.25187640  0.76609150  1
  O  O385  1  0.61704280  0.75678579  0.25565751  1
  O  O386  1  0.62395158  0.76420533  0.75753164  1
  O  O387  1  0.37939549  0.24898411  0.24261867  1
  O  O388  1  0.37273880  0.24460253  0.73256391  1
  O  O389  1  0.38599189  0.74536656  0.25594929  1
  O  O390  1  0.36890131  0.75052981  0.73882080  1
  O  O391  1  0.86550237  0.24987735  0.23215604  1
  O  O392  1  0.88981549  0.26133986  0.74352432  1
  O  O393  1  0.87513441  0.73912953  0.24550562  1
  O  O394  1  0.88559946  0.75915808  0.73583406  1
  O  O395  1  0.37183701  0.50960940  0.48106550  1
  O  O396  1  0.37892130  0.49377395  0.99526010  1
  O  O397  1  0.38176254  0.99596798  0.49422059  1
  O  O398  1  0.38459255  0.99318102  0.99354008  1
  O  O399  1  0.87792854  0.49241355  0.49477068  1
  O  O400  1  0.88488684  0.49400178  0.99525066  1
  O  O401  1  0.87258605  0.98504660  0.49711905  1
  O  O402  1  0.89383939  0.98601628  1.01573871  1
  O  O403  1  0.11765041  0.00573856  -0.00147437  1
  O  O404  1  0.13139921  0.01556027  0.49599385  1
  O  O405  1  0.11562514  0.50541822  -0.00124126  1
  O  O406  1  0.11736102  0.50566255  0.50237858  1
  O  O407  1  0.61140560  0.00798849  -0.00037347  1
  O  O408  1  0.61838864  -0.00071110  0.50801100  1
  O  O409  1  0.61684062  0.50023995  0.01001899  1
  O  O410  1  0.61883018  0.51004038  0.51145342  1
  O  O411  1  0.36755020  0.36997591  0.11556524  1
  O  O412  1  0.36584054  0.36225582  0.62342495  1
  O  O413  1  0.37042443  0.87799469  0.11222069  1
  O  O414  1  0.36984020  0.86993612  0.62044885  1
  O  O415  1  0.86672283  0.37309405  0.11463431  1
  O  O416  1  0.86767788  0.36364909  0.61813490  1
  O  O417  1  0.87045679  0.86565886  0.12376200  1
  O  O418  1  0.86869608  0.87005724  0.61912725  1
  O  O419  1  0.12201442  0.13528979  0.38363304  1
  O  O420  1  0.12730957  0.12886989  0.87893892  1
  O  O421  1  0.12152380  0.63228291  0.38252324  1
  O  O422  1  0.12300491  0.62600669  0.88898051  1
  O  O423  1  0.63728726  0.12709657  0.37436543  1
  O  O424  1  0.61660417  0.13553217  0.88323777  1
  O  O425  1  0.62979581  0.62915061  0.38027781  1
  O  O426  1  0.63333948  0.63911265  0.87326326  1
