# generated using pymatgen
data_V85Zn86O256
_symmetry_space_group_name_H-M   'P 1'
_cell_length_a   16.95977448
_cell_length_b   16.93872589
_cell_length_c   16.95800850
_cell_angle_alpha   89.99010493
_cell_angle_beta   90.01850908
_cell_angle_gamma   89.93639245
_symmetry_Int_Tables_number   1
_chemical_formula_structural   V85Zn86O256
_chemical_formula_sum   'V85 Zn86 O256'
_cell_volume   4871.64198938
_cell_formula_units_Z   1
loop_
 _symmetry_equiv_pos_site_id
 _symmetry_equiv_pos_as_xyz
  1  'x, y, z'
loop_
 _atom_site_type_symbol
 _atom_site_label
 _atom_site_symmetry_multiplicity
 _atom_site_fract_x
 _atom_site_fract_y
 _atom_site_fract_z
 _atom_site_occupancy
  V  V0  1  0.61813197  0.74804940  0.37055622  1
  V  V1  1  0.37168623  0.76080416  0.62048523  1
  V  V2  1  0.87864871  0.38405435  -0.01672783  1
  V  V3  1  0.39053687  0.74576942  0.13080988  1
  V  V4  1  0.36626972  0.62389818  0.74948999  1
  V  V5  1  0.87627819  -0.01364929  0.87585242  1
  V  V6  1  0.37549893  0.87413256  0.00209324  1
  V  V7  1  0.37554195  -0.00336281  0.38471730  1
  V  V8  1  0.44219151  0.18219185  0.08200042  1
  V  V9  1  0.11853509  0.50997402  0.12978444  1
  V  V10  1  0.86764628  0.62095359  0.74743480  1
  V  V11  1  0.12610723  0.24912677  0.37428872  1
  V  V12  1  0.24011271  0.13432214  0.87433734  1
  V  V13  1  0.51234101  0.24979846  0.75063609  1
  V  V14  1  0.00444281  0.49986824  0.50113445  1
  V  V15  1  0.87629623  0.50008831  0.37522125  1
  V  V16  1  0.49882496  0.74907066  0.74959453  1
  V  V17  1  0.63012205  0.11699831  0.50389590  1
  V  V18  1  0.37571823  0.49585257  0.87866032  1
  V  V19  1  -0.00081516  -0.01172105  -0.00634675  1
  V  V20  1  0.62966246  0.24703118  0.37710505  1
  V  V21  1  0.62615195  0.74707874  0.87682485  1
  V  V22  1  -0.00367618  0.62699361  0.62314361  1
  V  V23  1  0.76332031  0.75209616  0.00210039  1
  V  V24  1  0.26237108  0.36340582  0.11720154  1
  V  V25  1  0.50626477  0.11888777  0.62511716  1
  V  V26  1  0.74955441  0.00074351  0.24754899  1
  V  V27  1  0.62246413  0.38761474  0.74870854  1
  V  V28  1  0.00667823  0.27116528  0.75528446  1
  V  V29  1  0.37121284  -0.00153947  0.87430387  1
  V  V30  1  0.00080226  -0.00432373  0.50192354  1
  V  V31  1  0.62660958  0.13211497  -0.00146538  1
  V  V32  1  0.25539928  0.76706056  0.50311742  1
  V  V33  1  0.49801245  0.50026928  0.00895915  1
  V  V34  1  0.87595686  0.87802536  0.49615550  1
  V  V35  1  0.12419544  0.86421015  0.73932811  1
  V  V36  1  0.75385858  0.87400937  0.11955931  1
  V  V37  1  0.61880368  0.87074279  0.24769443  1
  V  V38  1  0.88116315  0.12843677  0.75407901  1
  V  V39  1  0.74040080  0.37417302  0.61603448  1
  V  V40  1  0.37612620  0.50102439  0.37929245  1
  V  V41  1  0.49898521  0.00157826  0.00370810  1
  V  V42  1  0.11894844  0.75625496  0.87685706  1
  V  V43  1  0.25797515  0.00185700  0.24898703  1
  V  V44  1  0.87428059  0.75494881  0.62138055  1
  V  V45  1  0.13076031  0.62480474  0.50523458  1
  V  V46  1  0.48915101  0.23495774  0.25510927  1
  V  V47  1  0.49599977  0.87247369  0.38009620  1
  V  V48  1  0.87293382  0.25557352  0.12162442  1
  V  V49  1  0.37361950  0.12384574  0.74726051  1
  V  V50  1  0.25282377  0.87485202  0.12865190  1
  V  V51  1  0.49982938  0.87460414  0.87509729  1
  V  V52  1  0.00024270  0.24773334  0.24780774  1
  V  V53  1  0.73891766  0.88187201  0.62249077  1
  V  V54  1  0.87422806  0.12282937  0.24678551  1
  V  V55  1  0.23885062  0.38499957  0.62663310  1
  V  V56  1  0.12528589  0.12433341  0.50251740  1
  V  V57  1  0.39057294  0.62720344  0.24840574  1
  V  V58  1  0.74798191  0.75134972  0.49778870  1
  V  V59  1  0.75349529  0.12674711  0.38020760  1
  V  V60  1  0.49997157  0.61648540  0.62750496  1
  V  V61  1  0.25376908  0.74875430  0.00269365  1
  V  V62  1  0.11721719  0.75411614  0.37434627  1
  V  V63  1  0.62079370  0.62641621  0.01294257  1
  V  V64  1  0.11550319  0.87475620  0.25436062  1
  V  V65  1  0.24943562  0.62382015  0.88052392  1
  V  V66  1  0.25079175  0.25008368  0.50167859  1
  V  V67  1  0.25339336  0.50238722  0.24988144  1
  V  V68  1  0.61900188  0.00664563  0.12573400  1
  V  V69  1  0.74469643  0.00345220  0.74759456  1
  V  V70  1  0.50054133  0.37305248  0.37557168  1
  V  V71  1  0.74992714  0.62646290  0.37465404  1
  V  V72  1  0.88422141  -0.00378004  0.36845769  1
  V  V73  1  0.12608555  0.37427359  0.24801486  1
  V  V74  1  0.24770338  -0.00728967  0.74334408  1
  V  V75  1  0.88629107  0.63895561  0.24651370  1
  V  V76  1  0.74955874  0.49857660  0.24886350  1
  V  V77  1  -0.00240296  0.12021483  0.11806879  1
  V  V78  1  0.37560627  0.25328676  0.62608756  1
  V  V79  1  0.50324258  0.37280211  0.88093354  1
  V  V80  1  0.12526310  0.00140040  0.12230632  1
  V  V81  1  0.25766476  0.12640215  0.37069265  1
  V  V82  1  0.62428431  0.61775447  0.50517048  1
  V  V83  1  0.74793082  0.25433954  -0.00941658  1
  V  V84  1  0.87353436  0.36462282  0.49873437  1
  Zn  Zn85  1  0.11737754  0.62980289  0.00984594  1
  Zn  Zn86  1  -0.01156952  0.75915424  0.75983238  1
  Zn  Zn87  1  0.74840064  0.49889562  0.74909213  1
  Zn  Zn88  1  0.37583526  0.37560275  0.50118097  1
  Zn  Zn89  1  0.61861754  0.50106411  0.13209461  1
  Zn  Zn90  1  0.00167456  0.37307478  0.37621021  1
  Zn  Zn91  1  0.50084052  -0.00738123  0.50823613  1
  Zn  Zn92  1  0.74763429  0.37665750  0.12373284  1
  Zn  Zn93  1  0.94128677  0.70174222  0.08067660  1
  Zn  Zn94  1  0.20238022  0.45866656  0.78131447  1
  Zn  Zn95  1  0.75497533  0.61626490  0.88342689  1
  Zn  Zn96  1  0.50496241  0.49315752  0.50573340  1
  Zn  Zn97  1  -0.00849850  0.50551821  0.00817791  1
  Zn  Zn98  1  0.12581398  0.13697909  -0.00194910  1
  Zn  Zn99  1  0.62670457  0.37134983  0.24954980  1
  Zn  Zn100  1  0.74666314  0.12741254  0.87278385  1
  Zn  Zn101  1  0.12874326  -0.00606294  0.62219467  1
  Zn  Zn102  1  0.62268020  0.87869591  0.74759143  1
  Zn  Zn103  1  0.12355950  0.28229984  0.87944380  1
  Zn  Zn104  1  0.25363264  0.62883659  0.37747806  1
  Zn  Zn105  1  0.87405715  0.24929375  0.62589423  1
  Zn  Zn106  1  0.00136987  0.12773903  0.62869426  1
  Zn  Zn107  1  0.18852062  0.18589060  0.18546372  1
  Zn  Zn108  1  0.18541650  0.19166903  0.69054242  1
  Zn  Zn109  1  0.19445726  0.68944455  0.19428491  1
  Zn  Zn110  1  0.14856867  0.63268963  0.72367333  1
  Zn  Zn111  1  0.68553291  0.18918707  0.18654289  1
  Zn  Zn112  1  0.69226025  0.19113095  0.68386245  1
  Zn  Zn113  1  0.69317241  0.68811870  0.18812607  1
  Zn  Zn114  1  0.68509985  0.69237811  0.68436076  1
  Zn  Zn115  1  0.31322307  0.31502803  0.31007189  1
  Zn  Zn116  1  0.31841249  0.31198531  0.81100794  1
  Zn  Zn117  1  0.31111251  0.81126606  0.31466551  1
  Zn  Zn118  1  0.31007613  0.81120892  0.81013037  1
  Zn  Zn119  1  0.81341097  0.31148619  0.31232180  1
  Zn  Zn120  1  0.81032354  0.31420478  0.80843470  1
  Zn  Zn121  1  0.80732139  0.81613993  0.31129430  1
  Zn  Zn122  1  0.80608739  0.81020119  0.80966046  1
  Zn  Zn123  1  0.18906599  0.43741536  0.43922860  1
  Zn  Zn124  1  0.18751985  0.43964536  0.95178145  1
  Zn  Zn125  1  0.18734337  0.93847010  0.43545647  1
  Zn  Zn126  1  0.18515699  0.93931579  0.93439621  1
  Zn  Zn127  1  0.68878725  0.43632910  0.43496997  1
  Zn  Zn128  1  0.68741199  0.44068850  0.93483715  1
  Zn  Zn129  1  0.68822888  0.93958169  0.43411751  1
  Zn  Zn130  1  0.68805875  0.93804120  0.93621259  1
  Zn  Zn131  1  0.30714804  0.06326669  0.05734489  1
  Zn  Zn132  1  0.31315867  0.06313045  0.56268170  1
  Zn  Zn133  1  0.31371192  0.55963390  0.06644148  1
  Zn  Zn134  1  0.31386783  0.56600082  0.56297542  1
  Zn  Zn135  1  0.81119750  0.06016531  0.05817377  1
  Zn  Zn136  1  0.81556732  0.06421315  0.56506751  1
  Zn  Zn137  1  0.80911965  0.56622546  0.06642562  1
  Zn  Zn138  1  0.80956199  0.55661372  0.56292190  1
  Zn  Zn139  1  0.43872654  0.43259987  0.19368413  1
  Zn  Zn140  1  0.43201364  0.43753453  0.69302103  1
  Zn  Zn141  1  0.43763479  0.93855289  0.19228858  1
  Zn  Zn142  1  0.43733426  0.93720440  0.68934053  1
  Zn  Zn143  1  0.93689250  0.43720639  0.19145009  1
  Zn  Zn144  1  0.93313993  0.43919696  0.67825597  1
  Zn  Zn145  1  0.95723154  0.89110791  0.16147522  1
  Zn  Zn146  1  0.93868810  0.93928872  0.68750257  1
  Zn  Zn147  1  0.06571706  0.06058656  0.30973159  1
  Zn  Zn148  1  0.06105833  0.05563437  0.80867545  1
  Zn  Zn149  1  0.06408777  0.56611014  0.31759298  1
  Zn  Zn150  1  0.04915426  0.46831638  0.81842158  1
  Zn  Zn151  1  0.56281961  0.05925409  0.31622507  1
  Zn  Zn152  1  0.56303288  0.06319957  0.81513936  1
  Zn  Zn153  1  0.56342356  0.56024881  0.31607003  1
  Zn  Zn154  1  0.56194843  0.56327382  0.81792134  1
  Zn  Zn155  1  0.43893742  0.18418770  0.44089330  1
  Zn  Zn156  1  0.43361415  0.18917159  0.92046866  1
  Zn  Zn157  1  0.43812196  0.68617010  0.43900591  1
  Zn  Zn158  1  0.43896495  0.68497723  0.93974316  1
  Zn  Zn159  1  0.94169781  0.18324804  0.43569180  1
  Zn  Zn160  1  0.93884489  0.19026235  0.93355163  1
  Zn  Zn161  1  0.93740199  0.68760308  0.43553595  1
  Zn  Zn162  1  0.97159489  0.63317435  0.90215716  1
  Zn  Zn163  1  0.06296281  0.31448806  0.06034480  1
  Zn  Zn164  1  0.05980341  0.31130123  0.56643257  1
  Zn  Zn165  1  0.07148507  0.81480221  0.06011856  1
  Zn  Zn166  1  0.06343328  0.81132491  0.55852344  1
  Zn  Zn167  1  0.56668833  0.31955442  0.06477161  1
  Zn  Zn168  1  0.56494966  0.30509617  0.55937716  1
  Zn  Zn169  1  0.56680976  0.81471298  0.06136035  1
  Zn  Zn170  1  0.55959547  0.80501797  0.56038408  1
  O  O171  1  0.11589287  0.11834876  0.12274077  1
  O  O172  1  0.12734051  0.12576714  0.61107448  1
  O  O173  1  0.13126293  0.61277850  0.13479663  1
  O  O174  1  0.11042204  0.63791749  0.61160658  1
  O  O175  1  0.62651757  0.11680126  0.11509585  1
  O  O176  1  0.61880901  0.13128088  0.61629450  1
  O  O177  1  0.62624294  0.62435118  0.11637691  1
  O  O178  1  0.61431647  0.63130753  0.61622434  1
  O  O179  1  0.38255166  0.38221573  0.37736043  1
  O  O180  1  0.38708342  0.38459142  0.86910217  1
  O  O181  1  0.38547520  0.88160147  0.36956554  1
  O  O182  1  0.38008210  0.87891566  0.88028747  1
  O  O183  1  0.87706596  0.38214048  0.38070843  1
  O  O184  1  0.87207429  0.37780019  0.88477270  1
  O  O185  1  0.86641171  0.88806629  0.38071883  1
  O  O186  1  0.87284084  0.88778846  0.86618474  1
  O  O187  1  0.25668891  0.00606856  0.36954273  1
  O  O188  1  0.25468351  0.00474427  0.86324088  1
  O  O189  1  0.25994160  0.49991594  0.36915497  1
  O  O190  1  0.25924155  0.50877799  0.87946399  1
  O  O191  1  0.75757521  0.01014760  0.36848996  1
  O  O192  1  0.76034693  0.00172012  0.86865586  1
  O  O193  1  0.75788197  0.50528983  0.36862990  1
  O  O194  1  0.73920381  0.50734963  0.86228181  1
  O  O195  1  0.24258460  0.49342370  0.13573723  1
  O  O196  1  0.25718192  0.48398748  0.61948274  1
  O  O197  1  0.24645453  0.99727251  0.13188857  1
  O  O198  1  0.24956386  1.00503430  0.63875514  1
  O  O199  1  0.74976441  0.50089963  0.14124365  1
  O  O200  1  0.75274377  0.48088473  0.62885538  1
  O  O201  1  0.73563828  0.99765450  0.12641498  1
  O  O202  1  0.75528824  0.99193458  0.63383869  1
  O  O203  1  0.00879421  0.36713056  0.25268944  1
  O  O204  1  -0.00289279  0.37503620  0.74986188  1
  O  O205  1  0.01760279  0.89192880  0.25928432  1
  O  O206  1  0.01648699  0.87192915  0.74528382  1
  O  O207  1  0.50316121  0.36480988  0.26384658  1
  O  O208  1  0.50565077  0.36767852  0.75276002  1
  O  O209  1  0.51304696  0.87973266  0.26078857  1
  O  O210  1  0.50279657  0.86926361  0.75716917  1
  O  O211  1  0.50161588  0.13574355  0.25584492  1
  O  O212  1  0.49744916  0.13117286  0.74549693  1
  O  O213  1  0.48988205  0.62016826  0.25182813  1
  O  O214  1  0.49164566  0.63054084  0.74569885  1
  O  O215  1  0.99580465  0.12567631  0.23688829  1
  O  O216  1  0.99300179  0.12597792  0.74813564  1
  O  O217  1  0.98461826  0.62434351  0.25816253  1
  O  O218  1  0.98353232  0.63808411  0.72954615  1
  O  O219  1  0.38941166  0.23542274  0.01703914  1
  O  O220  1  0.36915225  0.24899265  0.50889020  1
  O  O221  1  0.37132533  0.75426219  0.00860871  1
  O  O222  1  0.36452445  0.74647471  0.50492394  1
  O  O223  1  0.86922061  0.26010224  0.00446792  1
  O  O224  1  0.88329718  0.26183306  0.49722398  1
  O  O225  1  0.86154898  0.74514682  -0.00039956  1
  O  O226  1  0.86719975  0.75805196  0.49994906  1
  O  O227  1  0.12814483  0.24344760  0.49366416  1
  O  O228  1  0.11652254  0.24993145  0.98841773  1
  O  O229  1  0.13667383  0.74774150  0.49279409  1
  O  O230  1  0.13699503  0.75014807  0.99381057  1
  O  O231  1  0.62053646  0.23527683  0.48433779  1
  O  O232  1  0.63504479  0.24374932  1.00833832  1
  O  O233  1  0.63002191  0.73956707  0.49179382  1
  O  O234  1  0.62615536  0.74255616  0.99366036  1
  O  O235  1  0.50157724  0.24901047  0.13960475  1
  O  O236  1  0.49421794  0.24032364  0.63012278  1
  O  O237  1  0.48907588  0.75672929  0.12370934  1
  O  O238  1  0.49205724  0.73956879  0.62965460  1
  O  O239  1  0.99219355  0.24041809  0.12865212  1
  O  O240  1  0.99616283  0.25008846  0.63983793  1
  O  O241  1  0.99346219  0.78503000  0.13259795  1
  O  O242  1  0.98408292  0.74672248  0.61436141  1
  O  O243  1  0.00885590  0.24770206  0.36579147  1
  O  O244  1  0.00065418  0.25223296  0.85804680  1
  O  O245  1  0.01842727  0.75166450  0.38463641  1
  O  O246  1  0.01584195  0.73913325  0.87380284  1
  O  O247  1  0.50559382  0.25154961  0.36943519  1
  O  O248  1  0.49728649  0.25957530  0.86260249  1
  O  O249  1  0.51071370  0.75520193  0.37828919  1
  O  O250  1  0.50452989  0.75485476  0.87029388  1
  O  O251  1  0.24386036  0.13008583  0.49309075  1
  O  O252  1  0.24796807  0.12033908  0.97852969  1
  O  O253  1  0.24120080  0.62868599  0.49876078  1
  O  O254  1  0.25072743  0.63356486  0.99767234  1
  O  O255  1  0.74556150  0.12038111  0.49128373  1
  O  O256  1  0.74230540  0.13375066  0.99786049  1
  O  O257  1  0.74345796  0.62917139  0.49521398  1
  O  O258  1  0.74087127  0.63480293  1.00107118  1
  O  O259  1  0.25332877  0.37681556  0.01794305  1
  O  O260  1  0.25347525  0.36711088  0.50884431  1
  O  O261  1  0.25665144  0.87018064  0.00644246  1
  O  O262  1  0.24990119  0.86609188  0.50031727  1
  O  O263  1  0.75743375  0.36939479  0.00187076  1
  O  O264  1  0.75634239  0.37721369  0.50742619  1
  O  O265  1  0.74018493  0.86411113  0.00747191  1
  O  O266  1  0.75406247  0.87384402  0.50507757  1
  O  O267  1  0.13199298  0.49542693  0.24834472  1
  O  O268  1  0.12018443  0.52541128  0.74724358  1
  O  O269  1  0.13739297  0.99460401  0.24566454  1
  O  O270  1  0.13071395  0.98365011  0.74720923  1
  O  O271  1  0.63574605  0.49887685  0.25340257  1
  O  O272  1  0.61607158  0.48984746  0.74495428  1
  O  O273  1  0.62896304  0.99523021  0.24326879  1
  O  O274  1  0.64009559  0.99950972  0.75733669  1
  O  O275  1  0.36327390  -0.00272896  0.26026302  1
  O  O276  1  0.36772405  0.00397287  0.75451317  1
  O  O277  1  0.37065720  0.50482113  0.25958836  1
  O  O278  1  0.37964715  0.51194937  0.76474004  1
  O  O279  1  0.86840707  0.00643225  0.25745939  1
  O  O280  1  0.86864617  0.00629663  0.75810042  1
  O  O281  1  0.87088550  0.50519503  0.26176836  1
  O  O282  1  0.87555781  0.51867244  0.74076835  1
  O  O283  1  0.12629337  0.36993225  0.36418505  1
  O  O284  1  0.13543911  0.39600294  0.86198073  1
  O  O285  1  0.13192939  0.86336922  0.36895757  1
  O  O286  1  0.13298622  0.86189679  0.86482298  1
  O  O287  1  0.61964761  0.36380979  0.37574989  1
  O  O288  1  0.61213204  0.37785223  0.86335835  1
  O  O289  1  0.62129817  0.86788951  0.36735530  1
  O  O290  1  0.61716002  0.86460177  0.87589327  1
  O  O291  1  0.37940059  0.12009634  0.12787665  1
  O  O292  1  0.38159524  0.13431183  0.62890559  1
  O  O293  1  0.37143410  0.63374436  0.13579712  1
  O  O294  1  0.37981932  0.63182501  0.63389149  1
  O  O295  1  0.87980719  0.13089430  0.12653869  1
  O  O296  1  0.87608544  0.12808765  0.63855719  1
  O  O297  1  0.87257904  0.62823835  0.14199478  1
  O  O298  1  0.87573633  0.63585039  0.62182379  1
  O  O299  1  0.24795706  0.26395601  0.13203145  1
  O  O300  1  0.25840139  0.25516739  0.62138240  1
  O  O301  1  0.25488003  0.75498805  0.11620918  1
  O  O302  1  0.26026906  0.74757505  0.60677145  1
  O  O303  1  0.75939316  0.24888844  0.11605574  1
  O  O304  1  0.75602089  0.26769260  0.62668184  1
  O  O305  1  0.74422535  0.76084910  0.11445257  1
  O  O306  1  0.75724608  0.75965004  0.61634908  1
  O  O307  1  0.24666022  0.24340657  0.37875928  1
  O  O308  1  0.24709744  0.23721080  0.86383650  1
  O  O309  1  0.24636310  0.74856060  0.38855990  1
  O  O310  1  0.25310638  0.74638053  0.88980137  1
  O  O311  1  0.74465384  0.23601697  0.36940185  1
  O  O312  1  0.75258837  0.24882720  0.88687018  1
  O  O313  1  0.73853532  0.74711685  0.38020558  1
  O  O314  1  0.74080909  0.74903909  0.88395585  1
  O  O315  1  -0.00352554  0.11912995  0.00942600  1
  O  O316  1  0.00873944  0.11578750  0.50219435  1
  O  O317  1  0.00060441  0.62940535  0.01424146  1
  O  O318  1  0.00456864  0.61961215  0.50414959  1
  O  O319  1  0.50156674  0.12605760  0.00828419  1
  O  O320  1  0.50873647  0.12098925  0.50939549  1
  O  O321  1  0.50915646  0.61475660  -0.00305109  1
  O  O322  1  0.50758635  0.62353824  0.50942661  1
  O  O323  1  0.49971119  0.37272313  0.48900719  1
  O  O324  1  0.50553163  0.38248788  0.98959141  1
  O  O325  1  0.50851431  0.87623572  0.48564953  1
  O  O326  1  0.49455831  0.88090551  0.99413655  1
  O  O327  1  0.99380645  0.38300051  0.49909707  1
  O  O328  1  0.98060751  0.37889881  1.00665275  1
  O  O329  1  0.99618586  0.88848974  0.50103419  1
  O  O330  1  1.00711366  0.88916692  0.99526226  1
  O  O331  1  0.49382505  0.48918771  0.37716099  1
  O  O332  1  0.49444870  0.49310546  0.88421383  1
  O  O333  1  0.49087659  0.99195225  0.37660585  1
  O  O334  1  0.49185957  0.99619789  0.88177823  1
  O  O335  1  0.99299070  0.49915442  0.38418622  1
  O  O336  1  0.99327607  0.52244406  0.89474062  1
  O  O337  1  0.98909192  1.00984870  0.38136648  1
  O  O338  1  0.98552169  1.00401624  0.87942250  1
  O  O339  1  0.00402852  0.00221730  0.11536510  1
  O  O340  1  0.00482120  0.00417938  0.61566860  1
  O  O341  1  0.01560843  0.49620504  0.13127677  1
  O  O342  1  -0.00902527  0.51153300  0.60818808  1
  O  O343  1  0.51055445  -0.00588814  0.12061742  1
  O  O344  1  0.49583110  0.01409649  0.62731394  1
  O  O345  1  0.49622081  0.49231001  0.11279946  1
  O  O346  1  0.49034769  0.51256457  0.62389964  1
  O  O347  1  0.24333332  0.38539512  0.24835067  1
  O  O348  1  0.25947439  0.37328587  0.73236676  1
  O  O349  1  0.24595602  0.88339303  0.24598414  1
  O  O350  1  0.23893047  0.88036231  0.75182340  1
  O  O351  1  0.74949770  0.38461973  0.25182743  1
  O  O352  1  0.73792038  0.37491575  0.74070397  1
  O  O353  1  0.73724180  0.88225394  0.24429780  1
  O  O354  1  0.74667694  0.88300573  0.73924591  1
  O  O355  1  0.24303168  0.11614633  0.26092546  1
  O  O356  1  0.25256231  0.11783599  0.75628134  1
  O  O357  1  0.25777229  0.61234257  0.25555356  1
  O  O358  1  0.26128136  0.63260946  0.76103760  1
  O  O359  1  0.75485436  0.11906472  0.25490546  1
  O  O360  1  0.75595884  0.11977875  0.75134676  1
  O  O361  1  0.75788303  0.61867338  0.25842726  1
  O  O362  1  0.76131467  0.62565543  0.73739617  1
  O  O363  1  0.36356892  0.11745220  0.38015762  1
  O  O364  1  0.36414063  0.11828217  0.86521149  1
  O  O365  1  0.37610134  0.61736671  0.36860006  1
  O  O366  1  0.36761358  0.62283703  0.86936979  1
  O  O367  1  0.86924849  0.11930865  0.36950502  1
  O  O368  1  0.87165014  0.12021862  0.86399866  1
  O  O369  1  0.86884752  0.61776718  0.37195145  1
  O  O370  1  0.86795761  0.64042361  0.84926448  1
  O  O371  1  0.13076708  0.38333958  0.13743407  1
  O  O372  1  0.13994804  0.37446439  0.62078531  1
  O  O373  1  0.13598279  0.88318687  0.13422924  1
  O  O374  1  0.12806292  0.86976824  0.63613419  1
  O  O375  1  0.63048919  0.38196500  0.13252341  1
  O  O376  1  0.63340309  0.37047799  0.62678727  1
  O  O377  1  0.62956848  0.88254812  0.13250258  1
  O  O378  1  0.63585139  0.86889018  0.62306922  1
  O  O379  1  0.12095195  0.25675015  0.25384826  1
  O  O380  1  0.10911005  0.25262856  0.75278416  1
  O  O381  1  0.13340103  0.75759966  0.26606410  1
  O  O382  1  0.12560479  0.75358844  0.75757502  1
  O  O383  1  0.61730623  0.24743841  0.26267569  1
  O  O384  1  0.61473930  0.25668389  0.74447898  1
  O  O385  1  0.63056432  0.75806083  0.25867563  1
  O  O386  1  0.61781617  0.75192771  0.75846899  1
  O  O387  1  0.39003102  0.24775975  0.25803204  1
  O  O388  1  0.38560512  0.24270394  0.74205350  1
  O  O389  1  0.36876200  0.73937619  0.24253539  1
  O  O390  1  0.37980062  0.74370529  0.74324116  1
  O  O391  1  0.87996340  0.24227753  0.24232250  1
  O  O392  1  0.88549815  0.24516809  0.75108506  1
  O  O393  1  0.87210816  0.73750074  0.26135859  1
  O  O394  1  0.87204072  0.74856094  0.73541105  1
  O  O395  1  0.37879718  0.50067990  0.48853618  1
  O  O396  1  0.38345829  0.50873078  0.98782700  1
  O  O397  1  0.37668741  1.00096206  0.48897492  1
  O  O398  1  0.38023692  0.99400180  0.99556285  1
  O  O399  1  0.87960457  0.49356444  0.48845177  1
  O  O400  1  0.86790764  0.48521771  1.01020608  1
  O  O401  1  0.88351284  0.99803586  0.49269353  1
  O  O402  1  0.88012782  1.00278139  0.98343416  1
  O  O403  1  0.11787187  0.00542932  0.00407586  1
  O  O404  1  0.11960000  0.00618930  0.50014091  1
  O  O405  1  0.12558453  0.50704806  0.02196302  1
  O  O406  1  0.11627433  0.51131772  0.49254947  1
  O  O407  1  0.61739310  0.00684255  0.00685615  1
  O  O408  1  0.62192498  0.01265361  0.49423541  1
  O  O409  1  0.61663254  0.50976980  0.00328050  1
  O  O410  1  0.62401170  0.51372461  0.49272566  1
  O  O411  1  0.36073655  0.37656950  0.13448292  1
  O  O412  1  0.37622345  0.36262221  0.62258988  1
  O  O413  1  0.37012908  0.86903379  0.12339582  1
  O  O414  1  0.38216554  0.86018012  0.62651455  1
  O  O415  1  0.87213770  0.36187815  0.12941402  1
  O  O416  1  0.86582725  0.37291717  0.61306124  1
  O  O417  1  0.85145887  0.89314951  0.12639381  1
  O  O418  1  0.86790197  0.87124643  0.61690620  1
  O  O419  1  0.13462968  0.12710454  0.38456664  1
  O  O420  1  0.13759340  0.11913365  0.87027863  1
  O  O421  1  0.12841184  0.63703742  0.38505874  1
  O  O422  1  0.14473748  0.63959674  0.87861152  1
  O  O423  1  0.63508529  0.12704730  0.38027786  1
  O  O424  1  0.62389793  0.12103801  0.89341991  1
  O  O425  1  0.62908637  0.63274146  0.38028419  1
  O  O426  1  0.62349155  0.63794906  0.88247343  1
