# generated using pymatgen
data_V85Zn86O256
_symmetry_space_group_name_H-M   'P 1'
_cell_length_a   16.94718148
_cell_length_b   16.96097056
_cell_length_c   16.95561851
_cell_angle_alpha   90.05332557
_cell_angle_beta   89.96769514
_cell_angle_gamma   89.95621501
_symmetry_Int_Tables_number   1
_chemical_formula_structural   V85Zn86O256
_chemical_formula_sum   'V85 Zn86 O256'
_cell_volume   4873.72962835
_cell_formula_units_Z   1
loop_
 _symmetry_equiv_pos_site_id
 _symmetry_equiv_pos_as_xyz
  1  'x, y, z'
loop_
 _atom_site_type_symbol
 _atom_site_label
 _atom_site_symmetry_multiplicity
 _atom_site_fract_x
 _atom_site_fract_y
 _atom_site_fract_z
 _atom_site_occupancy
  V  V0  1  0.24681187  0.24696742  0.00089019  1
  V  V1  1  0.12438642  0.74997724  0.37293795  1
  V  V2  1  0.62595673  0.37959604  0.25114061  1
  V  V3  1  0.88514930  0.37627188  0.00048395  1
  V  V4  1  0.24700715  0.11577614  0.87919803  1
  V  V5  1  0.86226443  0.12153676  0.25956529  1
  V  V6  1  0.12246078  0.37383101  0.24885900  1
  V  V7  1  0.37739246  0.62391922  0.24901851  1
  V  V8  1  0.89132529  0.50271039  0.87540596  1
  V  V9  1  0.37102954  0.24799473  0.62930054  1
  V  V10  1  0.50304843  0.12887695  0.12671236  1
  V  V11  1  0.51240552  0.75028429  0.25325990  1
  V  V12  1  0.74964921  0.00153892  0.73518610  1
  V  V13  1  0.24784054  0.00284987  0.24852584  1
  V  V14  1  0.75808312  0.88543734  0.12548885  1
  V  V15  1  0.37678018  0.87391823  0.50231870  1
  V  V16  1  0.49938562  0.25649465  0.25403085  1
  V  V17  1  0.86609443  0.50019575  0.37388244  1
  V  V18  1  0.50428324  0.00149069  0.50548069  1
  V  V19  1  0.12589995  0.63242501  0.00083775  1
  V  V20  1  0.62387113  0.88498267  0.74283008  1
  V  V21  1  0.74710188  0.37300610  0.62034146  1
  V  V22  1  -0.00094157  -0.00489990  0.00612439  1
  V  V23  1  0.87041447  0.76642431  0.61943255  1
  V  V24  1  0.24990589  0.12620033  0.37721293  1
  V  V25  1  0.50685218  0.87250068  0.37578715  1
  V  V26  1  0.38037813  -0.01678521  0.87695099  1
  V  V27  1  0.25183337  0.62216773  0.37062621  1
  V  V28  1  0.25195550  0.75103299  0.49610275  1
  V  V29  1  0.49902704  0.49346637  0.49049328  1
  V  V30  1  0.63322580  0.49873805  0.12437824  1
  V  V31  1  0.62400445  0.50182979  0.62392315  1
  V  V32  1  -0.00723917  0.87444669  0.87997114  1
  V  V33  1  -0.00696802  0.24777788  0.24722773  1
  V  V34  1  0.37714170  0.37803896  -0.01596737  1
  V  V35  1  0.75229338  0.62914084  0.87576972  1
  V  V36  1  0.76006290  0.75473348  0.00148879  1
  V  V37  1  0.62374073  0.36695717  0.76317944  1
  V  V38  1  -0.00219833  0.12700593  0.63707140  1
  V  V39  1  0.62414367  0.76372906  0.87745426  1
  V  V40  1  0.37299674  0.37177318  0.48649632  1
  V  V41  1  0.37925652  0.25189106  0.12146168  1
  V  V42  1  0.38018603  0.75209217  0.12644678  1
  V  V43  1  0.11928049  0.87877556  0.74967143  1
  V  V44  1  0.50132664  0.62058663  0.12381647  1
  V  V45  1  0.12069464  0.49522178  0.11346099  1
  V  V46  1  0.12332730  0.00129593  0.62271123  1
  V  V47  1  0.62881505  0.25024470  0.37450634  1
  V  V48  1  0.24922744  0.49864050  0.24570895  1
  V  V49  1  0.12255833  0.25080640  0.37817686  1
  V  V50  1  0.75371560  0.36706120  0.12810730  1
  V  V51  1  -0.01097556  -0.00194840  0.49989665  1
  V  V52  1  0.50195986  0.75040329  0.74480626  1
  V  V53  1  0.12215119  0.12441410  0.49955007  1
  V  V54  1  0.12325960  0.62160064  0.49511438  1
  V  V55  1  0.50065390  0.49674840  -0.01536249  1
  V  V56  1  0.62895711  0.13282546  -0.01170632  1
  V  V57  1  0.25110643  0.87769901  0.12666235  1
  V  V58  1  0.62817392  0.12613186  0.49728385  1
  V  V59  1  0.12321933  0.11488933  0.00731844  1
  V  V60  1  0.86532201  0.00641875  0.88451357  1
  V  V61  1  0.12053478  0.48198045  0.62896905  1
  V  V62  1  0.50528723  0.12443118  0.62853460  1
  V  V63  1  -0.00465402  0.12306019  0.12896316  1
  V  V64  1  0.29181905  0.42897373  0.67848626  1
  V  V65  1  -0.00300211  0.62563903  0.62137254  1
  V  V66  1  0.12323573  0.87954546  0.24769902  1
  V  V67  1  0.86794659  0.62096618  0.24838304  1
  V  V68  1  0.50475433  -0.00369475  0.00074700  1
  V  V69  1  0.61977694  0.62875987  0.49711279  1
  V  V70  1  0.25053497  0.37472810  0.12203025  1
  V  V71  1  0.25201989  -0.00727297  0.74956913  1
  V  V72  1  0.74284099  0.63273777  0.37197038  1
  V  V73  1  0.37765827  0.11933170  0.75314720  1
  V  V74  1  0.75372322  0.25039223  -0.01865002  1
  V  V75  1  -0.00306306  0.61959566  0.12317822  1
  V  V76  1  -0.00150080  0.75099954  0.75208853  1
  V  V77  1  -0.01051519  0.87525606  0.37840795  1
  V  V78  1  -0.00082612  0.74869169  0.24982507  1
  V  V79  1  0.37882504  0.00248039  0.37610639  1
  V  V80  1  0.63126397  0.88893832  0.25119977  1
  V  V81  1  0.75037028  0.50267537  0.75123478  1
  V  V82  1  0.11510547  0.24895388  0.86625259  1
  V  V83  1  0.87901205  0.25213488  0.62835392  1
  V  V84  1  -0.00230785  0.49220883  0.49503733  1
  Zn  Zn85  1  0.37583145  0.12706503  0.24946077  1
  Zn  Zn86  1  0.48789044  0.62199429  0.62822858  1
  Zn  Zn87  1  -0.00554793  0.37426764  0.37188858  1
  Zn  Zn88  1  0.87486389  0.62834369  0.74741108  1
  Zn  Zn89  1  0.62761483  0.62740088  0.00011182  1
  Zn  Zn90  1  0.25278089  0.74631216  0.00435154  1
  Zn  Zn91  1  0.24899462  0.87570766  0.62303953  1
  Zn  Zn92  1  0.85934435  -0.00238381  0.37664850  1
  Zn  Zn93  1  0.38582371  0.87349548  0.00532075  1
  Zn  Zn94  1  0.49901945  0.25053350  0.76551735  1
  Zn  Zn95  1  0.75644222  0.75712392  0.49772581  1
  Zn  Zn96  1  0.87062103  0.37234324  0.49645647  1
  Zn  Zn97  1  0.63176217  0.00893514  0.12729986  1
  Zn  Zn98  1  0.16713126  0.71575722  0.84123851  1
  Zn  Zn99  1  0.37100035  0.74567230  0.63096602  1
  Zn  Zn100  1  0.86681499  0.13194652  0.75809736  1
  Zn  Zn101  1  0.24273909  0.25629932  0.50759244  1
  Zn  Zn102  1  0.00378980  0.37643168  0.85882628  1
  Zn  Zn103  1  0.75246493  0.24472179  0.49638397  1
  Zn  Zn104  1  0.87615014  0.75226276  0.12270935  1
  Zn  Zn105  1  0.29691245  0.57458965  0.80050471  1
  Zn  Zn106  1  0.37963416  0.49391744  0.36602917  1
  Zn  Zn107  1  0.18356977  0.18568351  0.18754210  1
  Zn  Zn108  1  0.19259422  0.17997061  0.68880119  1
  Zn  Zn109  1  0.18762963  0.68712984  0.18345256  1
  Zn  Zn110  1  0.18480879  0.68581810  0.67251130  1
  Zn  Zn111  1  0.68520214  0.19549112  0.18051026  1
  Zn  Zn112  1  0.68991804  0.18665569  0.68771602  1
  Zn  Zn113  1  0.68898877  0.69003496  0.18583094  1
  Zn  Zn114  1  0.68572071  0.68955788  0.68765688  1
  Zn  Zn115  1  0.30876614  0.30932088  0.31002083  1
  Zn  Zn116  1  0.30648254  0.30243290  0.81487188  1
  Zn  Zn117  1  0.31727271  0.81343396  0.31182020  1
  Zn  Zn118  1  0.33760736  0.76458293  0.84291837  1
  Zn  Zn119  1  0.81101172  0.31058300  0.31048852  1
  Zn  Zn120  1  0.81974022  0.32076357  0.80817448  1
  Zn  Zn121  1  0.81065253  0.80918715  0.30816005  1
  Zn  Zn122  1  0.81266421  0.81891075  0.80924240  1
  Zn  Zn123  1  0.18896258  0.43521296  0.43756103  1
  Zn  Zn124  1  0.18645084  0.43477108  0.93078113  1
  Zn  Zn125  1  0.18488684  0.93788681  0.43472845  1
  Zn  Zn126  1  0.20458585  0.90112284  0.91840815  1
  Zn  Zn127  1  0.68599001  0.43934036  0.43402142  1
  Zn  Zn128  1  0.69668727  0.44283783  0.94212097  1
  Zn  Zn129  1  0.69224376  0.93032057  0.44988708  1
  Zn  Zn130  1  0.68779672  0.93951204  0.94466512  1
  Zn  Zn131  1  0.31575243  0.06007440  0.06364643  1
  Zn  Zn132  1  0.31299293  0.06434368  0.56323872  1
  Zn  Zn133  1  0.31214756  0.56657093  -0.04274597  1
  Zn  Zn134  1  0.31781646  0.56742106  0.55726307  1
  Zn  Zn135  1  0.81529298  0.07090464  0.06380044  1
  Zn  Zn136  1  0.81317415  0.06499317  0.56342451  1
  Zn  Zn137  1  0.81520760  0.56070986  0.05733122  1
  Zn  Zn138  1  0.80909866  0.56681896  0.55912700  1
  Zn  Zn139  1  0.43991726  0.43646229  0.17811824  1
  Zn  Zn140  1  0.45318910  0.43889730  0.69146993  1
  Zn  Zn141  1  0.44125905  0.94205783  0.18999694  1
  Zn  Zn142  1  0.44374398  0.93013535  0.68838825  1
  Zn  Zn143  1  0.93491583  0.43795310  0.18854903  1
  Zn  Zn144  1  0.93308322  0.44024915  0.68493219  1
  Zn  Zn145  1  0.93507033  0.94167161  0.19073049  1
  Zn  Zn146  1  0.93278606  0.94290630  0.69048257  1
  Zn  Zn147  1  0.05955195  0.06104162  0.31419354  1
  Zn  Zn148  1  0.06038889  0.05922021  0.81874004  1
  Zn  Zn149  1  0.05992773  0.55983252  0.30862428  1
  Zn  Zn150  1  0.08592679  0.57001919  0.80219291  1
  Zn  Zn151  1  0.68768232  0.06472406  0.31934715  1
  Zn  Zn152  1  0.56292301  0.06243101  0.81596148  1
  Zn  Zn153  1  0.56380092  0.55863659  0.31104163  1
  Zn  Zn154  1  0.56996090  0.57092080  0.81106447  1
  Zn  Zn155  1  0.44191552  0.18987714  0.43676415  1
  Zn  Zn156  1  0.43416780  0.17865895  0.93836221  1
  Zn  Zn157  1  0.44093375  0.68531677  0.43812957  1
  Zn  Zn158  1  0.44674439  0.68501006  0.93736933  1
  Zn  Zn159  1  0.93740273  0.18800595  0.44036239  1
  Zn  Zn160  1  0.93487455  0.18652107  0.94265351  1
  Zn  Zn161  1  0.93404687  0.68672694  0.43721190  1
  Zn  Zn162  1  0.94105116  0.68624208  0.93732487  1
  Zn  Zn163  1  0.06178299  0.30441474  0.06166236  1
  Zn  Zn164  1  0.06310328  0.30945598  0.68536845  1
  Zn  Zn165  1  0.05977512  0.81405993  0.06766988  1
  Zn  Zn166  1  0.06047389  0.81272313  0.56134414  1
  Zn  Zn167  1  0.56466352  0.31153280  -0.06153143  1
  Zn  Zn168  1  0.55826447  0.31066526  0.56628791  1
  Zn  Zn169  1  0.57223633  0.81383295  0.06665458  1
  Zn  Zn170  1  0.58545349  0.82242318  0.55628744  1
  O  O171  1  0.11165892  0.12507722  0.11950032  1
  O  O172  1  0.11746227  0.12039655  0.61990282  1
  O  O173  1  0.11652843  0.61559152  0.12155672  1
  O  O174  1  0.11251078  0.61633965  0.61219442  1
  O  O175  1  0.61762734  0.12836450  0.11691772  1
  O  O176  1  0.61007299  0.13402772  0.61901264  1
  O  O177  1  0.61685330  0.61899343  0.12560173  1
  O  O178  1  0.62680921  0.61300742  0.61770917  1
  O  O179  1  0.37560637  0.37151120  0.38399376  1
  O  O180  1  0.36831339  0.36771108  0.88564764  1
  O  O181  1  0.38028052  0.88189409  0.38438725  1
  O  O182  1  0.37463762  0.88120572  0.88342747  1
  O  O183  1  0.87251312  0.38480808  0.37555241  1
  O  O184  1  0.88174485  0.38508206  0.88114949  1
  O  O185  1  0.88663060  0.87491213  0.36735516  1
  O  O186  1  0.88610596  0.88827682  0.87130659  1
  O  O187  1  0.25892951  0.00411946  0.36849153  1
  O  O188  1  0.25632935  -0.00407857  0.86841217  1
  O  O189  1  0.25158764  0.50302459  0.36288022  1
  O  O190  1  0.25539448  0.50366366  0.88164892  1
  O  O191  1  0.74718549  -0.00586640  0.38137651  1
  O  O192  1  0.76446058  -0.00356049  0.87964139  1
  O  O193  1  0.76074959  0.51169218  0.38072218  1
  O  O194  1  0.75633966  0.51063075  0.86799613  1
  O  O195  1  0.23708256  0.48908082  0.13373773  1
  O  O196  1  0.23662631  0.49545824  0.61718297  1
  O  O197  1  0.25752250  0.99526864  0.14190368  1
  O  O198  1  0.24408784  0.99895738  0.63200659  1
  O  O199  1  0.73771912  0.49454581  0.11371732  1
  O  O200  1  0.74482207  0.49562747  0.63130298  1
  O  O201  1  0.75271432  0.98894385  0.12053551  1
  O  O202  1  0.75496699  0.99662360  0.63676676  1
  O  O203  1  0.00246279  0.36517119  0.25026978  1
  O  O204  1  -0.00642751  0.37108135  0.74625412  1
  O  O205  1  0.00730447  0.87200093  0.25536415  1
  O  O206  1  0.00162628  0.87185525  0.75438429  1
  O  O207  1  0.51072811  0.36462481  0.23773870  1
  O  O208  1  0.51888143  0.37372264  0.75421570  1
  O  O209  1  0.50739782  0.87076925  0.25615203  1
  O  O210  1  0.51566288  0.87034919  0.75815254  1
  O  O211  1  0.49794455  0.14100209  0.23388874  1
  O  O212  1  0.49495295  0.12329324  0.74415945  1
  O  O213  1  0.49872713  0.63226437  0.24574458  1
  O  O214  1  0.51208860  0.64471183  0.74524686  1
  O  O215  1  0.99534273  0.12959833  0.24633872  1
  O  O216  1  0.99599678  0.11474837  0.73898795  1
  O  O217  1  0.99374716  0.62926706  0.24127050  1
  O  O218  1  1.00353659  0.63561856  0.73988401  1
  O  O219  1  0.36662751  0.25401126  0.00607807  1
  O  O220  1  0.37710728  0.26103700  0.50809021  1
  O  O221  1  0.37893893  0.75344640  0.01535760  1
  O  O222  1  0.36787149  0.75784585  0.49734356  1
  O  O223  1  0.86385020  0.25909135  -0.00282053  1
  O  O224  1  0.87132863  0.25142104  0.51052774  1
  O  O225  1  0.86399421  0.74789866  0.00044060  1
  O  O226  1  0.87546620  0.74933513  0.51424402  1
  O  O227  1  0.12532414  0.24262863  0.48471456  1
  O  O228  1  0.12906073  0.23559661  0.99454660  1
  O  O229  1  0.13141711  0.74476032  0.49270740  1
  O  O230  1  0.12599822  0.73601686  1.01442014  1
  O  O231  1  0.61873369  0.24494275  0.49087971  1
  O  O232  1  0.64244617  0.24830943  0.99746570  1
  O  O233  1  0.59470798  0.72503998  0.49548112  1
  O  O234  1  0.63550335  0.74928492  0.99295590  1
  O  O235  1  0.48571461  0.24642358  0.12663934  1
  O  O236  1  0.48755499  0.24352297  0.63268735  1
  O  O237  1  0.49922486  0.74473109  0.13201692  1
  O  O238  1  0.50836130  0.75498530  0.63945461  1
  O  O239  1  1.00390122  0.23998667  0.13954730  1
  O  O240  1  0.99266454  0.23822061  0.62380761  1
  O  O241  1  0.99588252  0.74292292  0.13409333  1
  O  O242  1  0.99161509  0.74393166  0.62839135  1
  O  O243  1  0.00616788  0.24979447  0.36625468  1
  O  O244  1  0.01342275  0.24311819  0.87729147  1
  O  O245  1  0.00389900  0.75614338  0.37060568  1
  O  O246  1  -0.00637842  0.75963382  0.86451802  1
  O  O247  1  0.50821615  0.24885229  0.36177374  1
  O  O248  1  0.49762981  0.24647761  0.87832212  1
  O  O249  1  0.48971268  0.76114845  0.36387940  1
  O  O250  1  0.51507468  0.74573214  0.86514672  1
  O  O251  1  0.24126565  0.12558357  0.49333025  1
  O  O252  1  0.24141405  0.12429642  0.99919649  1
  O  O253  1  0.24474289  0.63177820  0.48980404  1
  O  O254  1  0.23119565  0.62907443  1.01163793  1
  O  O255  1  0.73183015  0.12552727  0.50985237  1
  O  O256  1  0.74568160  0.14312529  1.00605742  1
  O  O257  1  0.73744512  0.63169797  0.49315144  1
  O  O258  1  0.74953929  0.63377455  0.99214781  1
  O  O259  1  0.25470812  0.36743621  0.00617810  1
  O  O260  1  0.26636909  0.37249965  0.49831697  1
  O  O261  1  0.25230568  0.88270248  0.02187424  1
  O  O262  1  0.25739784  0.86838419  0.49690848  1
  O  O263  1  0.75759090  0.36645996  0.00563228  1
  O  O264  1  0.74600635  0.37640521  0.51180696  1
  O  O265  1  0.74674617  0.86895835  0.01661100  1
  O  O266  1  0.69337815  0.84610880  0.51684540  1
  O  O267  1  0.12902850  0.49134408  0.24340862  1
  O  O268  1  0.12006280  0.49102830  0.72847352  1
  O  O269  1  0.13536610  0.99104582  0.25845441  1
  O  O270  1  0.12999248  0.99783076  0.74348388  1
  O  O271  1  0.61913802  0.49082466  0.23765423  1
  O  O272  1  0.63374897  0.49536284  0.74444421  1
  O  O273  1  0.62564195  0.99234971  0.24828199  1
  O  O274  1  0.63706477  0.99229669  0.76237733  1
  O  O275  1  0.36941859  0.00316531  0.26085746  1
  O  O276  1  0.36970305  -0.00357098  0.75718096  1
  O  O277  1  0.36967781  0.50401791  0.24544847  1
  O  O278  1  0.35466748  0.49022774  0.73356244  1
  O  O279  1  0.87818613  0.01732400  0.25636452  1
  O  O280  1  0.86064271  0.00113523  0.76047524  1
  O  O281  1  0.87845180  0.51275871  0.25857997  1
  O  O282  1  0.86212722  0.50320149  0.75506846  1
  O  O283  1  0.12227717  0.36638302  0.36867396  1
  O  O284  1  0.11971463  0.35365365  0.88311542  1
  O  O285  1  0.11892134  0.86854276  0.36489945  1
  O  O286  1  0.10763218  0.88526408  0.85794348  1
  O  O287  1  0.62946546  0.37294434  0.35843932  1
  O  O288  1  0.63320026  0.37962562  0.86579363  1
  O  O289  1  0.61066428  0.87789715  0.36644595  1
  O  O290  1  0.63139148  0.86637580  0.87378158  1
  O  O291  1  0.38112157  0.13442396  0.12513402  1
  O  O292  1  0.38302392  0.13057644  0.63105343  1
  O  O293  1  0.39179240  0.63436556  0.13238284  1
  O  O294  1  0.37330872  0.63200974  0.62751356  1
  O  O295  1  0.88737704  0.12214506  0.13895145  1
  O  O296  1  0.88248739  0.13266252  0.62734982  1
  O  O297  1  0.87981535  0.62253944  0.13150728  1
  O  O298  1  0.88846378  0.62342703  0.62564270  1
  O  O299  1  0.25682738  0.25347717  0.12188226  1
  O  O300  1  0.26468205  0.24029244  0.62283637  1
  O  O301  1  0.26202549  0.75956673  0.12892562  1
  O  O302  1  0.24809021  0.75509711  0.60848893  1
  O  O303  1  0.75185594  0.26587102  0.11731682  1
  O  O304  1  0.75361179  0.25891269  0.62071492  1
  O  O305  1  0.75207177  0.75781356  0.11657029  1
  O  O306  1  0.77010894  0.74278127  0.62914366  1
  O  O307  1  0.24144349  0.24214656  0.37551916  1
  O  O308  1  0.23848912  0.23658594  0.88232919  1
  O  O309  1  0.24698328  0.74637373  0.38094234  1
  O  O310  1  0.23854033  0.78513360  0.89356642  1
  O  O311  1  0.73498528  0.25578651  0.37853518  1
  O  O312  1  0.75639174  0.25524779  0.88269278  1
  O  O313  1  0.75497316  0.73714571  0.37869922  1
  O  O314  1  0.74919353  0.74762458  0.88023900  1
  O  O315  1  0.00263300  0.11906281  0.01118821  1
  O  O316  1  0.00595071  0.11607319  0.50595173  1
  O  O317  1  0.00527864  0.62962511  0.01683408  1
  O  O318  1  0.00372056  0.61775687  0.50306783  1
  O  O319  1  0.50724399  0.11939927  0.01042700  1
  O  O320  1  0.50390583  0.11961729  0.50759029  1
  O  O321  1  0.50456770  0.61538818  0.00842148  1
  O  O322  1  0.49913756  0.60798619  0.50271883  1
  O  O323  1  0.48350705  0.38112655  0.51021469  1
  O  O324  1  0.49437127  0.38887787  0.99508723  1
  O  O325  1  0.49578156  0.88174203  0.49457788  1
  O  O326  1  0.50538739  0.89201646  1.01246749  1
  O  O327  1  0.99466162  0.39036191  0.49384334  1
  O  O328  1  0.98696856  0.36736770  1.00137950  1
  O  O329  1  1.00678084  0.88436429  0.48889415  1
  O  O330  1  1.00630183  0.88221482  0.99253359  1
  O  O331  1  0.49866732  0.49714219  0.38581078  1
  O  O332  1  0.50547034  0.51184975  0.88620446  1
  O  O333  1  0.48524881  0.99131908  0.38472976  1
  O  O334  1  0.49135363  1.00521452  0.88754823  1
  O  O335  1  0.98796843  0.50237919  0.37987959  1
  O  O336  1  0.99240493  0.50445549  0.86280597  1
  O  O337  1  0.99908004  0.99068708  0.38388565  1
  O  O338  1  0.99033623  0.99458767  0.88632701  1
  O  O339  1  -0.00367917  0.00277804  0.11349003  1
  O  O340  1  0.00228872  0.00518282  0.61767769  1
  O  O341  1  0.00920217  0.50728722  0.13246580  1
  O  O342  1  0.00621557  0.50558953  0.61478126  1
  O  O343  1  0.50098301  0.01332653  0.12106137  1
  O  O344  1  0.48997002  0.01022451  0.61596521  1
  O  O345  1  0.50997493  0.50688343  0.11575719  1
  O  O346  1  0.50980723  0.50262444  0.61780589  1
  O  O347  1  0.24334374  0.37822680  0.24249422  1
  O  O348  1  0.24421368  0.36925704  0.74122942  1
  O  O349  1  0.24515683  0.88169794  0.24593533  1
  O  O350  1  0.23722969  0.88566358  0.74630084  1
  O  O351  1  0.74598251  0.37221772  0.23574770  1
  O  O352  1  0.74160615  0.38346153  0.74124301  1
  O  O353  1  0.74132464  0.86821089  0.23833173  1
  O  O354  1  0.73798678  0.88823547  0.75504033  1
  O  O355  1  0.25081316  0.11815613  0.25718913  1
  O  O356  1  0.25586172  0.10841897  0.75658095  1
  O  O357  1  0.25596602  0.61858516  0.25057820  1
  O  O358  1  0.20423985  0.63281861  0.76831419  1
  O  O359  1  0.75826894  0.12947475  0.24641915  1
  O  O360  1  0.74706380  0.10769687  0.74793829  1
  O  O361  1  0.75630932  0.62847595  0.25657827  1
  O  O362  1  0.75093158  0.61919070  0.75653551  1
  O  O363  1  0.36998937  0.11859427  0.37590832  1
  O  O364  1  0.36471684  0.11026157  0.87105540  1
  O  O365  1  0.36922325  0.62125884  0.36674693  1
  O  O366  1  0.35655095  0.64817279  0.87715288  1
  O  O367  1  0.87564904  0.12426135  0.36294978  1
  O  O368  1  0.88092250  0.11039159  0.87318705  1
  O  O369  1  0.86701425  0.61998484  0.36767142  1
  O  O370  1  0.86842815  0.62076549  0.87166184  1
  O  O371  1  0.12749402  0.37841785  0.12691454  1
  O  O372  1  0.12159550  0.38342884  0.61430218  1
  O  O373  1  0.13339440  0.87046764  0.14053701  1
  O  O374  1  0.12165669  0.88350107  0.63338459  1
  O  O375  1  0.64082264  0.38338532  0.13259945  1
  O  O376  1  0.62894370  0.38452847  0.63263768  1
  O  O377  1  0.63695157  0.88121411  0.13503381  1
  O  O378  1  0.61552801  0.89018767  0.64566572  1
  O  O379  1  0.11758319  0.25382500  0.25903036  1
  O  O380  1  0.12692853  0.24233663  0.76134873  1
  O  O381  1  0.11968575  0.75534813  0.25488030  1
  O  O382  1  0.11214969  0.76314408  0.74364724  1
  O  O383  1  0.61865895  0.25740909  0.25459355  1
  O  O384  1  0.62781550  0.26559285  0.74819375  1
  O  O385  1  0.61510291  0.75915695  0.24687422  1
  O  O386  1  0.62450982  0.76475141  0.75561082  1
  O  O387  1  0.38196851  0.25175775  0.24181942  1
  O  O388  1  0.37446304  0.23863427  0.74553446  1
  O  O389  1  0.38493457  0.74668595  0.24135291  1
  O  O390  1  0.39720515  0.76691027  0.74731343  1
  O  O391  1  0.88294931  0.23706428  0.25519123  1
  O  O392  1  0.86575802  0.24718789  0.73454075  1
  O  O393  1  0.88174182  0.73614049  0.24905028  1
  O  O394  1  0.88438596  0.75084421  0.73981383  1
  O  O395  1  0.37935947  0.48652723  0.49598121  1
  O  O396  1  0.39141765  0.49261288  1.00166059  1
  O  O397  1  0.37883969  0.99348221  0.49495251  1
  O  O398  1  0.38489880  0.99836034  0.99390264  1
  O  O399  1  0.88062400  0.50265081  0.49111334  1
  O  O400  1  0.87246147  0.49071204  0.98625205  1
  O  O401  1  0.88560047  1.00394336  0.49710623  1
  O  O402  1  0.88152394  1.00463930  0.99157772  1
  O  O403  1  0.11419187  0.01233949  -0.00658913  1
  O  O404  1  0.11805830  0.00495499  0.50470852  1
  O  O405  1  0.12489701  0.50752079  0.01086038  1
  O  O406  1  0.11662657  0.50370371  0.50089761  1
  O  O407  1  0.62064392  0.01175672  0.00448316  1
  O  O408  1  0.60851273  0.01019866  0.49537073  1
  O  O409  1  0.61625494  0.50136447  0.00514879  1
  O  O410  1  0.61671773  0.50157171  0.50653969  1
  O  O411  1  0.36938684  0.36793549  0.11444234  1
  O  O412  1  0.36791637  0.37198632  0.62896166  1
  O  O413  1  0.37023731  0.86903556  0.13052665  1
  O  O414  1  0.37409378  0.87175821  0.61141988  1
  O  O415  1  0.86021949  0.38857948  0.11660593  1
  O  O416  1  0.86384846  0.36993240  0.62030837  1
  O  O417  1  0.86186244  0.87187082  0.13500523  1
  O  O418  1  0.87766023  0.86506651  0.62461856  1
  O  O419  1  0.12905067  0.13040097  0.37879959  1
  O  O420  1  0.12840917  0.12970679  0.88225663  1
  O  O421  1  0.13059255  0.62979937  0.37557817  1
  O  O422  1  0.10738074  0.63034601  0.89839268  1
  O  O423  1  0.62288698  0.13686756  0.38411399  1
  O  O424  1  0.62411193  0.12538818  0.88928075  1
  O  O425  1  0.63395184  0.61422862  0.38199681  1
  O  O426  1  0.64117740  0.63686859  0.87560332  1
