# generated using pymatgen
data_V85Zn86O256
_symmetry_space_group_name_H-M   'P 1'
_cell_length_a   16.93088898
_cell_length_b   16.93617443
_cell_length_c   16.93844648
_cell_angle_alpha   89.87430701
_cell_angle_beta   90.05229175
_cell_angle_gamma   90.04587138
_symmetry_Int_Tables_number   1
_chemical_formula_structural   V85Zn86O256
_chemical_formula_sum   'V85 Zn86 O256'
_cell_volume   4856.99092375
_cell_formula_units_Z   1
loop_
 _symmetry_equiv_pos_site_id
 _symmetry_equiv_pos_as_xyz
  1  'x, y, z'
loop_
 _atom_site_type_symbol
 _atom_site_label
 _atom_site_symmetry_multiplicity
 _atom_site_fract_x
 _atom_site_fract_y
 _atom_site_fract_z
 _atom_site_occupancy
  V  V0  1  0.49757588  0.37298968  0.87506946  1
  V  V1  1  0.12249278  0.62377326  0.49901395  1
  V  V2  1  0.75664311  0.12029137  0.86842061  1
  V  V3  1  0.24677652  0.62483840  0.87524172  1
  V  V4  1  0.11933663  0.49937167  0.62232585  1
  V  V5  1  0.74923293  0.12206002  0.37736731  1
  V  V6  1  0.48862212  0.24854879  0.74647655  1
  V  V7  1  0.24742095  0.49999075  0.75158522  1
  V  V8  1  0.24613041  0.12202739  0.38127320  1
  V  V9  1  0.87145633  0.12350905  0.25591272  1
  V  V10  1  0.12143137  0.88452695  0.75180826  1
  V  V11  1  0.87445277  0.25462931  0.11993648  1
  V  V12  1  0.12538957  0.24740602  0.38211533  1
  V  V13  1  0.24656618  -0.00856580  0.25260862  1
  V  V14  1  0.49978647  0.87679209  0.88159907  1
  V  V15  1  0.62584377  0.88298645  0.23932198  1
  V  V16  1  0.87341599  0.62955119  0.74405741  1
  V  V17  1  -0.00666222  0.36704374  0.87643445  1
  V  V18  1  0.74771460  0.62687476  0.38061950  1
  V  V19  1  0.62163222  0.88086082  0.74078744  1
  V  V20  1  0.13083867  0.12409287  0.00443217  1
  V  V21  1  -0.01555619  -0.00667018  -0.00426920  1
  V  V22  1  0.00898950  0.12784435  0.62493850  1
  V  V23  1  0.37263306  0.35451421  0.00267916  1
  V  V24  1  0.37815215  0.62198828  0.25373476  1
  V  V25  1  0.61632701  0.25202771  0.37578983  1
  V  V26  1  0.50258331  0.75188939  0.24981190  1
  V  V27  1  0.49730663  0.63145235  0.61826772  1
  V  V28  1  0.49220222  0.12698741  0.62569895  1
  V  V29  1  0.87760072  0.87237436  0.49311547  1
  V  V30  1  0.74716203  0.50092278  0.74729335  1
  V  V31  1  -0.00498825  0.62651230  0.61780357  1
  V  V32  1  0.75507935  0.87024700  0.62123990  1
  V  V33  1  0.62484773  0.62403479  -0.00230168  1
  V  V34  1  0.74400519  0.00464562  0.23930413  1
  V  V35  1  0.36724677  -0.00682632  0.87798554  1
  V  V36  1  0.61677633  0.37221175  0.24861741  1
  V  V37  1  -0.00054162  0.12490094  0.12581161  1
  V  V38  1  0.88275499  0.12242135  0.74829863  1
  V  V39  1  0.24994926  0.12357791  0.87132918  1
  V  V40  1  0.50244575  0.87578417  0.37595332  1
  V  V41  1  0.62391177  0.75442360  0.86952555  1
  V  V42  1  0.25444757  0.61952030  0.37747051  1
  V  V43  1  0.62622372  0.12322831  0.50702421  1
  V  V44  1  0.25168192  0.49959810  0.24679080  1
  V  V45  1  0.12740067  0.75266346  0.36770762  1
  V  V46  1  0.62664588  0.50057726  0.12426368  1
  V  V47  1  0.12283825  0.62515800  -0.00211391  1
  V  V48  1  0.62304355  0.37514649  0.74578617  1
  V  V49  1  0.87337598  0.49602776  0.87437947  1
  V  V50  1  0.87750058  0.25093788  0.62575099  1
  V  V51  1  0.37470677  0.86719953  0.50639147  1
  V  V52  1  0.75532872  0.37787283  0.11366233  1
  V  V53  1  0.74782379  0.62500237  0.87360155  1
  V  V54  1  0.37311529  0.49858835  0.87930310  1
  V  V55  1  0.37638544  0.00051969  0.37542285  1
  V  V56  1  0.49831134  0.62486084  0.12336207  1
  V  V57  1  0.25336859  0.87370121  0.63527144  1
  V  V58  1  0.25526928  0.24374697  0.50706608  1
  V  V59  1  -0.00189942  0.62643338  0.12475565  1
  V  V60  1  0.25714447  0.37188129  0.62775766  1
  V  V61  1  -0.00709786  0.49541697  0.00017134  1
  V  V62  1  0.75140753  0.76195309  0.00600613  1
  V  V63  1  0.50415107  -0.00168717  0.50929712  1
  V  V64  1  0.37912146  0.13697236  0.24458880  1
  V  V65  1  0.74919523  0.00138739  0.73989665  1
  V  V66  1  0.00276804  0.00683168  0.49709532  1
  V  V67  1  0.75335113  0.49747610  0.25091036  1
  V  V68  1  -0.00027511  0.25062866  0.25282573  1
  V  V69  1  -0.00134414  0.75304211  0.74603786  1
  V  V70  1  0.37332837  0.63367366  0.74708531  1
  V  V71  1  0.12282838  -0.01089109  0.12862122  1
  V  V72  1  0.62021898  0.50284759  0.61447495  1
  V  V73  1  0.37398184  0.38146976  0.49224011  1
  V  V74  1  0.62753572  0.24696711  0.87456957  1
  V  V75  1  0.25177961  0.36001795  0.12259568  1
  V  V76  1  0.87892271  0.62799235  0.25107180  1
  V  V77  1  0.11911835  0.36955262  0.75138352  1
  V  V78  1  0.00272927  0.37834030  0.38250691  1
  V  V79  1  0.63108002  0.75052144  0.37951202  1
  V  V80  1  0.00512696  0.87862061  0.37035415  1
  V  V81  1  0.88069068  0.49903123  0.38377916  1
  V  V82  1  0.25428140  0.75786347  0.00089802  1
  V  V83  1  0.12865380  0.25064363  0.88184826  1
  V  V84  1  0.63091250  0.10168767  -0.00023067  1
  Zn  Zn85  1  0.12008097  0.75438996  0.87467220  1
  Zn  Zn86  1  0.38001829  0.75747261  0.12059535  1
  Zn  Zn87  1  0.87653736  0.37570015  0.50345565  1
  Zn  Zn88  1  0.75130833  0.37506884  0.62150565  1
  Zn  Zn89  1  0.49773544  0.49665619  0.00104683  1
  Zn  Zn90  1  0.12547413  0.49705908  0.12436151  1
  Zn  Zn91  1  0.50278028  0.12490560  0.12702189  1
  Zn  Zn92  1  0.13102942  0.00418588  0.62444164  1
  Zn  Zn93  1  0.25268491  0.74791582  0.50513610  1
  Zn  Zn94  1  0.75042359  0.25388999  0.50025008  1
  Zn  Zn95  1  0.49446627  0.75462881  0.74589075  1
  Zn  Zn96  1  -0.01677487  0.87523605  0.87482143  1
  Zn  Zn97  1  0.12692903  0.37420891  0.24980903  1
  Zn  Zn98  1  0.49749894  -0.00745575  0.00981721  1
  Zn  Zn99  1  0.36708571  0.12125905  0.74710473  1
  Zn  Zn100  1  0.49292866  0.38015410  0.36661367  1
  Zn  Zn101  1  0.25446319  0.87513254  0.12794891  1
  Zn  Zn102  1  0.00461917  0.76106377  0.24343375  1
  Zn  Zn103  1  0.75451244  0.74664196  0.50170593  1
  Zn  Zn104  1  0.75635733  0.25313231  -0.00759188  1
  Zn  Zn105  1  0.88058149  0.77007603  0.11057455  1
  Zn  Zn106  1  0.49565783  0.50570629  0.49047993  1
  Zn  Zn107  1  0.18746347  0.18050810  0.19530995  1
  Zn  Zn108  1  0.18471586  0.19083216  0.69181422  1
  Zn  Zn109  1  0.18718639  0.68527084  0.18563252  1
  Zn  Zn110  1  0.18460020  0.69362532  0.68726253  1
  Zn  Zn111  1  0.65946733  0.20298940  0.16952847  1
  Zn  Zn112  1  0.68615715  0.18945110  0.68400755  1
  Zn  Zn113  1  0.68732315  0.68863920  0.19100937  1
  Zn  Zn114  1  0.68294873  0.68878922  0.68306505  1
  Zn  Zn115  1  0.30834771  0.31131771  0.31393915  1
  Zn  Zn116  1  0.30808447  0.30988256  0.81579909  1
  Zn  Zn117  1  0.31545701  0.80940312  0.31327217  1
  Zn  Zn118  1  0.30865746  0.81443322  0.81716829  1
  Zn  Zn119  1  0.80858423  0.30953054  0.31316855  1
  Zn  Zn120  1  0.81361570  0.30967253  0.80383974  1
  Zn  Zn121  1  0.82904672  0.83111326  0.28580463  1
  Zn  Zn122  1  0.80955391  0.80956595  0.80720098  1
  Zn  Zn123  1  0.18816785  0.43852520  0.43868568  1
  Zn  Zn124  1  0.18622849  0.43632925  0.94317762  1
  Zn  Zn125  1  0.18704607  0.93586150  0.44492370  1
  Zn  Zn126  1  0.17943123  0.93954053  0.93597880  1
  Zn  Zn127  1  0.68897358  0.43527470  0.43650525  1
  Zn  Zn128  1  0.68467080  0.43766188  0.93506838  1
  Zn  Zn129  1  0.68873245  0.93915716  0.43355713  1
  Zn  Zn130  1  0.80527905  0.93906160  0.93607748  1
  Zn  Zn131  1  0.31449551  0.06063450  0.06362990  1
  Zn  Zn132  1  0.31313336  0.05564562  0.56395027  1
  Zn  Zn133  1  0.31215916  0.56217753  0.06374098  1
  Zn  Zn134  1  0.31036701  0.56129614  0.56545257  1
  Zn  Zn135  1  0.80727756  0.07230881  0.06681767  1
  Zn  Zn136  1  0.81770066  0.05875943  0.56090056  1
  Zn  Zn137  1  0.81399788  0.56823373  0.06155912  1
  Zn  Zn138  1  0.81077135  0.55985603  0.56139426  1
  Zn  Zn139  1  0.43327726  0.43805320  0.18424052  1
  Zn  Zn140  1  0.43641152  0.44242984  0.68733481  1
  Zn  Zn141  1  0.43756286  0.94158427  0.18233668  1
  Zn  Zn142  1  0.43305246  0.94124125  0.69283953  1
  Zn  Zn143  1  0.93927659  0.43716056  0.19210033  1
  Zn  Zn144  1  0.93858172  0.43888714  0.68960006  1
  Zn  Zn145  1  0.93412070  0.94353229  0.18913188  1
  Zn  Zn146  1  0.93489158  0.93989624  0.68161485  1
  Zn  Zn147  1  0.06322972  0.06289055  0.31422492  1
  Zn  Zn148  1  0.05988187  0.06339483  0.81541067  1
  Zn  Zn149  1  0.06606392  0.56122358  0.31149468  1
  Zn  Zn150  1  0.05903439  0.56072551  0.81138533  1
  Zn  Zn151  1  0.56208514  0.06387690  0.31509863  1
  Zn  Zn152  1  0.56222270  0.05900316  0.81418568  1
  Zn  Zn153  1  0.56394824  0.55970136  0.31551318  1
  Zn  Zn154  1  0.55788274  0.56268499  0.80852651  1
  Zn  Zn155  1  0.43478568  0.19002867  0.43794765  1
  Zn  Zn156  1  0.44343653  0.17845181  0.93529834  1
  Zn  Zn157  1  0.43862218  0.68814538  0.43407118  1
  Zn  Zn158  1  0.43708464  0.68782158  0.93504858  1
  Zn  Zn159  1  0.93589215  0.18820214  0.44045665  1
  Zn  Zn160  1  0.94012226  0.18434729  0.93825577  1
  Zn  Zn161  1  0.93802559  0.69240786  0.43446822  1
  Zn  Zn162  1  0.93334674  0.68847599  0.93280279  1
  Zn  Zn163  1  0.06393082  0.31271648  0.06322140  1
  Zn  Zn164  1  0.06438785  0.30917692  0.56215208  1
  Zn  Zn165  1  0.06439140  0.81268657  0.06030179  1
  Zn  Zn166  1  0.06515064  0.81186658  0.56266590  1
  Zn  Zn167  1  0.55966368  0.30699467  0.06068226  1
  Zn  Zn168  1  0.55912229  0.31006932  0.56197770  1
  Zn  Zn169  1  0.56811299  0.81144162  0.06115746  1
  Zn  Zn170  1  0.56577377  0.81060615  0.56220960  1
  O  O171  1  0.11875008  0.11965536  0.12011082  1
  O  O172  1  0.11354139  0.12487999  0.63059076  1
  O  O173  1  0.11370256  0.62251855  0.11691888  1
  O  O174  1  0.11960751  0.61900596  0.61912090  1
  O  O175  1  0.65066983  0.11250781  0.09952263  1
  O  O176  1  0.61476613  0.12869162  0.61242171  1
  O  O177  1  0.61865586  0.61927779  0.12110161  1
  O  O178  1  0.60823676  0.61641259  0.63025441  1
  O  O179  1  0.37202719  0.37291352  0.38834799  1
  O  O180  1  0.37564723  0.37969125  0.88278001  1
  O  O181  1  0.38181134  0.88127811  0.38247516  1
  O  O182  1  0.38158048  0.88477712  0.87247287  1
  O  O183  1  0.88331950  0.38189499  0.37277247  1
  O  O184  1  0.88260715  0.38080058  0.86630698  1
  O  O185  1  0.88710278  0.87433825  0.38459417  1
  O  O186  1  0.87018952  0.87608889  0.87097138  1
  O  O187  1  0.25419999  0.00516917  0.37550067  1
  O  O188  1  0.25865255  0.00516466  0.87991021  1
  O  O189  1  0.24537399  0.51218382  0.36696662  1
  O  O190  1  0.25381278  0.50410136  0.87232023  1
  O  O191  1  0.74485014  0.01815617  0.36973525  1
  O  O192  1  0.75436843  0.01401002  0.86015013  1
  O  O193  1  0.75690625  0.50592100  0.36725220  1
  O  O194  1  0.75278275  0.50472325  0.86729545  1
  O  O195  1  0.24819854  0.49368233  0.13234928  1
  O  O196  1  0.23781515  0.49304481  0.63149363  1
  O  O197  1  0.24149652  0.99999375  0.13491086  1
  O  O198  1  0.24661820  0.98250798  0.62165602  1
  O  O199  1  0.75007381  0.49651579  0.13123297  1
  O  O200  1  0.73854387  0.50138378  0.63094128  1
  O  O201  1  0.75611984  0.99979039  0.14147851  1
  O  O202  1  0.75187579  0.99100066  0.63252187  1
  O  O203  1  0.00397375  0.36676798  0.26011815  1
  O  O204  1  0.00987880  0.38251122  0.76280432  1
  O  O205  1  0.00487438  0.88183426  0.26710299  1
  O  O206  1  0.00268006  0.86796740  0.74570204  1
  O  O207  1  0.51286753  0.37976667  0.24477797  1
  O  O208  1  0.50267609  0.36828260  0.75377472  1
  O  O209  1  0.50764911  0.87283088  0.25781762  1
  O  O210  1  0.50597811  0.87467426  0.75534626  1
  O  O211  1  0.48109730  0.12092300  0.25743264  1
  O  O212  1  0.50260617  0.13226810  0.74226025  1
  O  O213  1  0.49492776  0.62790940  0.24317294  1
  O  O214  1  0.48852018  0.62646316  0.74081694  1
  O  O215  1  0.99104343  0.13070029  0.24805174  1
  O  O216  1  0.99205751  0.11978545  0.74108197  1
  O  O217  1  0.99618883  0.62126548  0.23914551  1
  O  O218  1  0.99243208  0.62974005  0.74158729  1
  O  O219  1  0.38042604  0.25554869  -0.00489172  1
  O  O220  1  0.36140412  0.26024077  0.49897209  1
  O  O221  1  0.35784108  0.74220372  -0.00022087  1
  O  O222  1  0.37653667  0.76431570  0.49570536  1
  O  O223  1  0.87554296  0.24477515  0.01512919  1
  O  O224  1  0.87302477  0.25099908  0.51274779  1
  O  O225  1  0.85795980  0.74456629  -0.00126134  1
  O  O226  1  0.87441425  0.76637400  0.49716773  1
  O  O227  1  0.13777197  0.25459363  0.48926191  1
  O  O228  1  0.11735094  0.23778914  0.99335392  1
  O  O229  1  0.12724826  0.73688589  0.49362815  1
  O  O230  1  0.12955883  0.73889038  0.99657186  1
  O  O231  1  0.62635502  0.24324816  0.49400597  1
  O  O232  1  0.63250537  0.25687696  0.97939791  1
  O  O233  1  0.63024997  0.75515492  0.48402490  1
  O  O234  1  0.63341707  0.74332896  0.99012676  1
  O  O235  1  0.54748594  0.22860818  0.13647785  1
  O  O236  1  0.50204261  0.24045911  0.63504420  1
  O  O237  1  0.50349225  0.73873953  0.12980705  1
  O  O238  1  0.50350076  0.73585330  0.62683449  1
  O  O239  1  0.99389957  0.24723865  0.13261856  1
  O  O240  1  0.99378212  0.23950267  0.61912988  1
  O  O241  1  0.99781275  0.74325650  0.12568339  1
  O  O242  1  1.00450094  0.73952896  0.63565396  1
  O  O243  1  0.00797143  0.25380814  0.37341530  1
  O  O244  1  0.00763353  0.26156479  0.88119124  1
  O  O245  1  0.01053695  0.75933267  0.37325157  1
  O  O246  1  -0.00211655  0.75021303  0.85992305  1
  O  O247  1  0.51168786  0.25673475  0.37987883  1
  O  O248  1  0.50833910  0.25340394  0.86626078  1
  O  O249  1  0.50909189  0.75418569  0.36835093  1
  O  O250  1  0.50625387  0.75517654  0.87099078  1
  O  O251  1  0.25648042  0.13150455  0.49534174  1
  O  O252  1  0.23599867  0.11867864  0.99259974  1
  O  O253  1  0.24491742  0.62597172  0.49387866  1
  O  O254  1  0.23978069  0.62856661  0.99586676  1
  O  O255  1  0.74212642  0.12343134  0.49623891  1
  O  O256  1  0.74714176  0.12781093  0.98362734  1
  O  O257  1  0.75499548  0.62656364  0.48530180  1
  O  O258  1  0.74145697  0.62624355  0.99046855  1
  O  O259  1  0.25634712  0.37488252  0.01373192  1
  O  O260  1  0.25699765  0.36985411  0.50776527  1
  O  O261  1  0.24114030  0.85932224  -0.00251231  1
  O  O262  1  0.25927761  0.87156366  0.50980611  1
  O  O263  1  0.75067336  0.37840054  0.01009805  1
  O  O264  1  0.75644328  0.37361488  0.50361624  1
  O  O265  1  0.74460046  0.86069187  -0.00050641  1
  O  O266  1  0.76212766  0.87930664  0.50195513  1
  O  O267  1  0.13930380  0.49851117  0.24675786  1
  O  O268  1  0.12990725  0.49179045  0.74554310  1
  O  O269  1  0.13399053  1.00966116  0.24062227  1
  O  O270  1  0.11636297  0.98829603  0.74774744  1
  O  O271  1  0.63638977  0.49468128  0.24331510  1
  O  O272  1  0.62585374  0.49199860  0.74294659  1
  O  O273  1  0.63412573  0.99920825  0.25190325  1
  O  O274  1  0.63443465  0.99136359  0.75293698  1
  O  O275  1  0.36735256  0.00428589  0.26565734  1
  O  O276  1  0.37874224  0.00609854  0.77059530  1
  O  O277  1  0.36586080  0.51220332  0.24472286  1
  O  O278  1  0.36680646  0.50495689  0.76129867  1
  O  O279  1  0.86448831  0.01722750  0.25270892  1
  O  O280  1  0.86640062  0.01353975  0.74168061  1
  O  O281  1  0.87022669  0.50787229  0.25782221  1
  O  O282  1  0.86836486  0.50949823  0.75374058  1
  O  O283  1  0.12084322  0.36809734  0.37333688  1
  O  O284  1  0.12082690  0.36834619  0.87201148  1
  O  O285  1  0.11933092  0.86247452  0.38625116  1
  O  O286  1  0.11500865  0.87431505  0.86607868  1
  O  O287  1  0.62501105  0.36906406  0.36583421  1
  O  O288  1  0.61919186  0.37083974  0.86275082  1
  O  O289  1  0.61851338  0.86966492  0.36968610  1
  O  O290  1  0.61674992  0.86271349  0.86063943  1
  O  O291  1  0.37227771  0.12573850  0.14095822  1
  O  O292  1  0.38660206  0.11931267  0.62800886  1
  O  O293  1  0.38387829  0.62870684  0.13093931  1
  O  O294  1  0.38434463  0.61805772  0.63472072  1
  O  O295  1  0.88011703  0.13434838  0.13432555  1
  O  O296  1  0.88474727  0.13046893  0.62898570  1
  O  O297  1  0.88591652  0.62698247  0.13238513  1
  O  O298  1  0.88441156  0.61673048  0.63030719  1
  O  O299  1  0.24586070  0.26171514  0.13331214  1
  O  O300  1  0.24224066  0.25922785  0.61861299  1
  O  O301  1  0.24683036  0.74899957  0.11067998  1
  O  O302  1  0.24740699  0.76601981  0.62270109  1
  O  O303  1  0.75603887  0.26179760  0.12141371  1
  O  O304  1  0.76007067  0.25256757  0.62314728  1
  O  O305  1  0.74885883  0.74116354  0.10786291  1
  O  O306  1  0.74357208  0.76410593  0.61963656  1
  O  O307  1  0.24386423  0.24164663  0.38292825  1
  O  O308  1  0.23653762  0.24294970  0.87790082  1
  O  O309  1  0.24449021  0.73812509  0.37730301  1
  O  O310  1  0.24538264  0.74271138  0.88539978  1
  O  O311  1  0.74018703  0.24045874  0.37927154  1
  O  O312  1  0.74475558  0.24113465  0.86867624  1
  O  O313  1  0.74579361  0.74146225  0.37108208  1
  O  O314  1  0.73989012  0.74322615  0.87956813  1
  O  O315  1  0.00482653  0.11340657  0.00713358  1
  O  O316  1  -0.00315926  0.11345077  0.50539481  1
  O  O317  1  0.00391436  0.62077276  0.00421063  1
  O  O318  1  0.00572772  0.62998185  0.50991572  1
  O  O319  1  0.52319165  0.12312635  -0.00408495  1
  O  O320  1  0.50334806  0.11949283  0.50643181  1
  O  O321  1  0.50559063  0.62426545  0.00691186  1
  O  O322  1  0.49032658  0.62369051  0.51408971  1
  O  O323  1  0.47927980  0.37327581  0.50608180  1
  O  O324  1  0.49156252  0.37422678  0.99472623  1
  O  O325  1  0.49570013  0.88155792  0.49866929  1
  O  O326  1  0.50757946  0.87206963  0.98533852  1
  O  O327  1  0.99991452  0.37136503  0.48643832  1
  O  O328  1  1.00488830  0.38575454  0.99183796  1
  O  O329  1  0.99297295  0.88027865  0.49630302  1
  O  O330  1  0.99870165  0.88971236  1.00196792  1
  O  O331  1  0.50332433  0.49329038  0.37869970  1
  O  O332  1  0.48999194  0.49118138  0.87455039  1
  O  O333  1  0.49206999  0.99638755  0.38503286  1
  O  O334  1  0.49216883  0.99143494  0.87962148  1
  O  O335  1  0.99291697  0.49082174  0.36791354  1
  O  O336  1  0.99389787  0.49136664  0.88134335  1
  O  O337  1  1.00632107  0.99503285  0.38792745  1
  O  O338  1  0.99849362  1.00120036  0.89384676  1
  O  O339  1  0.00377194  0.00490069  0.11989856  1
  O  O340  1  0.00192531  0.00944011  0.61453235  1
  O  O341  1  0.00041093  0.50505069  0.11676673  1
  O  O342  1  0.01269591  0.50912188  0.63103458  1
  O  O343  1  0.49915655  0.01108969  0.12129192  1
  O  O344  1  0.49619323  0.00534153  0.61464570  1
  O  O345  1  0.50428652  0.51080847  0.12348223  1
  O  O346  1  0.50447167  0.50962395  0.62192983  1
  O  O347  1  0.25323536  0.38240595  0.24062033  1
  O  O348  1  0.24265447  0.37857153  0.74474521  1
  O  O349  1  0.25047264  0.88834419  0.25754722  1
  O  O350  1  0.24021834  0.87111618  0.74295447  1
  O  O351  1  0.74696850  0.38707395  0.24441680  1
  O  O352  1  0.73912014  0.38179342  0.74590704  1
  O  O353  1  0.73751776  0.89882537  0.26733871  1
  O  O354  1  0.74392762  0.88164574  0.73913140  1
  O  O355  1  0.25987199  0.11506292  0.26159051  1
  O  O356  1  0.24712146  0.12896868  0.76590780  1
  O  O357  1  0.25773534  0.61956424  0.25475069  1
  O  O358  1  0.25316818  0.62070047  0.75407816  1
  O  O359  1  0.75182858  0.11907478  0.25622355  1
  O  O360  1  0.75447033  0.11817235  0.74868428  1
  O  O361  1  0.75892252  0.61504689  0.25427233  1
  O  O362  1  0.75480804  0.62219765  0.75173501  1
  O  O363  1  0.36565712  0.11780579  0.37424114  1
  O  O364  1  0.36488528  0.11829015  0.87479001  1
  O  O365  1  0.36697842  0.62743528  0.36657784  1
  O  O366  1  0.36921818  0.61573302  0.86887016  1
  O  O367  1  0.86337251  0.13633167  0.36724917  1
  O  O368  1  0.86935104  0.13443773  0.86152030  1
  O  O369  1  0.87245419  0.61594443  0.37055771  1
  O  O370  1  0.86845061  0.61665164  0.86429749  1
  O  O371  1  0.13792355  0.37647900  0.12665940  1
  O  O372  1  0.12753306  0.38111977  0.63260835  1
  O  O373  1  0.12878328  0.88608842  0.12415975  1
  O  O374  1  0.13396609  0.87576911  0.63311483  1
  O  O375  1  0.63569845  0.38273691  0.13034094  1
  O  O376  1  0.62050481  0.38141307  0.63442102  1
  O  O377  1  0.62429721  0.87038459  0.14045503  1
  O  O378  1  0.62988835  0.87378969  0.63458120  1
  O  O379  1  0.12035957  0.24901385  0.26416042  1
  O  O380  1  0.12524606  0.26333387  0.76106129  1
  O  O381  1  0.12405173  0.74262636  0.26335032  1
  O  O382  1  0.11421162  0.75957738  0.75243514  1
  O  O383  1  0.63897183  0.26511012  0.26367107  1
  O  O384  1  0.61868007  0.25796340  0.75570004  1
  O  O385  1  0.62192830  0.75924779  0.25785682  1
  O  O386  1  0.62267036  0.75675342  0.75595463  1
  O  O387  1  0.37156685  0.23525084  0.25746568  1
  O  O388  1  0.38547961  0.24642569  0.75665840  1
  O  O389  1  0.38371175  0.73778297  0.25009139  1
  O  O390  1  0.37275267  0.73662111  0.75740172  1
  O  O391  1  0.87794693  0.24281843  0.24234248  1
  O  O392  1  0.87313972  0.23746933  0.73559929  1
  O  O393  1  0.88442933  0.73031130  0.26415968  1
  O  O394  1  0.87827995  0.73551807  0.74765602  1
  O  O395  1  0.37024943  0.48448481  0.50299478  1
  O  O396  1  0.37450315  0.49623342  0.98828113  1
  O  O397  1  0.38180867  0.99059495  0.49132127  1
  O  O398  1  0.37895280  1.00678822  0.98399799  1
  O  O399  1  0.87543254  0.49841148  0.48710613  1
  O  O400  1  0.88584229  0.50691454  0.99201271  1
  O  O401  1  0.89082545  0.98867691  0.50176177  1
  O  O402  1  0.87988040  1.00222349  1.00560140  1
  O  O403  1  0.11542226  0.00651222  0.01003768  1
  O  O404  1  0.10780204  -0.00616014  0.50586206  1
  O  O405  1  0.11434285  0.51094340  -0.00031275  1
  O  O406  1  0.12927776  0.51192745  0.50889098  1
  O  O407  1  0.62853279  0.00527839  -0.01287853  1
  O  O408  1  0.61401678  0.00930925  0.49324401  1
  O  O409  1  0.62134614  0.50582096  0.00531414  1
  O  O410  1  0.62187038  0.49463061  0.51213908  1
  O  O411  1  0.36346485  0.37533432  0.11609824  1
  O  O412  1  0.36053683  0.37980413  0.62237837  1
  O  O413  1  0.36799634  0.86893944  0.13377783  1
  O  O414  1  0.36470467  0.87885573  0.62159439  1
  O  O415  1  0.86694691  0.36756244  0.13300980  1
  O  O416  1  0.87802885  0.36625540  0.62671891  1
  O  O417  1  0.86586038  0.85802251  0.17620513  1
  O  O418  1  0.86642799  0.87701833  0.61091999  1
  O  O419  1  0.13801374  0.13123817  0.37422374  1
  O  O420  1  0.12770536  0.13102970  0.88237042  1
  O  O421  1  0.13037512  0.62892045  0.38299478  1
  O  O422  1  0.12803513  0.62536147  0.88128318  1
  O  O423  1  0.62766656  0.13379583  0.38478243  1
  O  O424  1  0.63519587  0.13141290  0.87650918  1
  O  O425  1  0.63789869  0.63532428  0.36388760  1
  O  O426  1  0.62602510  0.63228651  0.87606069  1
