# generated using pymatgen
data_V85Zn86O256
_symmetry_space_group_name_H-M   'P 1'
_cell_length_a   16.96789854
_cell_length_b   16.97456347
_cell_length_c   16.96849041
_cell_angle_alpha   90.01099459
_cell_angle_beta   90.02210711
_cell_angle_gamma   89.90178424
_symmetry_Int_Tables_number   1
_chemical_formula_structural   V85Zn86O256
_chemical_formula_sum   'V85 Zn86 O256'
_cell_volume   4887.30229082
_cell_formula_units_Z   1
loop_
 _symmetry_equiv_pos_site_id
 _symmetry_equiv_pos_as_xyz
  1  'x, y, z'
loop_
 _atom_site_type_symbol
 _atom_site_label
 _atom_site_symmetry_multiplicity
 _atom_site_fract_x
 _atom_site_fract_y
 _atom_site_fract_z
 _atom_site_occupancy
  V  V0  1  0.88303172  0.38610978  -0.00106267  1
  V  V1  1  0.62649501  0.12427426  0.50097335  1
  V  V2  1  0.25019222  0.74279281  0.49668628  1
  V  V3  1  0.37526323  0.00233713  0.37546500  1
  V  V4  1  0.37300947  0.75754928  0.63422138  1
  V  V5  1  0.87302974  -0.00028220  0.87679120  1
  V  V6  1  0.36954095  0.63150483  0.25262900  1
  V  V7  1  0.74896035  0.87311506  0.12504788  1
  V  V8  1  0.20220306  0.57174350  0.81469321  1
  V  V9  1  0.36229255  0.25643571  0.64043101  1
  V  V10  1  0.37311835  0.37420226  0.49822912  1
  V  V11  1  0.87677362  0.62968336  0.25063884  1
  V  V12  1  0.24628036  0.12186114  0.37225414  1
  V  V13  1  0.37929106  0.12681045  0.24593446  1
  V  V14  1  0.49285380  0.49557306  -0.00584582  1
  V  V15  1  0.24692672  0.74650535  -0.00210355  1
  V  V16  1  0.24990597  -0.00271161  0.73841239  1
  V  V17  1  0.57155508  0.68587746  -0.05537968  1
  V  V18  1  0.88750016  0.75234581  0.12650004  1
  V  V19  1  0.87387184  0.25069395  0.12421431  1
  V  V20  1  0.74904055  0.12573245  0.86705613  1
  V  V21  1  -0.00049797  0.25068700  0.24861612  1
  V  V22  1  0.62859309  -0.00160650  0.63904678  1
  V  V23  1  0.50622374  0.25225458  0.23913458  1
  V  V24  1  0.62452093  0.85539043  0.75750467  1
  V  V25  1  0.49456473  0.75478054  0.24896697  1
  V  V26  1  0.74196081  0.49732735  0.25085524  1
  V  V27  1  0.75099922  0.25134382  -0.00745458  1
  V  V28  1  0.87547004  0.61312214  0.74291152  1
  V  V29  1  0.61989720  0.50463414  0.12326792  1
  V  V30  1  0.75123276  0.87922676  0.63082501  1
  V  V31  1  0.50199360  0.12980094  0.63061814  1
  V  V32  1  -0.00019015  0.50498402  0.51111416  1
  V  V33  1  0.77013872  0.62730374  0.88313494  1
  V  V34  1  0.74825259  -0.00076121  0.25089923  1
  V  V35  1  0.37742649  0.62115931  0.75295443  1
  V  V36  1  0.24373928  0.87257402  0.12281866  1
  V  V37  1  0.12350355  0.25396314  0.88117857  1
  V  V38  1  0.00641786  0.25575309  0.74265722  1
  V  V39  1  0.24986982  0.37284943  0.12144611  1
  V  V40  1  0.36924839  0.50351224  0.37378779  1
  V  V41  1  0.12366096  0.38096479  0.24367741  1
  V  V42  1  0.87429369  0.12575144  0.24852651  1
  V  V43  1  0.12757601  0.87301351  0.74229251  1
  V  V44  1  0.87146327  0.37329540  0.50187141  1
  V  V45  1  -0.00082069  0.74725862  0.75631096  1
  V  V46  1  0.00476880  0.60737175  0.12770369  1
  V  V47  1  0.12379796  0.24948707  0.37394172  1
  V  V48  1  0.73937988  0.37316239  0.12595246  1
  V  V49  1  0.50875951  0.26424847  0.76273009  1
  V  V50  1  0.74657375  0.24916634  0.50221990  1
  V  V51  1  0.37986647  0.11962657  0.75324149  1
  V  V52  1  0.25207836  0.24814276  0.49501878  1
  V  V53  1  0.62428103  0.62625776  0.50195482  1
  V  V54  1  0.11740460  0.87306629  0.24510737  1
  V  V55  1  0.88154232  0.74540664  0.62434152  1
  V  V56  1  0.50020932  0.87785722  0.37838706  1
  V  V57  1  0.88178851  -0.00019519  0.37855232  1
  V  V58  1  0.50539319  0.37404669  0.36978410  1
  V  V59  1  0.12558981  0.61484621  0.00780932  1
  V  V60  1  0.87640350  0.87102919  -0.00203654  1
  V  V61  1  0.62304212  0.75167964  0.37627686  1
  V  V62  1  0.49851175  0.50153434  0.49821688  1
  V  V63  1  0.00424018  0.11742759  0.12460502  1
  V  V64  1  0.37327515  0.24770649  0.11946342  1
  V  V65  1  0.12751378  0.11611630  0.00214371  1
  V  V66  1  0.36445081  0.87987574  0.50595800  1
  V  V67  1  -0.00103952  0.38014228  0.37538750  1
  V  V68  1  0.49909796  0.63141247  0.12911975  1
  V  V69  1  0.50153995  0.00131300  0.50316449  1
  V  V70  1  0.87814522  0.87824253  0.50309547  1
  V  V71  1  0.24593790  0.50460439  0.24796089  1
  V  V72  1  0.50023204  0.00298522  0.00728648  1
  V  V73  1  0.88600442  0.11707831  0.74403366  1
  V  V74  1  -0.00055125  0.86516891  0.37464502  1
  V  V75  1  0.24385748  0.00016339  0.24161024  1
  V  V76  1  0.37623520  -0.00442813  0.87608768  1
  V  V77  1  0.74964972  0.12587370  0.37646177  1
  V  V78  1  0.11033427  0.12038425  0.50830140  1
  V  V79  1  0.62623845  0.49220787  0.63283516  1
  V  V80  1  0.50153889  0.63316311  0.63083330  1
  V  V81  1  0.74701382  0.62516796  0.37341574  1
  V  V82  1  0.37417742  0.87192321  0.00672543  1
  V  V83  1  0.62537289  0.12433269  0.00103739  1
  V  V84  1  0.24876706  0.12590377  0.87912465  1
  Zn  Zn85  1  0.13079657  0.74550045  0.36983841  1
  Zn  Zn86  1  0.13645902  0.50385822  0.63003063  1
  Zn  Zn87  1  0.87128504  0.50141258  0.37551850  1
  Zn  Zn88  1  0.37070987  0.36166242  -0.00906964  1
  Zn  Zn89  1  0.00346533  0.87556026  0.87600948  1
  Zn  Zn90  1  0.75050534  0.49083017  0.76155316  1
  Zn  Zn91  1  0.00302606  0.38333100  0.87649918  1
  Zn  Zn92  1  0.87831505  0.24516284  0.62364338  1
  Zn  Zn93  1  0.62117804  0.00163193  0.12741892  1
  Zn  Zn94  1  0.50378455  0.86522469  0.87544130  1
  Zn  Zn95  1  0.66377108  0.32229915  0.81835027  1
  Zn  Zn96  1  0.74592724  0.74990336  -0.00173313  1
  Zn  Zn97  1  0.62391702  0.87790061  0.25304400  1
  Zn  Zn98  1  0.12328539  0.62354999  0.49604690  1
  Zn  Zn99  1  0.13013868  0.74929324  0.87235123  1
  Zn  Zn100  1  0.62555880  0.25334313  0.37049605  1
  Zn  Zn101  1  0.75125820  0.74941983  0.50214327  1
  Zn  Zn102  1  0.24201699  0.38378399  0.64072999  1
  Zn  Zn103  1  0.37556874  0.48798026  0.86226656  1
  Zn  Zn104  1  0.74721483  0.36954903  0.63767684  1
  Zn  Zn105  1  0.10886581  0.00240618  0.62555245  1
  Zn  Zn106  1  0.00357597  -0.00568442  0.00328269  1
  Zn  Zn107  1  0.18662010  0.18977561  0.18527394  1
  Zn  Zn108  1  0.19544074  0.19866860  0.69382036  1
  Zn  Zn109  1  0.18661693  0.69138240  0.18643140  1
  Zn  Zn110  1  0.18266349  0.69145091  0.66993027  1
  Zn  Zn111  1  0.68549416  0.18623963  0.18258344  1
  Zn  Zn112  1  0.69187836  0.18419476  0.68664255  1
  Zn  Zn113  1  0.68471612  0.69091927  0.18849725  1
  Zn  Zn114  1  0.69686293  0.68586598  0.68870540  1
  Zn  Zn115  1  0.31471150  0.31479305  0.30880408  1
  Zn  Zn116  1  0.31307399  0.30739488  0.81516195  1
  Zn  Zn117  1  0.31185703  0.81769842  0.31397622  1
  Zn  Zn118  1  0.31052142  0.81455743  0.81349053  1
  Zn  Zn119  1  0.80997889  0.31452017  0.31303070  1
  Zn  Zn120  1  0.82879152  0.31074057  0.81375245  1
  Zn  Zn121  1  0.81122205  0.81115025  0.31349149  1
  Zn  Zn122  1  0.81072365  0.80775367  0.81224802  1
  Zn  Zn123  1  0.18664199  0.43655750  0.43763796  1
  Zn  Zn124  1  0.18814151  0.43501784  0.94055570  1
  Zn  Zn125  1  0.18297137  0.93965951  0.43546845  1
  Zn  Zn126  1  0.18736436  0.93639430  0.93036844  1
  Zn  Zn127  1  0.68554050  0.43836133  0.44002900  1
  Zn  Zn128  1  0.69285165  0.45432015  0.94562500  1
  Zn  Zn129  1  0.69141447  0.93890194  0.44304448  1
  Zn  Zn130  1  0.68941750  0.93849114  0.93461141  1
  Zn  Zn131  1  0.31205297  0.06219449  0.06263100  1
  Zn  Zn132  1  0.31292478  0.07100934  0.56227728  1
  Zn  Zn133  1  0.31242412  0.56454068  0.07094340  1
  Zn  Zn134  1  0.31196448  0.56650985  0.56806544  1
  Zn  Zn135  1  0.81239850  0.06133422  0.06063910  1
  Zn  Zn136  1  0.92922158  0.06085051  0.56236362  1
  Zn  Zn137  1  0.80866208  0.56631262  0.07008771  1
  Zn  Zn138  1  0.80974281  0.55907978  0.56275438  1
  Zn  Zn139  1  0.43522741  0.43626635  0.18528512  1
  Zn  Zn140  1  0.43877650  0.43860413  0.68464349  1
  Zn  Zn141  1  0.43303935  0.93819534  0.18661375  1
  Zn  Zn142  1  0.44546482  0.93482965  0.69073202  1
  Zn  Zn143  1  0.92895676  0.43772992  0.18926121  1
  Zn  Zn144  1  0.93841833  0.42953943  0.68471728  1
  Zn  Zn145  1  0.93580102  0.93753975  0.18972069  1
  Zn  Zn146  1  0.93850364  0.93371152  0.69252197  1
  Zn  Zn147  1  0.06187143  0.05895391  0.31214161  1
  Zn  Zn148  1  0.06189245  0.05876917  0.81347910  1
  Zn  Zn149  1  0.06257641  0.56731059  0.31689128  1
  Zn  Zn150  1  0.04015941  0.55890437  0.80329850  1
  Zn  Zn151  1  0.56238390  0.06690684  0.31285067  1
  Zn  Zn152  1  0.56432883  0.06042024  0.81849273  1
  Zn  Zn153  1  0.56031353  0.56266205  0.31102717  1
  Zn  Zn154  1  0.56057375  0.55997984  0.81033120  1
  Zn  Zn155  1  0.43959809  0.18947899  0.43602376  1
  Zn  Zn156  1  0.44222604  0.18569064  0.93582207  1
  Zn  Zn157  1  0.43399241  0.68978397  0.43848243  1
  Zn  Zn158  1  0.40957367  0.68386197  0.94167533  1
  Zn  Zn159  1  0.93465225  0.19319087  0.43288243  1
  Zn  Zn160  1  0.93975630  0.18721747  0.93732945  1
  Zn  Zn161  1  0.93559939  0.68732585  0.43673861  1
  Zn  Zn162  1  0.94184944  0.56124149  0.94594024  1
  Zn  Zn163  1  0.06432588  0.30553253  0.06323469  1
  Zn  Zn164  1  0.06918395  0.31940647  0.56497738  1
  Zn  Zn165  1  0.06414373  0.80864687  0.06048796  1
  Zn  Zn166  1  0.06184747  0.81659523  0.56349966  1
  Zn  Zn167  1  0.58309201  0.33415213  0.00228122  1
  Zn  Zn168  1  0.55725431  0.31101283  0.56191836  1
  Zn  Zn169  1  0.55869855  0.82239995  0.07031756  1
  Zn  Zn170  1  0.56058040  0.81425811  0.56500641  1
  O  O171  1  0.11700194  0.13047553  0.11597877  1
  O  O172  1  0.12863634  0.12794710  0.60789720  1
  O  O173  1  0.11034914  0.62888394  0.12478814  1
  O  O174  1  0.12988921  0.61646924  0.60819937  1
  O  O175  1  0.63698378  0.11598449  0.10718717  1
  O  O176  1  0.62162943  0.11696103  0.62142788  1
  O  O177  1  0.60996841  0.61951119  0.13330018  1
  O  O178  1  0.62043336  0.62075115  0.61937820  1
  O  O179  1  0.38345300  0.38219640  0.37802071  1
  O  O180  1  0.36494017  0.37657742  0.88017714  1
  O  O181  1  0.38116260  0.88554924  0.38389433  1
  O  O182  1  0.37791143  0.88078870  0.88549387  1
  O  O183  1  0.88111128  0.37532189  0.38424162  1
  O  O184  1  0.87952710  0.37281969  0.89587188  1
  O  O185  1  0.87823135  0.88052275  0.38120426  1
  O  O186  1  0.87212661  0.88072255  0.88268071  1
  O  O187  1  0.25483743  0.00548536  0.36457267  1
  O  O188  1  0.26269741  0.00465241  0.86869992  1
  O  O189  1  0.26212607  0.49278359  0.36587274  1
  O  O190  1  0.25338556  0.50473011  0.87289548  1
  O  O191  1  0.75764609  0.00444064  0.36859557  1
  O  O192  1  0.76391315  0.01058343  0.88116953  1
  O  O193  1  0.74783130  0.50491787  0.36695859  1
  O  O194  1  0.74570347  0.52245637  0.87435351  1
  O  O195  1  0.25654767  0.49008445  0.14163493  1
  O  O196  1  0.25351971  0.49179966  0.62012749  1
  O  O197  1  0.25238159  0.99382825  0.13588504  1
  O  O198  1  0.25175009  1.00938521  0.63765648  1
  O  O199  1  0.73891611  0.49674879  0.13057297  1
  O  O200  1  0.73489491  0.49573535  0.62606397  1
  O  O201  1  0.75407588  0.98929181  0.13456641  1
  O  O202  1  0.73906929  0.98228487  0.62069975  1
  O  O203  1  0.00436897  0.37302956  0.25434867  1
  O  O204  1  -0.00569170  0.35882760  0.75693439  1
  O  O205  1  0.00776402  0.88132569  0.25827211  1
  O  O206  1  0.00676413  0.86520462  0.75415308  1
  O  O207  1  0.49374492  0.36150244  0.25542393  1
  O  O208  1  0.49964977  0.36271273  0.74892786  1
  O  O209  1  0.49780021  0.87087248  0.25758609  1
  O  O210  1  0.51820097  0.87542538  0.75597308  1
  O  O211  1  0.48942154  0.13768750  0.25574038  1
  O  O212  1  0.50155764  0.12368487  0.74107536  1
  O  O213  1  0.49306513  0.63516594  0.24659435  1
  O  O214  1  0.49396391  0.62410428  0.73908142  1
  O  O215  1  0.99503303  0.12941786  0.24526313  1
  O  O216  1  0.98922543  0.13161666  0.75600816  1
  O  O217  1  0.98902191  0.61995589  0.24004901  1
  O  O218  1  0.98684279  0.63427193  0.74171059  1
  O  O219  1  0.38235667  0.24374996  0.01564248  1
  O  O220  1  0.36902505  0.25472903  0.50260385  1
  O  O221  1  0.36321690  0.76123557  0.00610384  1
  O  O222  1  0.36858187  0.76189916  0.50483433  1
  O  O223  1  0.86607245  0.25311852  0.00622755  1
  O  O224  1  0.86585051  0.25536378  0.50109190  1
  O  O225  1  0.86878216  0.76532556  0.01271581  1
  O  O226  1  0.87340953  0.75681297  0.50748039  1
  O  O227  1  0.13069454  0.23990110  0.49282403  1
  O  O228  1  0.12022763  0.23566514  0.98734273  1
  O  O229  1  0.14313583  0.75803440  0.50364000  1
  O  O230  1  0.13031338  0.73911776  0.99595583  1
  O  O231  1  0.62955266  0.24379005  0.49865255  1
  O  O232  1  0.64317416  0.23866682  1.00664512  1
  O  O233  1  0.62373978  0.73954429  0.49672326  1
  O  O234  1  0.62522760  0.74932151  1.00483554  1
  O  O235  1  0.49127906  0.25235369  0.13940245  1
  O  O236  1  0.49160160  0.24398458  0.63294440  1
  O  O237  1  0.50326354  0.74774516  0.14081717  1
  O  O238  1  0.49007866  0.73989931  0.61734078  1
  O  O239  1  0.99381879  0.23948008  0.13161628  1
  O  O240  1  1.00232136  0.25232586  0.63931196  1
  O  O241  1  0.98882324  0.74712691  0.12713540  1
  O  O242  1  0.98581169  0.75849130  0.63099568  1
  O  O243  1  0.00240127  0.26174741  0.36817005  1
  O  O244  1  0.01081112  0.25083136  0.86950790  1
  O  O245  1  -0.00270678  0.76294145  0.37533292  1
  O  O246  1  0.00551221  0.74950727  0.85811432  1
  O  O247  1  0.50016200  0.25848811  0.36511728  1
  O  O248  1  0.50478087  0.24795501  0.86241322  1
  O  O249  1  0.50366423  0.75664364  0.36921384  1
  O  O250  1  0.50492065  0.74242678  0.89213224  1
  O  O251  1  0.24455504  0.12438178  0.48124280  1
  O  O252  1  0.24430705  0.11864362  0.98805737  1
  O  O253  1  0.26026049  0.64215429  0.49487960  1
  O  O254  1  0.24272778  0.63756387  1.01686778  1
  O  O255  1  0.74435043  0.13756648  0.49146485  1
  O  O256  1  0.75087998  0.13305797  0.98961241  1
  O  O257  1  0.74016060  0.62486403  0.49283506  1
  O  O258  1  0.75907421  0.62978234  0.98920483  1
  O  O259  1  0.25115720  0.37860298  0.01790032  1
  O  O260  1  0.25532329  0.36014118  0.49467345  1
  O  O261  1  0.25297469  0.87360996  0.00646752  1
  O  O262  1  0.26251306  0.88126143  0.49898331  1
  O  O263  1  0.76220578  0.36984564  0.00822846  1
  O  O264  1  0.75618071  0.36652536  0.49741788  1
  O  O265  1  0.75496107  0.87475934  0.00948674  1
  O  O266  1  0.76141607  0.87116734  0.50655709  1
  O  O267  1  0.13317884  0.49098384  0.25765930  1
  O  O268  1  0.13893818  0.51671965  0.75710334  1
  O  O269  1  0.13532676  0.98969797  0.25573170  1
  O  O270  1  0.13449561  0.99581982  0.74837661  1
  O  O271  1  0.63281428  0.50292147  0.24074806  1
  O  O272  1  0.62600754  0.50265416  0.73602131  1
  O  O273  1  0.63668733  1.00230748  0.25062933  1
  O  O274  1  0.62454783  0.99743035  0.74065462  1
  O  O275  1  0.36871039  0.00918203  0.25472172  1
  O  O276  1  0.37236874  0.00094472  0.75697968  1
  O  O277  1  0.36878308  0.50744433  0.25666291  1
  O  O278  1  0.37881648  0.51176036  0.74635157  1
  O  O279  1  0.86407081  0.00486863  0.25719170  1
  O  O280  1  0.87620228  0.01161914  0.75952359  1
  O  O281  1  0.85941620  0.51130541  0.24887161  1
  O  O282  1  0.87293329  0.50921356  0.73830597  1
  O  O283  1  0.11687569  0.36869486  0.36621246  1
  O  O284  1  0.12627365  0.35748846  0.88266534  1
  O  O285  1  0.11365815  0.87494696  0.36983231  1
  O  O286  1  0.12292204  0.87228935  0.86099334  1
  O  O287  1  0.60908489  0.37633460  0.37883613  1
  O  O288  1  0.62420186  0.37727890  0.90442715  1
  O  O289  1  0.61887853  0.87049671  0.37736580  1
  O  O290  1  0.62707569  0.87402764  0.86189742  1
  O  O291  1  0.36657549  0.13087621  0.13882810  1
  O  O292  1  0.38539618  0.13239458  0.63323498  1
  O  O293  1  0.38850489  0.62402671  0.14042095  1
  O  O294  1  0.38366578  0.63583454  0.63205277  1
  O  O295  1  0.87926947  0.13130528  0.13042183  1
  O  O296  1  0.86983806  0.12619233  0.64163174  1
  O  O297  1  0.88444355  0.63155701  0.13054764  1
  O  O298  1  0.86372450  0.63513829  0.63079210  1
  O  O299  1  0.26119812  0.25954946  0.13455665  1
  O  O300  1  0.26207847  0.21547618  0.59680477  1
  O  O301  1  0.24501422  0.76625627  0.11671019  1
  O  O302  1  0.26372161  0.75409969  0.61032484  1
  O  O303  1  0.75475996  0.25814791  0.12079049  1
  O  O304  1  0.75014736  0.25213975  0.61358972  1
  O  O305  1  0.75507223  0.76208084  0.12749226  1
  O  O306  1  0.75994997  0.76024535  0.62347859  1
  O  O307  1  0.24680295  0.24161572  0.37785144  1
  O  O308  1  0.23427949  0.23761617  0.87016788  1
  O  O309  1  0.25143986  0.76255152  0.39295985  1
  O  O310  1  0.25032308  0.75525099  0.89226398  1
  O  O311  1  0.74608583  0.24620726  0.38126700  1
  O  O312  1  0.75215395  0.24507855  0.88035290  1
  O  O313  1  0.73978921  0.74394819  0.37714717  1
  O  O314  1  0.75222157  0.73227919  0.87760278  1
  O  O315  1  0.00687656  0.12251547  0.00901077  1
  O  O316  1  0.00610844  0.12892842  0.49745426  1
  O  O317  1  0.00755205  0.62416727  0.01855488  1
  O  O318  1  -0.00974258  0.60571815  0.49607520  1
  O  O319  1  0.51323553  0.11634104  -0.00552543  1
  O  O320  1  0.50455238  0.12360229  0.51231477  1
  O  O321  1  0.50178888  0.63015782  0.00629996  1
  O  O322  1  0.50524083  0.62055614  0.50608196  1
  O  O323  1  0.49251041  0.38125377  0.49131651  1
  O  O324  1  0.48655928  0.39334789  1.01222731  1
  O  O325  1  0.49312436  0.88296578  0.49601750  1
  O  O326  1  0.49094010  0.88165207  0.99784257  1
  O  O327  1  0.99112584  0.37808211  0.49203721  1
  O  O328  1  0.98425720  0.36810501  1.00858058  1
  O  O329  1  0.98623595  0.87345885  0.49242600  1
  O  O330  1  0.99213659  0.87493643  0.99752571  1
  O  O331  1  0.49063143  0.49340128  0.37561689  1
  O  O332  1  0.49805551  0.50612097  0.89146485  1
  O  O333  1  0.49464747  0.99921562  0.38208276  1
  O  O334  1  0.48794669  0.99876715  0.88335088  1
  O  O335  1  0.99306885  0.48743973  0.37500601  1
  O  O336  1  1.00561888  0.49518222  0.88350540  1
  O  O337  1  0.98558303  0.99282036  0.36999428  1
  O  O338  1  0.98638204  0.99821082  0.87891991  1
  O  O339  1  -0.00622023  0.01432572  0.12620771  1
  O  O340  1  -0.00406285  0.00442159  0.62963940  1
  O  O341  1  -0.00192240  0.50907766  0.12959627  1
  O  O342  1  -0.00045391  0.49488113  0.61168747  1
  O  O343  1  0.49927940  -0.00309940  0.11224184  1
  O  O344  1  0.50782629  0.00853876  0.62128690  1
  O  O345  1  0.50313731  0.51015095  0.12332575  1
  O  O346  1  0.50988881  0.50928981  0.61863925  1
  O  O347  1  0.24130407  0.38198610  0.24573883  1
  O  O348  1  0.27201605  0.29845454  0.70965531  1
  O  O349  1  0.24653888  0.88357395  0.24168887  1
  O  O350  1  0.24245071  0.88577535  0.75293883  1
  O  O351  1  0.75340885  0.38527203  0.24011620  1
  O  O352  1  0.75063383  0.37258735  0.75573588  1
  O  O353  1  0.74976990  0.88402694  0.24571400  1
  O  O354  1  0.73765829  0.86983899  0.74343229  1
  O  O355  1  0.25206361  0.11950725  0.25699250  1
  O  O356  1  0.25734266  0.11759519  0.76146281  1
  O  O357  1  0.25801824  0.61876313  0.24344935  1
  O  O358  1  0.25620453  0.63252841  0.75027259  1
  O  O359  1  0.75461335  0.11965652  0.25495106  1
  O  O360  1  0.76411918  0.13282475  0.76202671  1
  O  O361  1  0.75252913  0.61899872  0.25420033  1
  O  O362  1  0.76154688  0.62357264  0.76080181  1
  O  O363  1  0.36631777  0.12213270  0.36631451  1
  O  O364  1  0.36898349  0.11766284  0.87232312  1
  O  O365  1  0.38143693  0.61627364  0.36334895  1
  O  O366  1  0.37540487  0.62125319  0.85701915  1
  O  O367  1  0.87024923  0.11816945  0.36899789  1
  O  O368  1  0.87071870  0.11895302  0.86943523  1
  O  O369  1  0.86710648  0.62394815  0.36626311  1
  O  O370  1  0.87303227  0.62086941  0.86724826  1
  O  O371  1  0.13078174  0.36546271  0.13757643  1
  O  O372  1  0.12931660  0.38723075  0.62690130  1
  O  O373  1  0.12977269  0.87681336  0.13150861  1
  O  O374  1  0.12092834  0.88251222  0.63742002  1
  O  O375  1  0.63641616  0.38323170  0.11239968  1
  O  O376  1  0.62304691  0.39038893  0.61609044  1
  O  O377  1  0.63457879  0.88169589  0.13203742  1
  O  O378  1  0.62884118  0.87896273  0.63458146  1
  O  O379  1  0.11826677  0.25645717  0.25643021  1
  O  O380  1  0.11090895  0.23769866  0.76301360  1
  O  O381  1  0.13419261  0.76879982  0.25333514  1
  O  O382  1  0.11920999  0.75605808  0.74482588  1
  O  O383  1  0.61039804  0.24352251  0.24950768  1
  O  O384  1  0.61418822  0.24845391  0.74517613  1
  O  O385  1  0.61474947  0.75353119  0.26023613  1
  O  O386  1  0.62494514  0.75739132  0.74645843  1
  O  O387  1  0.38193283  0.24286780  0.24490286  1
  O  O388  1  0.39606224  0.23610879  0.75007472  1
  O  O389  1  0.38170418  0.74385444  0.25831622  1
  O  O390  1  0.37056900  0.74749834  0.73901194  1
  O  O391  1  0.87946785  0.24587405  0.24520840  1
  O  O392  1  0.89117432  0.23816422  0.74991545  1
  O  O393  1  0.86701586  0.73692052  0.24277891  1
  O  O394  1  0.88140925  0.74351819  0.74277484  1
  O  O395  1  0.38059139  0.49775179  0.49091917  1
  O  O396  1  0.38969143  0.51288046  1.00194389  1
  O  O397  1  0.38091296  0.99837178  0.49779941  1
  O  O398  1  0.37989780  0.99535641  0.99378841  1
  O  O399  1  0.88124265  0.49024994  0.49825162  1
  O  O400  1  0.87247958  0.48951874  1.00915103  1
  O  O401  1  0.87014468  0.99246149  0.48955943  1
  O  O402  1  0.87692107  0.98836086  0.99602641  1
  O  O403  1  0.12253677  0.01149292  -0.00653762  1
  O  O404  1  0.12633584  0.01739309  0.50081149  1
  O  O405  1  0.13592211  0.51587167  0.00219245  1
  O  O406  1  0.10488713  0.49584339  0.49107378  1
  O  O407  1  0.61609645  0.00358795  -0.00060240  1
  O  O408  1  0.62024043  0.00592157  0.50940454  1
  O  O409  1  0.60804336  0.50709964  0.01543220  1
  O  O410  1  0.61913464  0.51141653  0.50601654  1
  O  O411  1  0.36606992  0.36428709  0.12611291  1
  O  O412  1  0.37874873  0.36332047  0.61632287  1
  O  O413  1  0.36342663  0.88266522  0.11319813  1
  O  O414  1  0.38549627  0.86812540  0.61784055  1
  O  O415  1  0.86582621  0.36921229  0.11872406  1
  O  O416  1  0.87035347  0.36855610  0.61267585  1
  O  O417  1  0.86957738  0.86950452  0.12246134  1
  O  O418  1  0.86771735  0.87080535  0.61992550  1
  O  O419  1  0.12847485  0.12971070  0.37984727  1
  O  O420  1  0.13151893  0.12782048  0.88152823  1
  O  O421  1  0.11848744  0.63468747  0.38361802  1
  O  O422  1  0.13560391  0.62462473  0.87645658  1
  O  O423  1  0.63127374  0.12664699  0.38386429  1
  O  O424  1  0.63929036  0.11715819  0.88534760  1
  O  O425  1  0.62511568  0.63019363  0.38305909  1
  O  O426  1  0.62533934  0.62946956  0.88044175  1
