# generated using pymatgen
data_V85Zn86O256
_symmetry_space_group_name_H-M   'P 1'
_cell_length_a   16.97937441
_cell_length_b   16.96974293
_cell_length_c   16.96215629
_cell_angle_alpha   90.00787386
_cell_angle_beta   90.03817056
_cell_angle_gamma   89.88064745
_symmetry_Int_Tables_number   1
_chemical_formula_structural   V85Zn86O256
_chemical_formula_sum   'V85 Zn86 O256'
_cell_volume   4887.38966589
_cell_formula_units_Z   1
loop_
 _symmetry_equiv_pos_site_id
 _symmetry_equiv_pos_as_xyz
  1  'x, y, z'
loop_
 _atom_site_type_symbol
 _atom_site_label
 _atom_site_symmetry_multiplicity
 _atom_site_fract_x
 _atom_site_fract_y
 _atom_site_fract_z
 _atom_site_occupancy
  V  V0  1  0.87937545  0.50547760  0.37626692  1
  V  V1  1  0.62144248  0.49445718  0.62551384  1
  V  V2  1  0.76401406  0.37137852  0.61617441  1
  V  V3  1  0.37134822  0.38485839  -0.00084582  1
  V  V4  1  0.74926033  -0.00261647  0.73540542  1
  V  V5  1  -0.00104142  0.12074565  0.62828428  1
  V  V6  1  -0.00496190  0.75473123  0.74927050  1
  V  V7  1  0.87033000  0.75211564  0.11938496  1
  V  V8  1  0.36465347  0.63259632  0.24619279  1
  V  V9  1  0.74504925  0.86165640  0.61933827  1
  V  V10  1  0.61340267  0.87306443  0.74945684  1
  V  V11  1  0.87456175  0.25042133  0.12549920  1
  V  V12  1  0.62651829  0.25753201  0.85944488  1
  V  V13  1  0.50177935  0.50993599  0.50049923  1
  V  V14  1  0.12306252  0.11995088  0.00072452  1
  V  V15  1  0.62224321  0.62535206  -0.00230756  1
  V  V16  1  0.87595051  0.12360819  0.24812141  1
  V  V17  1  0.62717963  0.87319390  0.24545230  1
  V  V18  1  0.50898021  0.13180000  0.63135078  1
  V  V19  1  0.50765444  0.00465421  0.50541890  1
  V  V20  1  0.50370892  0.25772541  0.24957721  1
  V  V21  1  0.86871679  0.62726791  0.25057312  1
  V  V22  1  -0.00033252  0.25309233  0.25336213  1
  V  V23  1  0.87279575  0.62348378  0.74717151  1
  V  V24  1  0.37338316  0.51548769  0.37524868  1
  V  V25  1  0.00270324  0.11597543  0.12654699  1
  V  V26  1  0.49740691  0.00468527  -0.02079507  1
  V  V27  1  0.25225403  0.37925733  0.62534833  1
  V  V28  1  0.12087218  0.37681785  0.25751144  1
  V  V29  1  0.38583753  0.63145653  0.75225483  1
  V  V30  1  0.87017959  0.86579179  0.50295068  1
  V  V31  1  -0.05856602  0.33593362  0.43392324  1
  V  V32  1  0.74462761  0.37705216  0.12949632  1
  V  V33  1  0.25265321  0.25201582  0.50315386  1
  V  V34  1  0.49684527  0.37709013  0.86357714  1
  V  V35  1  0.12819542  0.11771555  0.50549256  1
  V  V36  1  0.74366293  0.50308748  0.25751253  1
  V  V37  1  0.61989346  0.49929181  0.13139033  1
  V  V38  1  0.12662689  0.87902272  0.74728955  1
  V  V39  1  0.38006871  0.37816121  0.49510337  1
  V  V40  1  0.50522461  0.87702611  0.37468789  1
  V  V41  1  0.74948313  0.25155983  -0.00179720  1
  V  V42  1  0.63123154  0.12705727  0.00099507  1
  V  V43  1  0.24863270  0.50134543  0.25404306  1
  V  V44  1  0.74770513  0.75053226  -0.01261643  1
  V  V45  1  0.12549033  0.25709126  0.37884930  1
  V  V46  1  0.64350572  0.62806444  0.50045011  1
  V  V47  1  0.14518667  0.62363201  0.50507734  1
  V  V48  1  0.12367634  0.49716939  0.12751751  1
  V  V49  1  -0.00228665  0.37522304  0.87247831  1
  V  V50  1  -0.00430216  0.24901184  0.74332870  1
  V  V51  1  0.25187683  0.12514748  0.37479488  1
  V  V52  1  0.29573002  0.19548500  -0.06074466  1
  V  V53  1  0.24710929  0.35977499  0.12483091  1
  V  V54  1  0.87340204  0.37482900  0.00099056  1
  V  V55  1  -0.00082834  -0.00769622  -0.00964879  1
  V  V56  1  0.24264007  0.87400398  0.61462596  1
  V  V57  1  0.87753524  -0.00483961  0.37431565  1
  V  V58  1  0.63957604  0.74522187  0.37606966  1
  V  V59  1  0.37514012  0.86968180  0.50062649  1
  V  V60  1  0.00470359  -0.00716108  0.51001713  1
  V  V61  1  -0.00745381  0.61975952  0.12080631  1
  V  V62  1  0.11854124  0.75062262  0.87182486  1
  V  V63  1  0.00159130  0.87015778  0.37237276  1
  V  V64  1  0.74535830  0.49016557  0.74899066  1
  V  V65  1  0.37847256  0.00562113  0.37692934  1
  V  V66  1  0.75019772  -0.00052709  0.24634563  1
  V  V67  1  0.75418057  0.11571375  0.87138828  1
  V  V68  1  0.49370741  0.63106342  0.12485192  1
  V  V69  1  0.12198348  0.62108874  -0.00237080  1
  V  V70  1  0.49723566  0.75128300  0.24833082  1
  V  V71  1  0.13267968  0.73844611  0.38133448  1
  V  V72  1  0.87861005  0.12033039  0.75008008  1
  V  V73  1  0.38589181  0.25294933  0.63238838  1
  V  V74  1  0.87108414  0.49971501  0.87374888  1
  V  V75  1  0.00955996  0.75242618  0.23996252  1
  V  V76  1  -0.00066240  0.50587457  0.49903689  1
  V  V77  1  0.74811031  0.12349051  0.37655282  1
  V  V78  1  0.62320794  -0.00384540  0.12073944  1
  V  V79  1  0.24716439  0.75842164  0.00752974  1
  V  V80  1  0.25306769  0.62130492  0.87807967  1
  V  V81  1  0.25398125  0.50287810  0.75609328  1
  V  V82  1  -0.00227537  0.49720429  -0.00105103  1
  V  V83  1  0.62957875  0.26214435  0.37592985  1
  V  V84  1  0.12004877  0.25034196  0.88059918  1
  Zn  Zn85  1  0.87176737  0.87871378  -0.01434520  1
  Zn  Zn86  1  0.12651337  0.37645167  0.75046380  1
  Zn  Zn87  1  0.37546487  0.24781787  0.12508103  1
  Zn  Zn88  1  0.74967196  0.87551118  0.11713172  1
  Zn  Zn89  1  0.63392731  0.12427459  0.50419863  1
  Zn  Zn90  1  0.26465018  0.00144097  0.75986798  1
  Zn  Zn91  1  0.50080885  0.12923985  0.12728374  1
  Zn  Zn92  1  0.58576380  0.74414554  0.85337389  1
  Zn  Zn93  1  0.25540740  -0.01373902  0.24128213  1
  Zn  Zn94  1  0.76481308  0.25172175  0.50093614  1
  Zn  Zn95  1  0.87246941  0.74381319  0.61919331  1
  Zn  Zn96  1  0.13695581  0.88127809  0.24775180  1
  Zn  Zn97  1  0.31330820  0.81974670  0.16351706  1
  Zn  Zn98  1  0.12388378  0.50011134  0.62848765  1
  Zn  Zn99  1  0.00288436  0.62512136  0.62675818  1
  Zn  Zn100  1  0.38628235  0.87481663  -0.00736658  1
  Zn  Zn101  1  0.74055120  0.62303114  0.86891669  1
  Zn  Zn102  1  0.38049419  0.12787596  0.24982121  1
  Zn  Zn103  1  0.50647215  0.38275858  0.37048367  1
  Zn  Zn104  1  0.38102333  0.75491557  0.63875651  1
  Zn  Zn105  1  0.37489489  0.12502604  0.75940155  1
  Zn  Zn106  1  0.49699290  0.49716640  0.00044602  1
  Zn  Zn107  1  0.21133685  0.14677304  0.16444887  1
  Zn  Zn108  1  0.18521194  0.19115830  0.69246358  1
  Zn  Zn109  1  0.17411437  0.69475423  0.18496352  1
  Zn  Zn110  1  0.19381182  0.69350903  0.68545143  1
  Zn  Zn111  1  0.68502127  0.18900672  0.19020473  1
  Zn  Zn112  1  0.69293285  0.18994638  0.68326423  1
  Zn  Zn113  1  0.68497829  0.68754891  0.18400938  1
  Zn  Zn114  1  0.68211949  0.68328418  0.68661175  1
  Zn  Zn115  1  0.31346313  0.31410969  0.31385380  1
  Zn  Zn116  1  0.31976789  0.31885468  0.80713222  1
  Zn  Zn117  1  0.31605087  0.80857061  0.33377402  1
  Zn  Zn118  1  0.31135009  0.81193612  0.81822509  1
  Zn  Zn119  1  0.80592792  0.31298502  0.30688196  1
  Zn  Zn120  1  0.81281497  0.30926343  0.80697211  1
  Zn  Zn121  1  0.81608441  0.81373979  0.30687490  1
  Zn  Zn122  1  0.80711309  0.81168267  0.80886415  1
  Zn  Zn123  1  0.18902480  0.44254976  0.43899531  1
  Zn  Zn124  1  0.18779685  0.43437613  0.93930494  1
  Zn  Zn125  1  0.18721552  0.93668053  0.42859220  1
  Zn  Zn126  1  0.22060058  0.92662758  0.92165395  1
  Zn  Zn127  1  0.69295291  0.44078338  0.44106508  1
  Zn  Zn128  1  0.68290404  0.43812593  0.93951792  1
  Zn  Zn129  1  0.68773232  0.93678352  0.43699369  1
  Zn  Zn130  1  0.68317962  0.93444932  0.93002867  1
  Zn  Zn131  1  0.32923713  0.03721136  0.07749600  1
  Zn  Zn132  1  0.29830574  0.07676089  0.60184905  1
  Zn  Zn133  1  0.30681716  0.56153300  0.06733492  1
  Zn  Zn134  1  0.32021210  0.56403645  0.57149304  1
  Zn  Zn135  1  0.81585125  0.06038073  0.05992515  1
  Zn  Zn136  1  0.82018131  0.05839476  0.56159680  1
  Zn  Zn137  1  0.80565468  0.56230298  0.06130370  1
  Zn  Zn138  1  0.81440028  0.55543188  0.56373067  1
  Zn  Zn139  1  0.43465667  0.43531103  0.18746656  1
  Zn  Zn140  1  0.43479077  0.44742810  0.68642130  1
  Zn  Zn141  1  0.44138194  0.94205229  0.18593077  1
  Zn  Zn142  1  0.43312935  0.94467241  0.68462678  1
  Zn  Zn143  1  0.93451005  0.43646510  0.19177970  1
  Zn  Zn144  1  0.93847218  0.43981761  0.68574442  1
  Zn  Zn145  1  0.93677469  0.93499675  0.18277987  1
  Zn  Zn146  1  0.93743449  0.93776709  0.81023768  1
  Zn  Zn147  1  0.06752966  0.06013199  0.31397838  1
  Zn  Zn148  1  0.09964957  0.04362655  0.83152084  1
  Zn  Zn149  1  0.06071867  0.57160904  0.31344451  1
  Zn  Zn150  1  0.06373196  0.56297891  0.80917597  1
  Zn  Zn151  1  0.56534721  0.06608267  0.31065673  1
  Zn  Zn152  1  0.57357426  0.06416586  0.80287381  1
  Zn  Zn153  1  0.55918360  0.56953410  0.31595151  1
  Zn  Zn154  1  0.56318895  0.55415942  0.81413397  1
  Zn  Zn155  1  0.44255415  0.19062776  0.44062993  1
  Zn  Zn156  1  0.45714998  0.19171931  0.93762931  1
  Zn  Zn157  1  0.45857548  0.70973733  0.46901561  1
  Zn  Zn158  1  0.42879568  0.68518706  0.94114176  1
  Zn  Zn159  1  0.93923724  0.17072315  0.43699581  1
  Zn  Zn160  1  0.93780282  0.18478856  0.93602319  1
  Zn  Zn161  1  0.93883800  0.68577984  0.43464050  1
  Zn  Zn162  1  0.93306454  0.68773627  0.93255038  1
  Zn  Zn163  1  0.06181059  0.30826850  0.06652920  1
  Zn  Zn164  1  0.06808061  0.31062004  0.56866621  1
  Zn  Zn165  1  0.06817778  0.81135629  0.06490858  1
  Zn  Zn166  1  0.05960654  0.80604232  0.56364268  1
  Zn  Zn167  1  0.56236943  0.31502859  0.06041725  1
  Zn  Zn168  1  0.56776729  0.31648845  0.55784193  1
  Zn  Zn169  1  0.54488207  0.80014194  0.03064199  1
  Zn  Zn170  1  0.56404926  0.81076979  0.56722196  1
  O  O171  1  0.10862432  0.14622473  0.11114481  1
  O  O172  1  0.11359834  0.13285527  0.61229575  1
  O  O173  1  0.11303629  0.61548768  0.11754198  1
  O  O174  1  0.12691402  0.62528789  0.61462474  1
  O  O175  1  0.63100741  0.12136857  0.11226326  1
  O  O176  1  0.61478245  0.13297374  0.62061992  1
  O  O177  1  0.61619713  0.61478585  0.12159076  1
  O  O178  1  0.63152241  0.61330362  0.60872601  1
  O  O179  1  0.37355713  0.38604771  0.38659707  1
  O  O180  1  0.38866842  0.36692592  0.88425464  1
  O  O181  1  0.39001786  0.88854666  0.37549572  1
  O  O182  1  0.32785956  0.88757340  0.89666105  1
  O  O183  1  0.87802026  0.38498780  0.36532147  1
  O  O184  1  0.88259558  0.37789552  0.87829678  1
  O  O185  1  0.88085987  0.87776593  0.38021238  1
  O  O186  1  0.87717460  0.86893066  0.87340013  1
  O  O187  1  0.26343364  0.01137065  0.38065124  1
  O  O188  1  0.20719576  0.01521474  0.85665529  1
  O  O189  1  0.25695726  0.49809161  0.36195023  1
  O  O190  1  0.24314893  0.50790916  0.86891288  1
  O  O191  1  0.75630926  0.00650821  0.36960945  1
  O  O192  1  0.74282169  0.01263901  0.86478617  1
  O  O193  1  0.75912691  0.49426830  0.36203308  1
  O  O194  1  0.75183369  0.49718061  0.86621395  1
  O  O195  1  0.24251102  0.48955347  0.13679721  1
  O  O196  1  0.25256555  0.49046933  0.63222698  1
  O  O197  1  0.24130782  1.03897058  0.14096291  1
  O  O198  1  0.25028206  0.97683443  0.63133703  1
  O  O199  1  0.74194275  0.49505887  0.13431615  1
  O  O200  1  0.74537790  0.48913432  0.63003617  1
  O  O201  1  0.74106558  1.00082729  0.12649510  1
  O  O202  1  0.75526945  0.99328009  0.63174752  1
  O  O203  1  0.00830611  0.36604895  0.24515163  1
  O  O204  1  -0.00083848  0.36757461  0.75616974  1
  O  O205  1  -0.00722383  0.87196470  0.26402762  1
  O  O206  1  0.00553884  0.85870781  0.75033288  1
  O  O207  1  0.49967162  0.36393951  0.25327174  1
  O  O208  1  0.49072485  0.38102913  0.76448936  1
  O  O209  1  0.50670274  0.87124297  0.25526706  1
  O  O210  1  0.51568500  0.87963745  0.73304490  1
  O  O211  1  0.50298918  0.14231862  0.25244688  1
  O  O212  1  0.50230246  0.12566640  0.73363793  1
  O  O213  1  0.48836414  0.63311111  0.24478827  1
  O  O214  1  0.48408372  0.62135164  0.76479830  1
  O  O215  1  0.99725057  0.13031964  0.24601162  1
  O  O216  1  0.99590564  0.12925875  0.74280155  1
  O  O217  1  0.98437684  0.62571545  0.23781289  1
  O  O218  1  0.99058679  0.63064256  0.74871195  1
  O  O219  1  0.36492220  0.25085534  -0.00296207  1
  O  O220  1  0.37237101  0.26300064  0.50294959  1
  O  O221  1  0.34997381  0.75527628  -0.00203507  1
  O  O222  1  0.36235586  0.77491377  0.46569428  1
  O  O223  1  0.86858247  0.25536579  0.00484803  1
  O  O224  1  0.88387281  0.26174859  0.48237062  1
  O  O225  1  0.86369146  0.74807607  0.00311395  1
  O  O226  1  0.87933672  0.76180447  0.49716823  1
  O  O227  1  0.12979403  0.24483265  0.49352323  1
  O  O228  1  0.11745874  0.24676245  0.98788407  1
  O  O229  1  0.11991097  0.73402997  0.49260093  1
  O  O230  1  0.12315156  0.73682017  0.99204926  1
  O  O231  1  0.63038658  0.24674843  0.48431743  1
  O  O232  1  0.63262981  0.24302144  0.99600681  1
  O  O233  1  0.62840757  0.73511789  0.49274047  1
  O  O234  1  0.63802787  0.73313347  1.01486189  1
  O  O235  1  0.50576063  0.25176126  0.13895341  1
  O  O236  1  0.49812772  0.24384287  0.61545658  1
  O  O237  1  0.50264170  0.73693326  0.12664248  1
  O  O238  1  0.47559025  0.74775317  0.57757747  1
  O  O239  1  0.98922852  0.24422237  0.13194056  1
  O  O240  1  1.00408580  0.24340341  0.63740378  1
  O  O241  1  0.98149162  0.73643980  0.11689000  1
  O  O242  1  0.99280475  0.74450693  0.63415404  1
  O  O243  1  0.00292913  0.25806563  0.37854676  1
  O  O244  1  0.00223659  0.25808081  0.86701131  1
  O  O245  1  0.00447511  0.75660859  0.36869357  1
  O  O246  1  0.01168971  0.74015618  0.86789220  1
  O  O247  1  0.51401893  0.25569201  0.36994279  1
  O  O248  1  0.51744722  0.26124010  0.87327458  1
  O  O249  1  0.51014032  0.76462847  0.37242761  1
  O  O250  1  0.50376829  0.76408549  0.92470856  1
  O  O251  1  0.24361377  0.13116937  0.50156859  1
  O  O252  1  0.24038327  0.13262651  0.99660516  1
  O  O253  1  0.24339584  0.61799901  0.50345726  1
  O  O254  1  0.24099995  0.62682348  0.99543001  1
  O  O255  1  0.75609102  0.12851830  0.49132903  1
  O  O256  1  0.74818934  0.12889422  0.99018361  1
  O  O257  1  0.74174884  0.61689348  0.49640230  1
  O  O258  1  0.74024030  0.62889973  0.99421743  1
  O  O259  1  0.25619528  0.37607068  0.01164944  1
  O  O260  1  0.25888946  0.37540947  0.50773717  1
  O  O261  1  0.21637789  0.85509686  0.01437322  1
  O  O262  1  0.25609273  0.88216171  0.50759360  1
  O  O263  1  0.75427114  0.37286868  0.00997185  1
  O  O264  1  0.75544783  0.37474864  0.51104782  1
  O  O265  1  0.74812606  0.86507335  -0.00222476  1
  O  O266  1  0.75540785  0.88010679  0.51029817  1
  O  O267  1  0.12985600  0.49893797  0.24868185  1
  O  O268  1  0.13714559  0.49820015  0.74730033  1
  O  O269  1  0.14010459  0.99087367  0.26929974  1
  O  O270  1  0.10436647  0.97537001  0.73736930  1
  O  O271  1  0.63274866  0.50945945  0.24493783  1
  O  O272  1  0.63379998  0.50501964  0.73840840  1
  O  O273  1  0.63232420  0.99628149  0.24181187  1
  O  O274  1  0.63754458  0.98764015  0.74580545  1
  O  O275  1  0.37742015  0.00706245  0.26487153  1
  O  O276  1  0.37742897  0.01165386  0.75063694  1
  O  O277  1  0.36658035  0.50488440  0.25589404  1
  O  O278  1  0.36214348  0.51217371  0.75063342  1
  O  O279  1  0.86969924  0.00396961  0.25249425  1
  O  O280  1  0.86857861  0.01286555  0.75316285  1
  O  O281  1  0.86799429  0.50835017  0.25564125  1
  O  O282  1  0.86786949  0.50416742  0.75523632  1
  O  O283  1  0.13006170  0.36864836  0.37226687  1
  O  O284  1  0.11138963  0.37043568  0.87537226  1
  O  O285  1  0.11757839  0.85504831  0.37487035  1
  O  O286  1  0.12868934  0.86168534  0.85728929  1
  O  O287  1  0.63047951  0.36489992  0.37684054  1
  O  O288  1  0.61754536  0.36341632  0.87988039  1
  O  O289  1  0.62080478  0.87096702  0.36735250  1
  O  O290  1  0.62633868  0.87078894  0.85282859  1
  O  O291  1  0.38300106  0.13254638  0.13074116  1
  O  O292  1  0.39488627  0.14142430  0.61079995  1
  O  O293  1  0.38342643  0.61746405  0.13394988  1
  O  O294  1  0.37303042  0.62867670  0.64792437  1
  O  O295  1  0.88187596  0.13031636  0.12993248  1
  O  O296  1  0.89044565  0.12223235  0.62998559  1
  O  O297  1  0.87514010  0.62760330  0.12864731  1
  O  O298  1  0.87377866  0.62262596  0.63649816  1
  O  O299  1  0.24871484  0.25791596  0.13637776  1
  O  O300  1  0.25971491  0.26423108  0.62050726  1
  O  O301  1  0.24973730  0.73721374  0.11168845  1
  O  O302  1  0.26097646  0.76724401  0.62772192  1
  O  O303  1  0.75285884  0.25878863  0.12169885  1
  O  O304  1  0.74907838  0.26619599  0.62054604  1
  O  O305  1  0.75988861  0.74775371  0.11743574  1
  O  O306  1  0.75133954  0.75915898  0.62568063  1
  O  O307  1  0.24345499  0.24881892  0.38604784  1
  O  O308  1  0.24115972  0.25667945  0.87471702  1
  O  O309  1  0.23023681  0.74311874  0.37303174  1
  O  O310  1  0.23479547  0.73848893  0.88629848  1
  O  O311  1  0.74318914  0.24388859  0.37390903  1
  O  O312  1  0.74167949  0.24808667  0.87930024  1
  O  O313  1  0.73812309  0.75539967  0.36632094  1
  O  O314  1  0.74562287  0.74458393  0.88349330  1
  O  O315  1  0.00127497  0.11814811  0.00773950  1
  O  O316  1  0.00802262  0.11444258  0.50544914  1
  O  O317  1  0.00034258  0.61465045  0.00137497  1
  O  O318  1  0.00026263  0.61381359  0.50410926  1
  O  O319  1  0.51706178  0.12058278  0.00242223  1
  O  O320  1  0.50769038  0.11579434  0.50039657  1
  O  O321  1  0.50324028  0.61737056  0.00980352  1
  O  O322  1  0.51214665  0.61121627  0.49018830  1
  O  O323  1  0.49477864  0.38715731  0.49419682  1
  O  O324  1  0.48718789  0.37345167  0.99628067  1
  O  O325  1  0.49860793  0.88783418  0.49156368  1
  O  O326  1  0.50229578  0.90288310  1.00338334  1
  O  O327  1  1.00596615  0.38548010  0.50138944  1
  O  O328  1  0.99259621  0.37819263  0.99373413  1
  O  O329  1  0.99601986  0.87697659  0.49141649  1
  O  O330  1  1.00802813  0.89182775  1.00967663  1
  O  O331  1  0.49031088  0.49927271  0.37846084  1
  O  O332  1  0.50951355  0.48011820  0.88332052  1
  O  O333  1  0.50018078  0.99544833  0.37854634  1
  O  O334  1  0.51083387  1.00968415  0.88141786  1
  O  O335  1  0.99056762  0.50191714  0.38104214  1
  O  O336  1  0.99399573  0.49148434  0.87721112  1
  O  O337  1  0.99437189  0.99167548  0.38282544  1
  O  O338  1  1.00379444  1.00077379  0.88640648  1
  O  O339  1  -0.00016212  0.01251993  0.12328259  1
  O  O340  1  0.00039620  0.00637541  0.61047983  1
  O  O341  1  0.00179782  0.50179683  0.11963894  1
  O  O342  1  0.00339241  0.50248294  0.61559910  1
  O  O343  1  0.51740736  0.00981920  0.12598417  1
  O  O344  1  0.49812981  0.01418204  0.60956904  1
  O  O345  1  0.50657859  0.50638136  0.12791001  1
  O  O346  1  0.50905348  0.49712612  0.61468682  1
  O  O347  1  0.24308663  0.38153848  0.24502684  1
  O  O348  1  0.25231036  0.38448221  0.74340736  1
  O  O349  1  0.25635867  0.86788969  0.25185499  1
  O  O350  1  0.23527120  0.87282565  0.74168055  1
  O  O351  1  0.75143077  0.38542413  0.23629134  1
  O  O352  1  0.75457262  0.38463628  0.74019681  1
  O  O353  1  0.74535693  0.88262869  0.24406987  1
  O  O354  1  0.74602818  0.87972868  0.73432560  1
  O  O355  1  0.25536868  0.14055775  0.27348528  1
  O  O356  1  0.26419402  0.11706682  0.71123586  1
  O  O357  1  0.25941244  0.61719269  0.23999052  1
  O  O358  1  0.25248754  0.62056045  0.76055267  1
  O  O359  1  0.75587092  0.11990035  0.25586970  1
  O  O360  1  0.75692797  0.11799145  0.75045640  1
  O  O361  1  0.76067748  0.61750262  0.24254771  1
  O  O362  1  0.75513230  0.61301626  0.74937401  1
  O  O363  1  0.36901272  0.12190502  0.38139319  1
  O  O364  1  0.36375101  0.14744805  0.87958830  1
  O  O365  1  0.37694242  0.61657975  0.36346374  1
  O  O366  1  0.35982061  0.62571485  0.87133809  1
  O  O367  1  0.86646682  0.11671259  0.36697641  1
  O  O368  1  0.86348683  0.13121411  0.86626492  1
  O  O369  1  0.87737744  0.61752014  0.36318776  1
  O  O370  1  0.86989634  0.61638240  0.86338999  1
  O  O371  1  0.12985924  0.37835216  0.13291948  1
  O  O372  1  0.13874688  0.37691571  0.62902563  1
  O  O373  1  0.10251350  0.80339479  0.17286135  1
  O  O374  1  0.13424175  0.86174721  0.63123236  1
  O  O375  1  0.63145086  0.38946043  0.11897371  1
  O  O376  1  0.63572483  0.38947268  0.61672896  1
  O  O377  1  0.62705193  0.88387084  0.12959407  1
  O  O378  1  0.63831497  0.87284688  0.62634222  1
  O  O379  1  0.11618740  0.25332111  0.27057247  1
  O  O380  1  0.11647509  0.25284417  0.76164560  1
  O  O381  1  0.10974890  0.70247685  0.27944994  1
  O  O382  1  0.11588482  0.75056647  0.75480713  1
  O  O383  1  0.61819628  0.24943003  0.26347870  1
  O  O384  1  0.63318592  0.25189368  0.76167346  1
  O  O385  1  0.61755756  0.75249856  0.25488080  1
  O  O386  1  0.62339618  0.76207208  0.74612233  1
  O  O387  1  0.39204869  0.25199135  0.25554789  1
  O  O388  1  0.37656990  0.24791770  0.73499127  1
  O  O389  1  0.37783507  0.74592753  0.24942819  1
  O  O390  1  0.37399263  0.73775203  0.75799073  1
  O  O391  1  0.87961291  0.24339389  0.24651621  1
  O  O392  1  0.88444208  0.23639592  0.75279517  1
  O  O393  1  0.88189252  0.74380762  0.23933496  1
  O  O394  1  0.87938621  0.73893886  0.74909404  1
  O  O395  1  0.38237599  0.49975909  0.49435141  1
  O  O396  1  0.37305800  0.48768492  1.00460682  1
  O  O397  1  0.39163830  0.99299169  0.48750199  1
  O  O398  1  0.39678125  1.01805858  0.99165611  1
  O  O399  1  0.88358926  0.50140960  0.48701191  1
  O  O400  1  0.87659961  0.49375643  0.99369369  1
  O  O401  1  0.88473210  0.98689218  0.49353945  1
  O  O402  1  0.89355184  0.99761925  1.00327444  1
  O  O403  1  0.11157111  0.01718188  0.00209473  1
  O  O404  1  0.11779117  0.00780339  0.49119633  1
  O  O405  1  0.11717827  0.50178443  0.00650584  1
  O  O406  1  0.12014405  0.51089834  0.50379207  1
  O  O407  1  0.62418995  0.00922955  0.00302890  1
  O  O408  1  0.61154702  0.00308678  0.49281063  1
  O  O409  1  0.62537405  0.51141647  0.01042273  1
  O  O410  1  0.62101517  0.50824688  0.50161404  1
  O  O411  1  0.36613977  0.36797972  0.11707406  1
  O  O412  1  0.37372040  0.37350822  0.61427573  1
  O  O413  1  0.36914223  0.90026692  0.10887067  1
  O  O414  1  0.36836769  0.87477540  0.61383070  1
  O  O415  1  0.86581581  0.37091574  0.12083135  1
  O  O416  1  0.86268574  0.37876185  0.62530924  1
  O  O417  1  0.87228672  0.86424635  0.11697320  1
  O  O418  1  0.85947077  0.86958551  0.61400051  1
  O  O419  1  0.13190341  0.13427433  0.38856336  1
  O  O420  1  0.11222346  0.14190266  0.88813485  1
  O  O421  1  0.12076863  0.62471177  0.39950391  1
  O  O422  1  0.13111136  0.62747664  0.88017384  1
  O  O423  1  0.64032613  0.13103852  0.37471084  1
  O  O424  1  0.63398710  0.13840124  0.87919012  1
  O  O425  1  0.62567425  0.63336832  0.38525429  1
  O  O426  1  0.61992793  0.62931446  0.88349492  1
