# generated using pymatgen
data_V85Zn86O256
_symmetry_space_group_name_H-M   'P 1'
_cell_length_a   16.92844340
_cell_length_b   16.93390093
_cell_length_c   16.92798904
_cell_angle_alpha   89.91153278
_cell_angle_beta   89.99358560
_cell_angle_gamma   90.03669784
_symmetry_Int_Tables_number   1
_chemical_formula_structural   V85Zn86O256
_chemical_formula_sum   'V85 Zn86 O256'
_cell_volume   4852.64811565
_cell_formula_units_Z   1
loop_
 _symmetry_equiv_pos_site_id
 _symmetry_equiv_pos_as_xyz
  1  'x, y, z'
loop_
 _atom_site_type_symbol
 _atom_site_label
 _atom_site_symmetry_multiplicity
 _atom_site_fract_x
 _atom_site_fract_y
 _atom_site_fract_z
 _atom_site_occupancy
  V  V0  1  0.75146608  0.00076301  0.75420498  1
  V  V1  1  0.62916212  0.00277402  0.12904106  1
  V  V2  1  0.87599147  0.62448194  0.25141611  1
  V  V3  1  0.37659068  0.37584512  -0.00375338  1
  V  V4  1  0.62733681  0.87946051  0.25055591  1
  V  V5  1  0.24727663  0.86364058  0.12143333  1
  V  V6  1  0.75049281  0.49958802  0.25244744  1
  V  V7  1  0.12251003  0.74761863  0.37703030  1
  V  V8  1  0.24862365  0.49830678  0.76212534  1
  V  V9  1  0.87512385  0.49498019  0.38346959  1
  V  V10  1  0.00632673  0.63111160  0.61954274  1
  V  V11  1  0.00160001  0.62587586  0.11594095  1
  V  V12  1  0.75205029  0.37558673  0.12530973  1
  V  V13  1  0.24732292  0.62510578  0.37708069  1
  V  V14  1  0.62558666  0.75219440  0.37690474  1
  V  V15  1  0.75213529  0.25657460  0.49129265  1
  V  V16  1  0.75208057  0.87977176  0.12876667  1
  V  V17  1  0.13176504  0.23579736  0.38015413  1
  V  V18  1  0.87353617  0.11045784  0.25238963  1
  V  V19  1  0.12184807  0.00871186  0.61972571  1
  V  V20  1  -0.00324606  0.37052904  0.38177469  1
  V  V21  1  0.37346169  0.63026806  0.24390086  1
  V  V22  1  0.62492362  -0.00114434  0.62404310  1
  V  V23  1  0.62677418  0.13149159  0.49348502  1
  V  V24  1  0.24444503  0.74700345  0.50029057  1
  V  V25  1  0.49583344  0.75350530  0.24396477  1
  V  V26  1  -0.00970089  0.01014494  0.50611021  1
  V  V27  1  0.49837850  0.12767604  0.12474709  1
  V  V28  1  0.12129326  0.10585651  -0.00404835  1
  V  V29  1  0.00856567  0.49898367  0.50251017  1
  V  V30  1  -0.00193511  0.24611386  0.24753674  1
  V  V31  1  0.62495806  0.87517523  0.74961078  1
  V  V32  1  0.62614327  0.62738614  0.50081672  1
  V  V33  1  0.37277023  0.00105936  0.88133847  1
  V  V34  1  0.49935919  0.50105569  0.49634454  1
  V  V35  1  0.88439072  0.25285224  0.61975274  1
  V  V36  1  0.00860831  0.36680956  0.87248106  1
  V  V37  1  0.62456829  0.49391307  0.63074015  1
  V  V38  1  -0.01110134  0.87741362  0.38846388  1
  V  V39  1  0.74950520  0.37186868  0.62976221  1
  V  V40  1  0.87185840  0.62634194  0.74367356  1
  V  V41  1  0.18645983  0.68443525  -0.05744915  1
  V  V42  1  0.76309161  0.75578192  0.50606922  1
  V  V43  1  0.75139811  0.62676382  0.37837194  1
  V  V44  1  0.49829797  0.75046912  0.74937171  1
  V  V45  1  0.12556877  0.86482513  0.75272566  1
  V  V46  1  0.88168016  0.12885248  0.74738344  1
  V  V47  1  0.12322875  0.88230480  0.24708669  1
  V  V48  1  0.00008308  0.75106588  0.25141236  1
  V  V49  1  0.25160618  0.00279510  0.24577822  1
  V  V50  1  0.36958399  0.62086935  0.76209556  1
  V  V51  1  0.75449260  0.12201512  0.87540666  1
  V  V52  1  0.12392807  0.37312058  0.25011529  1
  V  V53  1  0.74742393  0.74226772  0.00147783  1
  V  V54  1  0.50257599  0.12486697  0.62563360  1
  V  V55  1  0.23710687  0.25228179  -0.00312172  1
  V  V56  1  0.25030312  0.49989178  0.24836340  1
  V  V57  1  0.24855918  -0.00429145  0.75124620  1
  V  V58  1  0.37319336  0.25204713  0.62499094  1
  V  V59  1  0.37187739  0.85973545  0.00507703  1
  V  V60  1  0.50329412  0.50335957  -0.00529192  1
  V  V61  1  0.87691272  0.88684147  -0.00811401  1
  V  V62  1  0.49735948  0.00096312  0.49652462  1
  V  V63  1  0.49816530  0.62571756  0.62191822  1
  V  V64  1  0.00438652  0.11070761  0.12166478  1
  V  V65  1  0.50629768  0.62508455  0.12405420  1
  V  V66  1  0.62418181  0.74348617  0.87960823  1
  V  V67  1  0.62293382  0.25822152  0.86681480  1
  V  V68  1  0.62691764  0.36887243  0.25429755  1
  V  V69  1  0.87570988  0.49818440  0.87374600  1
  V  V70  1  0.37862796  0.12708766  0.75605487  1
  V  V71  1  0.62532162  0.12440238  -0.00001576  1
  V  V72  1  0.49875449  0.87593735  0.87703735  1
  V  V73  1  0.12394942  0.50284269  0.11986095  1
  V  V74  1  0.00178867  0.74574605  0.76162978  1
  V  V75  1  0.37338851  0.12453015  0.25439985  1
  V  V76  1  0.75146380  0.25155071  -0.00013085  1
  V  V77  1  0.75297018  0.10957684  0.37182506  1
  V  V78  1  0.37382545  0.74789512  0.62299210  1
  V  V79  1  0.37198195  0.87776764  0.49468549  1
  V  V80  1  0.49752271  0.88143233  0.37270165  1
  V  V81  1  0.87481922  0.75054697  0.12344333  1
  V  V82  1  0.36904703  0.37512793  0.49675077  1
  V  V83  1  0.50439910  0.36739673  0.37471609  1
  V  V84  1  0.77057184  0.87503984  0.62575699  1
  Zn  Zn85  1  0.49920595  0.38573693  0.86584054  1
  Zn  Zn86  1  0.12902093  0.49845340  0.62472416  1
  Zn  Zn87  1  0.37216637  0.25011392  0.12455442  1
  Zn  Zn88  1  0.87757516  0.37584779  -0.00150072  1
  Zn  Zn89  1  0.00483733  0.88311383  0.88383070  1
  Zn  Zn90  1  0.49813185  -0.00012776  0.00167299  1
  Zn  Zn91  1  0.24881948  0.87141966  0.62450424  1
  Zn  Zn92  1  0.50376904  0.26192040  0.74542945  1
  Zn  Zn93  1  0.24821249  0.23126660  0.49733349  1
  Zn  Zn94  1  0.50097072  0.24986492  0.25044846  1
  Zn  Zn95  1  0.30756890  0.05928567  0.41224994  1
  Zn  Zn96  1  0.37618819  0.50027306  0.37189151  1
  Zn  Zn97  1  0.74762464  0.62113722  0.87550185  1
  Zn  Zn98  1  0.62848345  0.50406801  0.12284881  1
  Zn  Zn99  1  0.74589237  0.49642733  0.75290583  1
  Zn  Zn100  1  0.24849658  0.37805073  0.62421813  1
  Zn  Zn101  1  0.00379585  0.50089440  -0.00592825  1
  Zn  Zn102  1  0.13084701  0.36452707  0.74829022  1
  Zn  Zn103  1  0.01353897  0.24396987  0.74843321  1
  Zn  Zn104  1  0.23525054  0.13343047  0.86670299  1
  Zn  Zn105  1  0.25249164  0.37352386  0.12494928  1
  Zn  Zn106  1  0.87729605  0.24796834  0.12414565  1
  Zn  Zn107  1  0.18600090  0.18560198  0.18361723  1
  Zn  Zn108  1  0.18990804  0.18803890  0.68608361  1
  Zn  Zn109  1  0.18457554  0.68940325  0.18447196  1
  Zn  Zn110  1  0.18651119  0.68192520  0.68972615  1
  Zn  Zn111  1  0.68913410  0.18850568  0.19058095  1
  Zn  Zn112  1  0.69167578  0.18819288  0.68504175  1
  Zn  Zn113  1  0.68695539  0.69085553  0.19052422  1
  Zn  Zn114  1  0.68847221  0.68864294  0.68672125  1
  Zn  Zn115  1  0.31416232  0.31041032  0.31081711  1
  Zn  Zn116  1  0.31376215  0.31367536  0.81665528  1
  Zn  Zn117  1  0.31076591  0.81545240  0.31018777  1
  Zn  Zn118  1  0.30926552  0.80776984  0.81815870  1
  Zn  Zn119  1  0.81520342  0.30827558  0.31279353  1
  Zn  Zn120  1  0.81507913  0.31295107  0.80994564  1
  Zn  Zn121  1  0.81223220  0.81385971  0.31280337  1
  Zn  Zn122  1  0.81339063  0.80796329  0.81065233  1
  Zn  Zn123  1  0.18510786  0.43453283  0.43307234  1
  Zn  Zn124  1  0.18937376  0.44057316  0.93710193  1
  Zn  Zn125  1  0.17999661  0.93377217  0.43630210  1
  Zn  Zn126  1  0.18959576  0.93086457  0.93551405  1
  Zn  Zn127  1  0.68716236  0.43643789  0.44184169  1
  Zn  Zn128  1  0.68663153  0.43980113  0.93959520  1
  Zn  Zn129  1  0.68862505  0.93683932  0.44304900  1
  Zn  Zn130  1  0.68914278  0.93467815  0.94062105  1
  Zn  Zn131  1  0.30517489  0.06139669  0.06662962  1
  Zn  Zn132  1  0.31149994  0.06244885  0.57594682  1
  Zn  Zn133  1  0.31721113  0.56368320  0.06013344  1
  Zn  Zn134  1  0.31043713  0.56075781  0.56439987  1
  Zn  Zn135  1  0.81431461  0.06389061  0.06592614  1
  Zn  Zn136  1  0.81303003  0.06514721  0.56543760  1
  Zn  Zn137  1  0.81578383  0.56119071  0.06124962  1
  Zn  Zn138  1  0.81506662  0.56121348  0.56391252  1
  Zn  Zn139  1  0.43687238  0.43840213  0.18300290  1
  Zn  Zn140  1  0.43507329  0.43829501  0.68812839  1
  Zn  Zn141  1  0.43326657  0.94270549  0.18446017  1
  Zn  Zn142  1  0.43503864  0.93676507  0.68673054  1
  Zn  Zn143  1  0.93720256  0.43731585  0.18980773  1
  Zn  Zn144  1  0.93773925  0.43519965  0.68864595  1
  Zn  Zn145  1  0.93763867  0.93433646  0.18836946  1
  Zn  Zn146  1  0.94868700  0.94812205  0.71405884  1
  Zn  Zn147  1  0.05788001  0.05715781  0.31543403  1
  Zn  Zn148  1  0.05916193  0.05495692  0.81420989  1
  Zn  Zn149  1  0.06177717  0.56226220  0.31109507  1
  Zn  Zn150  1  0.06504025  0.56213982  0.81446359  1
  Zn  Zn151  1  0.56437529  0.06532749  0.31120213  1
  Zn  Zn152  1  0.56366999  0.06504998  0.81529971  1
  Zn  Zn153  1  0.56481846  0.56088866  0.31043823  1
  Zn  Zn154  1  0.55955006  0.56493955  0.80989260  1
  Zn  Zn155  1  0.43854699  0.19071948  0.43894585  1
  Zn  Zn156  1  0.43604668  0.19142447  0.94102005  1
  Zn  Zn157  1  0.43420344  0.68985429  0.43172479  1
  Zn  Zn158  1  0.43838351  0.68547395  0.93975902  1
  Zn  Zn159  1  0.93534443  0.18511784  0.43742295  1
  Zn  Zn160  1  0.93778458  0.18550260  0.93808006  1
  Zn  Zn161  1  0.93856057  0.68579919  0.44054366  1
  Zn  Zn162  1  0.93386401  0.68893400  0.93497010  1
  Zn  Zn163  1  0.06025013  0.31345641  0.06211797  1
  Zn  Zn164  1  0.06750491  0.31363176  0.56183562  1
  Zn  Zn165  1  0.06248810  0.81383280  0.05981216  1
  Zn  Zn166  1  0.06268408  0.81587318  0.56961084  1
  Zn  Zn167  1  0.56548831  0.31537489  0.06104253  1
  Zn  Zn168  1  0.56209182  0.31272853  0.56166719  1
  Zn  Zn169  1  0.56163331  0.81461726  0.06216941  1
  Zn  Zn170  1  0.56528991  0.81382637  0.56220774  1
  O  O171  1  0.11124715  0.12541247  0.11539794  1
  O  O172  1  0.13268071  0.10718916  0.62510697  1
  O  O173  1  0.11237319  0.61517243  0.13706404  1
  O  O174  1  0.10979377  0.61865988  0.62701613  1
  O  O175  1  0.62220406  0.11947671  0.12198982  1
  O  O176  1  0.62154282  0.11921038  0.61765740  1
  O  O177  1  0.61096322  0.62557864  0.13448969  1
  O  O178  1  0.61755626  0.62088567  0.61809624  1
  O  O179  1  0.38393571  0.37810697  0.37949397  1
  O  O180  1  0.38146000  0.36986934  0.89131666  1
  O  O181  1  0.38320401  0.86868058  0.38573603  1
  O  O182  1  0.37733287  0.88186879  0.88351939  1
  O  O183  1  0.88495378  0.38278670  0.36861847  1
  O  O184  1  0.88125035  0.38287634  0.87434955  1
  O  O185  1  0.89103087  0.87222261  0.37186353  1
  O  O186  1  0.86704111  0.87118744  0.89124900  1
  O  O187  1  0.24439149  -0.01389805  0.35587677  1
  O  O188  1  0.25577222  0.00203316  0.86516177  1
  O  O189  1  0.24733133  0.50858127  0.36449721  1
  O  O190  1  0.25375383  0.49959834  0.86204072  1
  O  O191  1  0.74975749  0.01056765  0.37820008  1
  O  O192  1  0.74222941  0.00895083  0.86664221  1
  O  O193  1  0.75768494  0.50432542  0.37438240  1
  O  O194  1  0.75585392  0.50146455  0.87247289  1
  O  O195  1  0.24285357  0.50077558  0.13632169  1
  O  O196  1  0.24865907  0.49864395  0.63448857  1
  O  O197  1  0.24863049  0.98854372  0.13843355  1
  O  O198  1  0.24566520  0.99316313  0.63817734  1
  O  O199  1  0.75087184  0.49343700  0.13174293  1
  O  O200  1  0.74161354  0.49063202  0.62149010  1
  O  O201  1  0.74217049  0.99203728  0.12289002  1
  O  O202  1  0.74096791  0.99301821  0.62851391  1
  O  O203  1  0.00512643  0.36610798  0.25691099  1
  O  O204  1  0.00174697  0.37220263  0.76212281  1
  O  O205  1  0.00607008  0.87055029  0.25792805  1
  O  O206  1  0.01075092  0.85097708  0.73254384  1
  O  O207  1  0.50806973  0.37785418  0.25747572  1
  O  O208  1  0.49747960  0.37491315  0.75337893  1
  O  O209  1  0.50182566  0.87138506  0.25423664  1
  O  O210  1  0.50228459  0.86908439  0.75609371  1
  O  O211  1  0.49458293  0.12696280  0.24223563  1
  O  O212  1  0.49083434  0.12560960  0.74597465  1
  O  O213  1  0.49339574  0.63323038  0.24816974  1
  O  O214  1  0.48877409  0.62991404  0.74196025  1
  O  O215  1  0.99622590  0.12742478  0.24179297  1
  O  O216  1  0.98450899  0.12755577  0.75462962  1
  O  O217  1  0.99264929  0.63195676  0.24638231  1
  O  O218  1  0.99645491  0.62991285  0.74139704  1
  O  O219  1  0.36671523  0.25639382  0.00546454  1
  O  O220  1  0.37483078  0.25882186  0.50634214  1
  O  O221  1  0.37924206  0.76079158  0.00077977  1
  O  O222  1  0.36550466  0.75535218  0.50212391  1
  O  O223  1  0.86159360  0.25059868  0.00062079  1
  O  O224  1  0.86737353  0.24467863  0.51149077  1
  O  O225  1  0.86627077  0.75572365  0.00735020  1
  O  O226  1  0.86208667  0.74750299  0.49850256  1
  O  O227  1  0.12724327  0.25126859  0.48418775  1
  O  O228  1  0.13497419  0.24743070  1.00129208  1
  O  O229  1  0.13683539  0.75523977  0.49344036  1
  O  O230  1  0.13011717  0.74801072  1.00009157  1
  O  O231  1  0.63313838  0.23722159  0.50466938  1
  O  O232  1  0.63559257  0.24492645  0.99332276  1
  O  O233  1  0.63025432  0.74504660  0.49410165  1
  O  O234  1  0.63335132  0.75801472  0.99125237  1
  O  O235  1  0.50363990  0.23730103  0.12451000  1
  O  O236  1  0.49098373  0.24340820  0.62432558  1
  O  O237  1  0.50462594  0.74615182  0.13755070  1
  O  O238  1  0.49454819  0.74608367  0.62884537  1
  O  O239  1  0.99884469  0.24282297  0.13360460  1
  O  O240  1  0.98713796  0.25390620  0.62311868  1
  O  O241  1  0.99478733  0.74402609  0.13087646  1
  O  O242  1  1.00155159  0.73322408  0.62499830  1
  O  O243  1  0.00604932  0.25475803  0.36984942  1
  O  O244  1  -0.00746522  0.26415601  0.87334008  1
  O  O245  1  0.00521462  0.75650202  0.37459235  1
  O  O246  1  -0.00396332  0.75725225  0.86420896  1
  O  O247  1  0.50155456  0.26408469  0.37449583  1
  O  O248  1  0.51701254  0.24657279  0.87601319  1
  O  O249  1  0.50543611  0.76080900  0.36706645  1
  O  O250  1  0.50551843  0.75586683  0.87120307  1
  O  O251  1  0.26294472  0.11919716  0.49450062  1
  O  O252  1  0.23299125  0.13079210  1.00169361  1
  O  O253  1  0.25618626  0.63106157  0.48477576  1
  O  O254  1  0.24481723  0.62648862  1.00468227  1
  O  O255  1  0.74500841  0.12886064  0.48962583  1
  O  O256  1  0.74666894  0.13119255  0.99466814  1
  O  O257  1  0.74583028  0.63213060  0.49758656  1
  O  O258  1  0.75251524  0.63827769  1.00061596  1
  O  O259  1  0.25456227  0.36678099  0.00083378  1
  O  O260  1  0.26291310  0.37618975  0.49531583  1
  O  O261  1  0.25531723  0.87884419  0.01390767  1
  O  O262  1  0.25732306  0.86629025  0.49869578  1
  O  O263  1  0.75102284  0.36860088  0.00886621  1
  O  O264  1  0.74685933  0.36424312  0.50805333  1
  O  O265  1  0.75663572  0.86698968  0.01145682  1
  O  O266  1  0.74803262  0.86818098  0.51283701  1
  O  O267  1  0.13033894  0.49179356  0.24595393  1
  O  O268  1  0.14088616  0.50004581  0.75032548  1
  O  O269  1  0.12647400  0.98682473  0.25276196  1
  O  O270  1  0.13395874  0.99411293  0.73974183  1
  O  O271  1  0.63474132  0.49089236  0.24858763  1
  O  O272  1  0.62503685  0.50781006  0.73427338  1
  O  O273  1  0.62153954  0.99476552  0.23745334  1
  O  O274  1  0.63235213  0.99751392  0.74484379  1
  O  O275  1  0.36562312  0.00956601  0.24936436  1
  O  O276  1  0.36990568  0.00379774  0.75953647  1
  O  O277  1  0.36551273  0.50659472  0.25085073  1
  O  O278  1  0.36704938  0.51455953  0.74418283  1
  O  O279  1  0.87775109  0.01083982  0.24917337  1
  O  O280  1  0.85468889  0.01485135  0.73581165  1
  O  O281  1  0.86994346  0.50468700  0.26093297  1
  O  O282  1  0.87293348  0.50654473  0.75860778  1
  O  O283  1  0.11617871  0.36872754  0.36358982  1
  O  O284  1  0.11112560  0.38084037  0.87394761  1
  O  O285  1  0.11540584  0.86284744  0.36774404  1
  O  O286  1  0.12274941  0.88052776  0.85824784  1
  O  O287  1  0.61659048  0.38266556  0.36770336  1
  O  O288  1  0.62483203  0.36043157  0.87918060  1
  O  O289  1  0.61904546  0.87245013  0.37080351  1
  O  O290  1  0.61964814  0.86795592  0.86932810  1
  O  O291  1  0.38360679  0.12377439  0.13176562  1
  O  O292  1  0.38388702  0.13111972  0.63565292  1
  O  O293  1  0.38581813  0.62209237  0.13873425  1
  O  O294  1  0.38184251  0.63274415  0.62610692  1
  O  O295  1  0.88557443  0.12694798  0.13137077  1
  O  O296  1  0.86466510  0.14230771  0.63411454  1
  O  O297  1  0.88111929  0.62969217  0.13240531  1
  O  O298  1  0.88705693  0.61597004  0.63671764  1
  O  O299  1  0.24919989  0.25195507  0.11230277  1
  O  O300  1  0.26406936  0.25054752  0.61875074  1
  O  O301  1  0.25391605  0.76455332  0.13337912  1
  O  O302  1  0.25475055  0.74631131  0.61527329  1
  O  O303  1  0.75151108  0.25649384  0.11754750  1
  O  O304  1  0.75407298  0.25638127  0.61515342  1
  O  O305  1  0.75344478  0.75630819  0.11973091  1
  O  O306  1  0.74535412  0.76308410  0.61794979  1
  O  O307  1  0.23487586  0.25292361  0.37318174  1
  O  O308  1  0.25586138  0.24545504  0.89196993  1
  O  O309  1  0.24236324  0.74496546  0.37899228  1
  O  O310  1  0.24699482  0.74020375  0.88078586  1
  O  O311  1  0.75532281  0.24375730  0.38790247  1
  O  O312  1  0.74123998  0.24587825  0.88025478  1
  O  O313  1  0.74444778  0.74785315  0.38277769  1
  O  O314  1  0.74123148  0.74929059  0.88364532  1
  O  O315  1  0.00853392  0.12692099  0.01036116  1
  O  O316  1  0.00007493  0.10894862  0.49476901  1
  O  O317  1  -0.00771342  0.62415489  0.01311287  1
  O  O318  1  -0.00476017  0.61645115  0.51237858  1
  O  O319  1  0.50707437  0.12259652  0.00673112  1
  O  O320  1  0.50801842  0.12090261  0.50209201  1
  O  O321  1  0.49484959  0.61475655  0.01040613  1
  O  O322  1  0.50272087  0.61949707  0.50054798  1
  O  O323  1  0.49344319  0.38219324  0.49305555  1
  O  O324  1  0.49576597  0.38557901  0.99912491  1
  O  O325  1  0.49394475  0.87912302  0.49151695  1
  O  O326  1  0.49016178  0.87921289  0.99617917  1
  O  O327  1  1.00162101  0.38055988  0.48768851  1
  O  O328  1  0.99691188  0.37691451  0.98892000  1
  O  O329  1  1.00092407  0.87580357  0.49162290  1
  O  O330  1  0.98330572  0.87322001  0.99977403  1
  O  O331  1  0.50063379  0.49605997  0.38545248  1
  O  O332  1  0.50458023  0.50429390  0.88980170  1
  O  O333  1  0.50516148  0.98799264  0.37774387  1
  O  O334  1  0.49147898  0.99377613  0.87616107  1
  O  O335  1  0.99419015  0.49312215  0.37943981  1
  O  O336  1  0.99229765  0.49127661  0.87441190  1
  O  O337  1  1.00675880  0.98587091  0.39187771  1
  O  O338  1  0.98217083  0.97636480  0.82434118  1
  O  O339  1  -0.00093407  0.01217958  0.12709571  1
  O  O340  1  0.01288155  -0.00384019  0.61836342  1
  O  O341  1  0.00552490  0.50812504  0.12665416  1
  O  O342  1  0.00043051  0.50434463  0.61639857  1
  O  O343  1  0.50784528  0.01149591  0.12342912  1
  O  O344  1  0.50370132  0.00547037  0.61843827  1
  O  O345  1  0.50485751  0.50955498  0.12000987  1
  O  O346  1  0.50525473  0.50409849  0.61258814  1
  O  O347  1  0.24242543  0.38321683  0.25016927  1
  O  O348  1  0.25610293  0.38807158  0.74969409  1
  O  O349  1  0.24354571  0.87820140  0.24039672  1
  O  O350  1  0.24693125  0.87935770  0.74951077  1
  O  O351  1  0.74599185  0.37805176  0.24658099  1
  O  O352  1  0.74970825  0.37524363  0.73486721  1
  O  O353  1  0.74457449  0.86943648  0.23713293  1
  O  O354  1  0.74477493  0.88177129  0.74614215  1
  O  O355  1  0.25830982  0.11654856  0.24373080  1
  O  O356  1  0.26328824  0.11572554  0.75115027  1
  O  O357  1  0.25534570  0.62170659  0.25588379  1
  O  O358  1  0.26251492  0.61600087  0.74654844  1
  O  O359  1  0.75715726  0.12975720  0.26357332  1
  O  O360  1  0.75169593  0.11959465  0.75838253  1
  O  O361  1  0.75498539  0.62109225  0.25815796  1
  O  O362  1  0.75907005  0.62264587  0.74927533  1
  O  O363  1  0.38500972  0.12690075  0.35985146  1
  O  O364  1  0.37591074  0.11810101  0.86938340  1
  O  O365  1  0.36660499  0.62301870  0.36294677  1
  O  O366  1  0.38104059  0.62683606  0.85984565  1
  O  O367  1  0.86282427  0.12544678  0.36793006  1
  O  O368  1  0.86087214  0.13223905  0.86713914  1
  O  O369  1  0.87052862  0.61818149  0.37083507  1
  O  O370  1  0.87441222  0.61689578  0.86416723  1
  O  O371  1  0.12327581  0.38138156  0.13789704  1
  O  O372  1  0.13030231  0.37916223  0.62818202  1
  O  O373  1  0.13574843  0.87031960  0.13265002  1
  O  O374  1  0.13103871  0.88147466  0.63611014  1
  O  O375  1  0.63794126  0.37690407  0.13268822  1
  O  O376  1  0.63232752  0.38424384  0.61742320  1
  O  O377  1  0.63154309  0.88321170  0.12906300  1
  O  O378  1  0.62496925  0.88346209  0.63340275  1
  O  O379  1  0.11626654  0.25462610  0.25521236  1
  O  O380  1  0.12740490  0.24921708  0.75218687  1
  O  O381  1  0.11862350  0.75889735  0.25730246  1
  O  O382  1  0.11786671  0.75276605  0.74702154  1
  O  O383  1  0.62384208  0.26460856  0.24855196  1
  O  O384  1  0.62498665  0.24308848  0.76387333  1
  O  O385  1  0.61726618  0.75914609  0.25772313  1
  O  O386  1  0.61766288  0.75597293  0.75542077  1
  O  O387  1  0.37813317  0.24184060  0.24434248  1
  O  O388  1  0.37588456  0.24218297  0.74376642  1
  O  O389  1  0.38483498  0.74357073  0.25627819  1
  O  O390  1  0.37753123  0.74109684  0.74365077  1
  O  O391  1  0.88801750  0.24071943  0.25078670  1
  O  O392  1  0.87472018  0.24422340  0.73751622  1
  O  O393  1  0.87991920  0.74572488  0.24364734  1
  O  O394  1  0.88392252  0.73690516  0.75241523  1
  O  O395  1  0.38332584  0.49388208  0.49704956  1
  O  O396  1  0.39004715  0.49106769  1.00749978  1
  O  O397  1  0.37956435  0.99176526  0.49830793  1
  O  O398  1  0.37111358  0.99961830  0.98873677  1
  O  O399  1  0.88383534  0.50302717  0.48785973  1
  O  O400  1  0.87687853  0.49923167  0.98635424  1
  O  O401  1  0.89066729  0.99987495  0.51121062  1
  O  O402  1  0.86804065  0.98550614  1.00155650  1
  O  O403  1  0.12674229  0.00737867  0.00016538  1
  O  O404  1  0.11900735  -0.00958590  0.51507518  1
  O  O405  1  0.12422578  0.49370821  0.01669561  1
  O  O406  1  0.11191677  0.49859118  0.49551562  1
  O  O407  1  0.62447642  0.00522215  0.01110560  1
  O  O408  1  0.61790513  0.00942886  0.50485857  1
  O  O409  1  0.60982854  0.49649684  0.00553296  1
  O  O410  1  0.61803838  0.50791044  0.50699330  1
  O  O411  1  0.37300063  0.37182881  0.11505125  1
  O  O412  1  0.37499089  0.36731144  0.61434762  1
  O  O413  1  0.36322475  0.88069257  0.11589459  1
  O  O414  1  0.37444233  0.86706054  0.61226107  1
  O  O415  1  0.86385635  0.37244278  0.12597453  1
  O  O416  1  0.86713242  0.36166384  0.62640332  1
  O  O417  1  0.86832193  0.86998310  0.11987599  1
  O  O418  1  0.86739560  0.88233847  0.63986760  1
  O  O419  1  0.12125573  0.13807082  0.36769660  1
  O  O420  1  0.11938454  0.11798024  0.88974046  1
  O  O421  1  0.13138155  0.63849440  0.36764339  1
  O  O422  1  0.12365185  0.62493419  0.88706501  1
  O  O423  1  0.63825584  0.12263147  0.38109763  1
  O  O424  1  0.63486788  0.13206335  0.88174955  1
  O  O425  1  0.63170509  0.63044979  0.37989300  1
  O  O426  1  0.62571322  0.63978098  0.86926469  1
