# generated using pymatgen
data_V85Zn86O256
_symmetry_space_group_name_H-M   'P 1'
_cell_length_a   16.94411837
_cell_length_b   16.94681350
_cell_length_c   16.94884674
_cell_angle_alpha   90.04678131
_cell_angle_beta   90.03314557
_cell_angle_gamma   89.94378859
_symmetry_Int_Tables_number   1
_chemical_formula_structural   V85Zn86O256
_chemical_formula_sum   'V85 Zn86 O256'
_cell_volume   4866.83646141
_cell_formula_units_Z   1
loop_
 _symmetry_equiv_pos_site_id
 _symmetry_equiv_pos_as_xyz
  1  'x, y, z'
loop_
 _atom_site_type_symbol
 _atom_site_label
 _atom_site_symmetry_multiplicity
 _atom_site_fract_x
 _atom_site_fract_y
 _atom_site_fract_z
 _atom_site_occupancy
  V  V0  1  0.87099232  0.00800226  0.37772195  1
  V  V1  1  0.49119004  0.24270157  0.25312476  1
  V  V2  1  0.37426095  0.13348958  0.74855314  1
  V  V3  1  0.62517567  0.49857775  0.61851269  1
  V  V4  1  0.25001912  0.00085265  0.74985621  1
  V  V5  1  0.11966412  0.62943797  -0.01689855  1
  V  V6  1  0.37751475  -0.01001163  0.87816104  1
  V  V7  1  0.87634753  0.00302682  0.87174408  1
  V  V8  1  0.74084512  0.24740463  0.01040121  1
  V  V9  1  0.75679916  0.62586357  0.37605310  1
  V  V10  1  0.87716374  0.26296636  0.62284411  1
  V  V11  1  0.62629336  0.74963474  0.38152656  1
  V  V12  1  0.75448076  0.24712563  0.49906365  1
  V  V13  1  0.87565722  0.87647526  -0.00126541  1
  V  V14  1  0.62441811  0.49388387  0.12707136  1
  V  V15  1  0.25052644  0.74723529  -0.01796657  1
  V  V16  1  0.11303292  0.62184291  0.49995474  1
  V  V17  1  0.50113965  0.74903489  0.24620891  1
  V  V18  1  0.73884728  0.13263064  0.88054102  1
  V  V19  1  0.12308888  0.00308358  0.12750678  1
  V  V20  1  0.25759903  0.25159270  0.50650992  1
  V  V21  1  0.75040301  0.37047086  0.63753963  1
  V  V22  1  0.12274311  0.12569158  0.00110351  1
  V  V23  1  0.51018847  0.37781161  0.37928875  1
  V  V24  1  0.00070785  0.25375708  0.75023922  1
  V  V25  1  0.12787898  0.87604525  0.24808399  1
  V  V26  1  0.75664819  0.49762223  0.24800982  1
  V  V27  1  0.25611439  0.87166577  0.11785462  1
  V  V28  1  -0.01243664  0.37826469  0.37983015  1
  V  V29  1  0.50057112  0.75287628  0.75554495  1
  V  V30  1  0.87992953  0.37356096  0.01027700  1
  V  V31  1  0.49774200  0.61990068  0.11744330  1
  V  V32  1  0.25139319  0.50021225  0.24982254  1
  V  V33  1  0.26456680  0.00416779  0.25556402  1
  V  V34  1  0.00028739  0.87794826  0.37569933  1
  V  V35  1  0.63058857  0.23872018  0.37583500  1
  V  V36  1  0.00064782  0.00210265  0.50157742  1
  V  V37  1  0.87357807  0.74851690  0.12658894  1
  V  V38  1  0.37362677  0.62356797  0.75173606  1
  V  V39  1  0.62377621  0.62600994  -0.00604155  1
  V  V40  1  0.12186226  0.86090366  0.75035259  1
  V  V41  1  0.36328108  0.49703840  0.88168768  1
  V  V42  1  0.87261598  0.50817493  0.87953551  1
  V  V43  1  0.25187087  0.62387985  0.37570679  1
  V  V44  1  0.12793008  0.37653962  0.24936738  1
  V  V45  1  0.25008542  0.12600553  0.87684441  1
  V  V46  1  0.62012577  0.87597605  0.75838265  1
  V  V47  1  0.37716273  0.62497607  0.24925350  1
  V  V48  1  0.48669929  0.12340700  0.12167399  1
  V  V49  1  0.12871368  0.12714214  0.49878009  1
  V  V50  1  0.12540577  0.37690839  0.74975313  1
  V  V51  1  0.24927146  0.87570189  0.62402597  1
  V  V52  1  0.87597630  0.12717633  0.75175411  1
  V  V53  1  0.62979097  0.37161644  0.24883349  1
  V  V54  1  -0.00060743  0.00392337  0.00326517  1
  V  V55  1  0.00277172  0.86642608  0.86896992  1
  V  V56  1  0.25071034  0.74885924  0.49877768  1
  V  V57  1  0.00015880  0.74858480  0.24702324  1
  V  V58  1  0.74786596  0.00538063  0.25464922  1
  V  V59  1  0.37918872  0.88262043  0.49433112  1
  V  V60  1  0.74629004  0.87895462  0.61412595  1
  V  V61  1  0.75005241  0.74531161  -0.00753342  1
  V  V62  1  0.62622403  0.01094920  0.12228308  1
  V  V63  1  0.87995436  0.12199530  0.24271721  1
  V  V64  1  0.00329825  0.24463570  0.24428358  1
  V  V65  1  0.12039418  0.50615978  0.11955072  1
  V  V66  1  -0.00052431  0.38143104  0.87994877  1
  V  V67  1  0.61491843  0.00474153  0.62597018  1
  V  V68  1  0.75009890  0.87526233  0.12561788  1
  V  V69  1  0.38371324  0.50078610  0.38068920  1
  V  V70  1  0.54633938  0.44393196  -0.05940142  1
  V  V71  1  0.11426217  0.50133942  0.61945520  1
  V  V72  1  0.74699532  0.00110363  0.75292254  1
  V  V73  1  0.49997844  -0.01224240  -0.00315403  1
  V  V74  1  0.38132056  0.37711440  0.50748379  1
  V  V75  1  0.12626226  0.74939596  0.37361525  1
  V  V76  1  0.12823378  0.25066732  0.37675913  1
  V  V77  1  0.49845790  0.14271688  0.62470683  1
  V  V78  1  0.24716072  0.50668220  0.74615330  1
  V  V79  1  -0.00136134  0.12726788  0.62431324  1
  V  V80  1  0.62636321  0.87700992  0.24835609  1
  V  V81  1  0.50559832  0.25316847  0.77261888  1
  V  V82  1  0.37862303  0.74818665  0.62226467  1
  V  V83  1  0.12393908  -0.00098971  0.62518781  1
  V  V84  1  0.74454795  0.51552411  0.76443336  1
  Zn  Zn85  1  0.80283847  0.71640428  0.54499247  1
  Zn  Zn86  1  0.25473091  0.37311021  0.62710595  1
  Zn  Zn87  1  0.62774768  0.12534520  0.49927448  1
  Zn  Zn88  1  0.62248248  0.74934385  0.87326281  1
  Zn  Zn89  1  0.36883606  0.25377665  0.12670940  1
  Zn  Zn90  1  0.49593125  0.01190620  0.48834509  1
  Zn  Zn91  1  0.62250599  0.61810465  0.49567725  1
  Zn  Zn92  1  -0.03071801  0.49948764  0.49232800  1
  Zn  Zn93  1  0.87814417  0.24433167  0.12411949  1
  Zn  Zn94  1  0.49457148  0.87905372  0.36879596  1
  Zn  Zn95  1  -0.00067558  0.62307464  0.11958353  1
  Zn  Zn96  1  0.26917538  0.12520892  0.37375413  1
  Zn  Zn97  1  0.50002855  0.61735503  0.61810597  1
  Zn  Zn98  1  0.37321613  0.37095032  0.00061767  1
  Zn  Zn99  1  0.25121282  0.37519000  0.11901945  1
  Zn  Zn100  1  0.87710785  0.61907539  0.24899854  1
  Zn  Zn101  1  0.12518995  0.25230117  0.87722921  1
  Zn  Zn102  1  0.92526884  0.67369586  0.69056266  1
  Zn  Zn103  1  0.87688210  0.87565626  0.50545524  1
  Zn  Zn104  1  0.62100830  0.37215389  0.76262741  1
  Zn  Zn105  1  0.25193905  0.25100234  0.00425355  1
  Zn  Zn106  1  0.37510626  0.75037230  0.11435382  1
  Zn  Zn107  1  0.18955881  0.18473630  0.18700609  1
  Zn  Zn108  1  0.18665012  0.18950325  0.68713288  1
  Zn  Zn109  1  0.18887729  0.68707237  0.18382531  1
  Zn  Zn110  1  0.18660704  0.68437897  0.68240561  1
  Zn  Zn111  1  0.68670315  0.18443466  0.19136368  1
  Zn  Zn112  1  0.68506879  0.18961861  0.69358816  1
  Zn  Zn113  1  0.68685040  0.68334649  0.18548955  1
  Zn  Zn114  1  0.70364048  0.68405275  0.68336603  1
  Zn  Zn115  1  0.31406188  0.31459342  0.31863491  1
  Zn  Zn116  1  0.31203345  0.31380910  0.81621307  1
  Zn  Zn117  1  0.31312305  0.81288958  0.30894462  1
  Zn  Zn118  1  0.31159788  0.81237375  0.80846856  1
  Zn  Zn119  1  0.81115496  0.30790368  0.30885952  1
  Zn  Zn120  1  0.81522271  0.31256773  0.81809418  1
  Zn  Zn121  1  0.81535979  0.81328030  0.32343325  1
  Zn  Zn122  1  0.80751469  0.81229240  0.81005757  1
  Zn  Zn123  1  0.19015162  0.43597486  0.43681159  1
  Zn  Zn124  1  0.18707560  0.44132801  0.93808753  1
  Zn  Zn125  1  0.18944953  0.93714190  0.43630777  1
  Zn  Zn126  1  0.18704569  0.93525519  0.93569292  1
  Zn  Zn127  1  0.75945349  0.45166885  0.45680988  1
  Zn  Zn128  1  0.70676659  0.43174280  0.94796961  1
  Zn  Zn129  1  0.67497695  0.94771146  0.43168549  1
  Zn  Zn130  1  0.68690689  0.93931080  0.93942128  1
  Zn  Zn131  1  0.31137869  0.05823335  0.06090809  1
  Zn  Zn132  1  0.31442766  0.06658344  0.56437711  1
  Zn  Zn133  1  0.30356757  0.56743311  0.06225861  1
  Zn  Zn134  1  0.30893156  0.56134970  0.56292930  1
  Zn  Zn135  1  0.81248968  0.06479010  0.06298182  1
  Zn  Zn136  1  0.81103915  0.06428258  0.56636272  1
  Zn  Zn137  1  0.81009220  0.56151997  0.06343745  1
  Zn  Zn138  1  0.81886253  0.55165898  0.58452871  1
  Zn  Zn139  1  0.43959392  0.43405681  0.18816851  1
  Zn  Zn140  1  0.44189804  0.43471087  0.69267964  1
  Zn  Zn141  1  0.43898035  0.93262253  0.17927670  1
  Zn  Zn142  1  0.43633237  0.93988139  0.68759426  1
  Zn  Zn143  1  0.94351222  0.43453965  0.18961591  1
  Zn  Zn144  1  0.94827266  0.47214347  0.70289904  1
  Zn  Zn145  1  0.93826702  0.93608409  0.18762744  1
  Zn  Zn146  1  0.93269972  0.83451404  0.68748723  1
  Zn  Zn147  1  0.06631045  0.06473162  0.31360773  1
  Zn  Zn148  1  0.06221774  0.05819164  0.81181336  1
  Zn  Zn149  1  0.06079214  0.56108830  0.31333952  1
  Zn  Zn150  1  0.05295001  0.56826956  0.80744605  1
  Zn  Zn151  1  0.44984194  0.06035408  0.31546256  1
  Zn  Zn152  1  0.55925476  0.06487093  0.81455668  1
  Zn  Zn153  1  0.56579041  0.56208494  0.31077130  1
  Zn  Zn154  1  0.56136595  0.56792473  0.80318494  1
  Zn  Zn155  1  0.44019374  0.19444262  0.44043122  1
  Zn  Zn156  1  0.43398385  0.18007022  0.94473533  1
  Zn  Zn157  1  0.44568456  0.68765411  0.43905296  1
  Zn  Zn158  1  0.43329316  0.68439892  0.93383521  1
  Zn  Zn159  1  0.93726608  0.19032378  0.43444430  1
  Zn  Zn160  1  0.93823792  0.19092439  0.93745586  1
  Zn  Zn161  1  0.93749647  0.69146896  0.43562885  1
  Zn  Zn162  1  0.93916622  0.68999072  0.93614982  1
  Zn  Zn163  1  0.06553469  0.31387684  0.06414675  1
  Zn  Zn164  1  0.06344789  0.31749219  0.56176089  1
  Zn  Zn165  1  0.06597322  0.81285973  0.05810798  1
  Zn  Zn166  1  0.05799346  0.80541042  0.56527706  1
  Zn  Zn167  1  0.56134027  0.30595545  0.06845165  1
  Zn  Zn168  1  0.56882708  0.31708082  0.56237720  1
  Zn  Zn169  1  0.56346174  0.81102670  0.06435002  1
  Zn  Zn170  1  0.56264927  0.81381445  0.56670985  1
  O  O171  1  0.12875972  0.11058033  0.11714125  1
  O  O172  1  0.11896903  0.12065517  0.61856828  1
  O  O173  1  0.12224809  0.61888738  0.12098001  1
  O  O174  1  0.12676988  0.61563616  0.61134774  1
  O  O175  1  0.61732022  0.11296320  0.12941197  1
  O  O176  1  0.61500010  0.12067656  0.62970559  1
  O  O177  1  0.61674253  0.61734194  0.11422368  1
  O  O178  1  0.63159948  0.60826376  0.62616761  1
  O  O179  1  0.38682355  0.38322707  0.38228023  1
  O  O180  1  0.37351113  0.39308796  0.87579462  1
  O  O181  1  0.37357306  0.86885400  0.39108109  1
  O  O182  1  0.37063609  0.89108394  0.86628043  1
  O  O183  1  0.88860573  0.37037010  0.36861014  1
  O  O184  1  0.88200404  0.37873078  0.88715545  1
  O  O185  1  0.88517097  0.89352167  0.37035326  1
  O  O186  1  0.87970429  0.88676248  0.88176337  1
  O  O187  1  0.24772755  -0.00089441  0.35844393  1
  O  O188  1  0.25517686  0.00836335  0.87060039  1
  O  O189  1  0.25826819  0.50527780  0.36799929  1
  O  O190  1  0.25750966  0.50131327  0.86238417  1
  O  O191  1  0.75795244  -0.00267246  0.36597936  1
  O  O192  1  0.75786154  0.01031346  0.87641509  1
  O  O193  1  0.74195284  0.51612294  0.36331685  1
  O  O194  1  0.75497251  0.49593809  0.87053268  1
  O  O195  1  0.23966908  0.50160378  0.13545738  1
  O  O196  1  0.24108978  0.49593255  0.63248408  1
  O  O197  1  0.24462911  0.99270549  0.13310022  1
  O  O198  1  0.24507797  0.99556133  0.62932630  1
  O  O199  1  0.73389444  0.50427124  0.13209199  1
  O  O200  1  0.74262667  0.48831912  0.64917130  1
  O  O201  1  0.74342817  0.99582690  0.12814100  1
  O  O202  1  0.73561965  1.00049045  0.63380593  1
  O  O203  1  0.01239618  0.36872961  0.25939787  1
  O  O204  1  0.01082281  0.37696678  0.75535358  1
  O  O205  1  0.00720083  0.86676091  0.25414229  1
  O  O206  1  0.01138501  0.88504920  0.75728524  1
  O  O207  1  0.51054181  0.36617124  0.25698502  1
  O  O208  1  0.49871638  0.35704158  0.75495778  1
  O  O209  1  0.50873947  0.86688352  0.24475842  1
  O  O210  1  0.50768731  0.86702345  0.74286067  1
  O  O211  1  0.50111258  0.13155420  0.23638987  1
  O  O212  1  0.49281894  0.13579074  0.74780978  1
  O  O213  1  0.49798081  0.63159962  0.23990848  1
  O  O214  1  0.49149161  0.63316243  0.73926133  1
  O  O215  1  0.99442753  0.13307409  0.25556374  1
  O  O216  1  0.99694838  0.13125524  0.74473866  1
  O  O217  1  0.99852339  0.63801103  0.24974870  1
  O  O218  1  0.98238984  0.58321576  0.72462312  1
  O  O219  1  0.37170986  0.25088821  0.00507140  1
  O  O220  1  0.36827364  0.26390858  0.49777481  1
  O  O221  1  0.35675666  0.74251394  -0.00280796  1
  O  O222  1  0.37084259  0.75639944  0.50665837  1
  O  O223  1  0.87280134  0.25736259  0.00464369  1
  O  O224  1  0.87061275  0.24490478  0.51187793  1
  O  O225  1  0.86815447  0.75467987  0.00679130  1
  O  O226  1  0.86292616  0.76817338  0.46892587  1
  O  O227  1  0.13240913  0.24824229  0.49340813  1
  O  O228  1  0.12210489  0.23483804  0.99942242  1
  O  O229  1  0.12945768  0.74170779  0.49457147  1
  O  O230  1  0.13394071  0.73851753  1.00107856  1
  O  O231  1  0.63418372  0.25073364  0.49216840  1
  O  O232  1  0.64194824  0.25396012  1.00518434  1
  O  O233  1  0.62101139  0.75786059  0.48307493  1
  O  O234  1  0.63140277  0.74258259  0.99998433  1
  O  O235  1  0.49865249  0.23584275  0.13302913  1
  O  O236  1  0.50503018  0.24413283  0.63246036  1
  O  O237  1  0.49607168  0.74187169  0.12978371  1
  O  O238  1  0.48785222  0.75118028  0.63219469  1
  O  O239  1  1.00279065  0.25291363  0.14095608  1
  O  O240  1  0.99481497  0.24844382  0.62928957  1
  O  O241  1  0.99256503  0.75336544  0.13143286  1
  O  O242  1  0.97476102  0.75501523  0.61613884  1
  O  O243  1  0.00798548  0.25798547  0.36646906  1
  O  O244  1  0.00176349  0.26199101  0.86726274  1
  O  O245  1  0.00806193  0.75645682  0.36541958  1
  O  O246  1  0.00225991  0.76799114  0.88330480  1
  O  O247  1  0.51052964  0.25775879  0.36803653  1
  O  O248  1  0.49915711  0.24223028  0.87055921  1
  O  O249  1  0.50824992  0.75589605  0.36291978  1
  O  O250  1  0.49808403  0.74676955  0.85988108  1
  O  O251  1  0.24690702  0.13220503  0.49672725  1
  O  O252  1  0.24067342  0.12169274  0.99207388  1
  O  O253  1  0.24474678  0.63229430  0.49273721  1
  O  O254  1  0.23674815  0.63954743  1.00012964  1
  O  O255  1  0.74698022  0.14102479  0.50887350  1
  O  O256  1  0.75634454  0.13495579  0.99038685  1
  O  O257  1  0.74153986  0.63048016  0.48020425  1
  O  O258  1  0.73854923  0.63449641  1.00660022  1
  O  O259  1  0.25022283  0.37110099  -0.00088685  1
  O  O260  1  0.26101061  0.36813451  0.49952563  1
  O  O261  1  0.23948184  0.85998388  0.00597022  1
  O  O262  1  0.25828254  0.86936075  0.50398944  1
  O  O263  1  0.76546537  0.35561732  0.00314536  1
  O  O264  1  0.75100018  0.35922649  0.52430282  1
  O  O265  1  0.75611392  0.86997693  0.00703882  1
  O  O266  1  0.74376495  0.89346026  0.51297567  1
  O  O267  1  0.13124001  0.49318690  0.24722559  1
  O  O268  1  0.13063453  0.49600140  0.74058775  1
  O  O269  1  0.12879655  0.99414863  0.24268233  1
  O  O270  1  0.13245135  0.99765914  0.74015749  1
  O  O271  1  0.63138876  0.49092363  0.24317608  1
  O  O272  1  0.63480405  0.49410033  0.75244162  1
  O  O273  1  0.63599067  0.99042291  0.23969159  1
  O  O274  1  0.62582024  0.99579090  0.74660018  1
  O  O275  1  0.36735715  -0.00518369  0.24850835  1
  O  O276  1  0.36984878  0.01071971  0.75554275  1
  O  O277  1  0.37097056  0.50461621  0.26034511  1
  O  O278  1  0.36755576  0.50523266  0.75286497  1
  O  O279  1  0.87025628  0.00433470  0.25511031  1
  O  O280  1  0.86612318  0.00757992  0.76405438  1
  O  O281  1  0.86085602  0.49736901  0.23969459  1
  O  O282  1  0.85195397  0.48963615  0.76589682  1
  O  O283  1  0.12224552  0.36482397  0.36934202  1
  O  O284  1  0.11722267  0.37676155  0.86845858  1
  O  O285  1  0.12051446  0.86973637  0.36881943  1
  O  O286  1  0.11546427  0.88442689  0.86139219  1
  O  O287  1  0.61522050  0.37005058  0.36704839  1
  O  O288  1  0.61278600  0.38819234  0.88754475  1
  O  O289  1  0.62961401  0.86723439  0.35891037  1
  O  O290  1  0.62775317  0.87542710  0.86209889  1
  O  O291  1  0.38458651  0.12228676  0.12593033  1
  O  O292  1  0.38529292  0.12269018  0.63678855  1
  O  O293  1  0.38150357  0.62358530  0.13113711  1
  O  O294  1  0.37410231  0.63151821  0.63176024  1
  O  O295  1  0.87967927  0.12055940  0.13824080  1
  O  O296  1  0.88160529  0.13176430  0.63393290  1
  O  O297  1  0.87781781  0.63643720  0.12589533  1
  O  O298  1  0.82134752  0.64887907  0.63454577  1
  O  O299  1  0.25029703  0.25372978  0.12509334  1
  O  O300  1  0.24661050  0.25225693  0.61114739  1
  O  O301  1  0.25198250  0.75921126  0.12092387  1
  O  O302  1  0.26055942  0.75445067  0.61923856  1
  O  O303  1  0.75549789  0.23782693  0.11390142  1
  O  O304  1  0.75828749  0.25261795  0.62644589  1
  O  O305  1  0.75699179  0.75473759  0.11960906  1
  O  O306  1  0.72936670  0.77609873  0.61734268  1
  O  O307  1  0.24371655  0.24894837  0.38456072  1
  O  O308  1  0.24627715  0.23595997  0.87489570  1
  O  O309  1  0.24462823  0.74520579  0.37781160  1
  O  O310  1  0.24766023  0.75388512  0.88312848  1
  O  O311  1  0.74364723  0.25831141  0.38703862  1
  O  O312  1  0.75484991  0.23773013  0.88650060  1
  O  O313  1  0.73705496  0.73584317  0.35574776  1
  O  O314  1  0.74502686  0.75649383  0.88981468  1
  O  O315  1  0.00667087  0.11229341  -0.00638930  1
  O  O316  1  0.00786975  0.12181175  0.50225728  1
  O  O317  1  0.01554732  0.63321254  0.00282023  1
  O  O318  1  0.00928238  0.61728659  0.48714088  1
  O  O319  1  0.50139444  0.11509267  0.01659289  1
  O  O320  1  0.50319969  0.12892282  0.51271534  1
  O  O321  1  0.50325299  0.63018430  0.01135962  1
  O  O322  1  0.50958428  0.62661319  0.50566518  1
  O  O323  1  0.49501663  0.37112919  0.49068472  1
  O  O324  1  0.49674616  0.37906988  1.00137110  1
  O  O325  1  0.48405531  0.87368106  0.50276628  1
  O  O326  1  0.49865713  0.88850229  1.00811473  1
  O  O327  1  1.00112250  0.37192048  0.48208448  1
  O  O328  1  0.99097205  0.37009499  0.99347155  1
  O  O329  1  1.00078933  0.88714182  0.49286713  1
  O  O330  1  0.99697699  0.88630586  0.99320403  1
  O  O331  1  0.49393630  0.49162633  0.36846632  1
  O  O332  1  0.49022320  0.50070412  0.87520664  1
  O  O333  1  0.51040404  0.99003320  0.37728649  1
  O  O334  1  0.49448707  1.00543291  0.88971861  1
  O  O335  1  1.00230213  0.48322159  0.37493713  1
  O  O336  1  0.98944098  0.48738848  0.87251508  1
  O  O337  1  0.99726438  0.99968682  0.38482194  1
  O  O338  1  0.99128060  0.99580512  0.88161616  1
  O  O339  1  0.00993868  -0.00749426  0.11545658  1
  O  O340  1  0.00520909  0.00797367  0.60967325  1
  O  O341  1  0.01571864  0.50298495  0.13246575  1
  O  O342  1  0.01366582  0.48204892  0.60450605  1
  O  O343  1  0.50457681  0.00680810  0.11899345  1
  O  O344  1  0.50725962  0.01094398  0.62751040  1
  O  O345  1  0.51202431  0.50918217  0.13275788  1
  O  O346  1  0.52091144  0.49638599  0.63279902  1
  O  O347  1  0.23895719  0.38088328  0.25512654  1
  O  O348  1  0.23976042  0.38136426  0.75052667  1
  O  O349  1  0.24600447  0.88355021  0.24270296  1
  O  O350  1  0.24238002  0.88109292  0.74271067  1
  O  O351  1  0.73808043  0.38069625  0.25512994  1
  O  O352  1  0.74169680  0.36567084  0.74754226  1
  O  O353  1  0.74713187  0.88323338  0.24442712  1
  O  O354  1  0.73935379  0.88479095  0.74271834  1
  O  O355  1  0.24663541  0.10674494  0.25171686  1
  O  O356  1  0.25572241  0.12196880  0.75492746  1
  O  O357  1  0.25720562  0.62133618  0.25624976  1
  O  O358  1  0.25661398  0.61506372  0.74352910  1
  O  O359  1  0.75931715  0.11163209  0.24678013  1
  O  O360  1  0.75446163  0.12267150  0.76329980  1
  O  O361  1  0.75009187  0.61436027  0.25339969  1
  O  O362  1  0.73850090  0.61365519  0.76874659  1
  O  O363  1  0.38146803  0.12813982  0.37327274  1
  O  O364  1  0.36618951  0.11574798  0.86895324  1
  O  O365  1  0.37408444  0.61933271  0.36992576  1
  O  O366  1  0.37873833  0.61276632  0.85898260  1
  O  O367  1  0.88057676  0.11372379  0.36471746  1
  O  O368  1  0.87088536  0.11974308  0.87115576  1
  O  O369  1  0.86025798  0.62905539  0.36731850  1
  O  O370  1  0.87941604  0.60755739  0.88808747  1
  O  O371  1  0.12664684  0.38387854  0.13427888  1
  O  O372  1  0.12973151  0.38100550  0.63323985  1
  O  O373  1  0.13371057  0.88413797  0.12817273  1
  O  O374  1  0.13008785  0.87994004  0.62771144  1
  O  O375  1  0.61868042  0.38164367  0.13534091  1
  O  O376  1  0.63275331  0.38208859  0.63460418  1
  O  O377  1  0.63028443  0.88030245  0.13360358  1
  O  O378  1  0.62651112  0.88833310  0.63311359  1
  O  O379  1  0.12200400  0.25491516  0.25738633  1
  O  O380  1  0.11946805  0.26012043  0.75113636  1
  O  O381  1  0.11971349  0.75625538  0.25229981  1
  O  O382  1  0.12667223  0.76120959  0.74193347  1
  O  O383  1  0.62191374  0.25527775  0.25606901  1
  O  O384  1  0.61004835  0.24966845  0.75813653  1
  O  O385  1  0.61516157  0.75534867  0.24826739  1
  O  O386  1  0.61784361  0.75716919  0.74914442  1
  O  O387  1  0.38900376  0.25744251  0.25109553  1
  O  O388  1  0.38241060  0.23963313  0.75774673  1
  O  O389  1  0.38732429  0.74528385  0.24856262  1
  O  O390  1  0.37811438  0.74299667  0.74254550  1
  O  O391  1  0.88322993  0.23992895  0.24832227  1
  O  O392  1  0.88280131  0.24555568  0.74560220  1
  O  O393  1  0.88363666  0.75318192  0.24214364  1
  O  O394  1  0.88777132  0.75823324  0.76031788  1
  O  O395  1  0.36893679  0.49539112  0.48650846  1
  O  O396  1  0.36534758  0.50720493  0.98334172  1
  O  O397  1  0.37556927  0.98576319  0.50666421  1
  O  O398  1  0.38735642  1.00278645  0.99249477  1
  O  O399  1  0.85659680  0.49690366  0.49991365  1
  O  O400  1  0.86310233  0.48219727  0.99602239  1
  O  O401  1  0.88261410  1.00346453  0.49334688  1
  O  O402  1  0.88188981  0.99797150  0.99442405  1
  O  O403  1  0.11905359  0.00623024  0.00573905  1
  O  O404  1  0.12066789  0.00615195  0.50288622  1
  O  O405  1  0.13298438  0.51788517  0.00799877  1
  O  O406  1  0.13328815  0.50969829  0.50501245  1
  O  O407  1  0.61298534  -0.00531469  0.00910921  1
  O  O408  1  0.61889402  0.00665371  0.51195155  1
  O  O409  1  0.61848473  0.49899926  0.00236870  1
  O  O410  1  0.64475023  0.49365993  0.51920163  1
  O  O411  1  0.37104296  0.37623242  0.12179783  1
  O  O412  1  0.37586681  0.38626914  0.61108704  1
  O  O413  1  0.36011929  0.87288924  0.12273645  1
  O  O414  1  0.36852561  0.86799634  0.61817621  1
  O  O415  1  0.88389481  0.37096972  0.11338636  1
  O  O416  1  0.87051818  0.36469321  0.63829121  1
  O  O417  1  0.87146079  0.86635026  0.11893986  1
  O  O418  1  0.85104142  0.88828851  0.62274492  1
  O  O419  1  0.12780167  0.13856355  0.38046477  1
  O  O420  1  0.13235301  0.12227899  0.88260045  1
  O  O421  1  0.13160650  0.62965478  0.37943304  1
  O  O422  1  0.11813483  0.62068682  0.88370599  1
  O  O423  1  0.62566780  0.14032099  0.37638815  1
  O  O424  1  0.64097903  0.12002945  0.87574052  1
  O  O425  1  0.63004659  0.63482988  0.37171138  1
  O  O426  1  0.61342163  0.62496675  0.89072023  1
