# generated using pymatgen
data_V85Zn86O256
_symmetry_space_group_name_H-M   'P 1'
_cell_length_a   16.91948244
_cell_length_b   16.92890265
_cell_length_c   16.92189622
_cell_angle_alpha   89.98547011
_cell_angle_beta   89.95319637
_cell_angle_gamma   89.98538983
_symmetry_Int_Tables_number   1
_chemical_formula_structural   V85Zn86O256
_chemical_formula_sum   'V85 Zn86 O256'
_cell_volume   4846.90754854
_cell_formula_units_Z   1
loop_
 _symmetry_equiv_pos_site_id
 _symmetry_equiv_pos_as_xyz
  1  'x, y, z'
loop_
 _atom_site_type_symbol
 _atom_site_label
 _atom_site_symmetry_multiplicity
 _atom_site_fract_x
 _atom_site_fract_y
 _atom_site_fract_z
 _atom_site_occupancy
  V  V0  1  0.62605520  0.12744999  0.49875114  1
  V  V1  1  0.37386759  0.12668779  0.24773731  1
  V  V2  1  0.62122218  0.25476295  0.37494773  1
  V  V3  1  0.50121230  0.00105796  -0.00339475  1
  V  V4  1  0.49666600  0.62418759  0.62342016  1
  V  V5  1  0.24873907  0.75644355  0.49397417  1
  V  V6  1  0.24991445  0.74476276  0.00415233  1
  V  V7  1  0.24518006  0.37376793  0.12498162  1
  V  V8  1  0.00272829  0.11888382  0.63190276  1
  V  V9  1  0.11761061  0.49864417  0.12287283  1
  V  V10  1  0.62807869  0.73716978  0.87296780  1
  V  V11  1  0.50615707  0.24746344  0.75511393  1
  V  V12  1  0.00996949  0.87455211  0.36373482  1
  V  V13  1  0.12370264  0.74727674  0.87247996  1
  V  V14  1  0.75042377  0.87511724  0.62500669  1
  V  V15  1  0.25066546  0.25089909  0.50395085  1
  V  V16  1  0.51189697  0.61629933  0.12104701  1
  V  V17  1  0.37490188  0.00088113  0.37158654  1
  V  V18  1  0.13265334  0.61911792  0.49482060  1
  V  V19  1  0.23804221  -0.00636333  0.24120512  1
  V  V20  1  0.74868201  0.12924605  0.87531922  1
  V  V21  1  0.49803092  0.75231642  0.24208437  1
  V  V22  1  0.75356746  0.12717481  0.36985590  1
  V  V23  1  0.87812666  0.12786376  0.75352516  1
  V  V24  1  0.50048595  0.00072992  0.49839020  1
  V  V25  1  0.63048158  0.87738842  0.24340547  1
  V  V26  1  0.87905010  0.49269719  0.39013366  1
  V  V27  1  0.62365297  0.14100852  -0.00390074  1
  V  V28  1  0.49567967  0.49567168  0.48779407  1
  V  V29  1  0.14308538  -0.00505904  0.63126853  1
  V  V30  1  0.11131383  0.61766066  -0.00205934  1
  V  V31  1  0.36885849  0.11929209  0.75173296  1
  V  V32  1  0.35965655  -0.00213540  0.87703347  1
  V  V33  1  0.01427210  0.37699645  0.87766837  1
  V  V34  1  0.24944395  0.62203647  0.87551454  1
  V  V35  1  0.25149944  0.50508623  0.26450905  1
  V  V36  1  0.49911405  0.25990467  0.25000318  1
  V  V37  1  0.62535984  0.00021556  0.62512109  1
  V  V38  1  0.75111754  0.50223781  0.75468815  1
  V  V39  1  0.87819359  0.49695346  0.87844039  1
  V  V40  1  0.01456027  0.25919814  0.75562484  1
  V  V41  1  0.00335270  -0.00233858  0.50299285  1
  V  V42  1  0.14086205  0.87753511  0.75200257  1
  V  V43  1  0.75622894  0.25365554  -0.00624357  1
  V  V44  1  0.87855915  0.00022880  0.88016899  1
  V  V45  1  0.87471338  0.62245611  0.75351536  1
  V  V46  1  0.62333461  0.62794391  0.49740112  1
  V  V47  1  0.75805473  0.62734719  0.37236646  1
  V  V48  1  0.00008409  0.73566363  0.24593932  1
  V  V49  1  0.12354426  0.13340462  0.00683734  1
  V  V50  1  0.24173854  0.14401265  0.87960641  1
  V  V51  1  0.87705247  0.74990646  0.62609823  1
  V  V52  1  0.75097385  0.00222167  0.74964916  1
  V  V53  1  0.24675348  0.12559944  0.37360499  1
  V  V54  1  0.49898762  0.12559307  0.62610373  1
  V  V55  1  0.00400345  0.62311915  0.61828844  1
  V  V56  1  0.74219361  0.73270106  0.00329579  1
  V  V57  1  0.87517858  0.25070403  0.13429007  1
  V  V58  1  0.37564039  0.87226356  0.00645658  1
  V  V59  1  -0.00616003  0.11945504  0.12800305  1
  V  V60  1  0.11707836  0.37285417  0.25575745  1
  V  V61  1  0.87849194  0.25513788  0.62120254  1
  V  V62  1  0.49961619  0.13110408  0.12373892  1
  V  V63  1  0.87706269  0.00368545  0.37129428  1
  V  V64  1  0.37367062  0.26109534  0.62778865  1
  V  V65  1  0.75303634  0.37664687  0.61922710  1
  V  V66  1  0.87854055  0.87492222  0.50037295  1
  V  V67  1  0.37074106  0.62490109  0.74805128  1
  V  V68  1  0.37584021  0.50035730  0.87729576  1
  V  V69  1  0.12599017  0.48812984  0.62745885  1
  V  V70  1  -0.00191054  0.87389916  0.87505183  1
  V  V71  1  0.75913839  0.50543101  0.24866550  1
  V  V72  1  0.37481683  0.37804354  0.48389765  1
  V  V73  1  0.62733455  0.00268356  0.12209365  1
  V  V74  1  0.36943886  0.37763776  -0.00104887  1
  V  V75  1  0.75390568  0.00165435  0.24333190  1
  V  V76  1  0.50709390  0.37168900  0.87666798  1
  V  V77  1  0.74774497  0.38029484  0.12453729  1
  V  V78  1  0.37181530  0.25197841  0.11809131  1
  V  V79  1  0.50128148  0.87556251  0.37324687  1
  V  V80  1  0.24862008  0.48439660  0.74507173  1
  V  V81  1  0.86046987  0.87455643  0.00678533  1
  V  V82  1  0.62410025  0.38933156  0.25416607  1
  V  V83  1  0.36920853  0.75856806  0.62477489  1
  V  V84  1  0.62322423  0.49907925  0.62791599  1
  Zn  Zn85  1  0.62243213  0.87442939  0.75262916  1
  Zn  Zn86  1  0.49953700  0.75249226  0.75164411  1
  Zn  Zn87  1  0.37148397  0.87971467  0.50296252  1
  Zn  Zn88  1  -0.01428168  0.61438913  0.12291996  1
  Zn  Zn89  1  0.88319568  0.37933059  0.00205035  1
  Zn  Zn90  1  0.11985610  0.24967985  0.37906135  1
  Zn  Zn91  1  0.50319886  0.87397900  0.87338058  1
  Zn  Zn92  1  0.37170445  0.74394076  0.12714098  1
  Zn  Zn93  1  0.86197111  0.74413865  0.13523677  1
  Zn  Zn94  1  0.00182582  0.74952433  0.74873904  1
  Zn  Zn95  1  -0.00355483  0.36820032  0.39370600  1
  Zn  Zn96  1  0.12741160  0.12231812  0.50377717  1
  Zn  Zn97  1  0.74960391  0.75155276  0.49777324  1
  Zn  Zn98  1  0.22455118  0.87235715  0.12849143  1
  Zn  Zn99  1  0.51709775  0.51012635  -0.00283069  1
  Zn  Zn100  1  0.36994341  0.62201383  0.25751074  1
  Zn  Zn101  1  0.62868179  0.36927713  0.75131564  1
  Zn  Zn102  1  0.04229122  -0.03475194  0.03951036  1
  Zn  Zn103  1  0.75411189  0.25643561  0.49680836  1
  Zn  Zn104  1  0.62777396  0.75106953  0.37208874  1
  Zn  Zn105  1  -0.00356183  0.24639208  0.25558463  1
  Zn  Zn106  1  0.13263356  0.74697166  0.36583185  1
  Zn  Zn107  1  0.18390829  0.18848377  0.18717264  1
  Zn  Zn108  1  0.19008460  0.18412636  0.68885674  1
  Zn  Zn109  1  0.18163438  0.68335114  0.18713761  1
  Zn  Zn110  1  0.18892330  0.68819949  0.68430704  1
  Zn  Zn111  1  0.68736763  0.19212619  0.18656335  1
  Zn  Zn112  1  0.68992358  0.18854974  0.68586824  1
  Zn  Zn113  1  0.68318040  0.68485882  0.18616967  1
  Zn  Zn114  1  0.68842742  0.68711925  0.68844000  1
  Zn  Zn115  1  0.30592100  0.31326727  0.30945664  1
  Zn  Zn116  1  0.31786134  0.31129498  0.81150993  1
  Zn  Zn117  1  0.31267560  0.81567672  0.31251998  1
  Zn  Zn118  1  0.31585089  0.81030073  0.81910944  1
  Zn  Zn119  1  0.81096745  0.31685410  0.31415841  1
  Zn  Zn120  1  0.81983539  0.31789257  0.80740206  1
  Zn  Zn121  1  0.81553084  0.81511783  0.31275954  1
  Zn  Zn122  1  0.80816284  0.80987445  0.81406039  1
  Zn  Zn123  1  0.18626470  0.43329259  0.44147175  1
  Zn  Zn124  1  0.18977768  0.43677648  0.93855636  1
  Zn  Zn125  1  0.18809248  0.93926099  0.43850305  1
  Zn  Zn126  1  0.18127921  0.93338400  0.95456394  1
  Zn  Zn127  1  0.68469319  0.44262491  0.43704374  1
  Zn  Zn128  1  0.68995331  0.44063457  0.93652566  1
  Zn  Zn129  1  0.68856777  0.93871798  0.43553244  1
  Zn  Zn130  1  0.68469798  0.93808360  0.93331979  1
  Zn  Zn131  1  0.30802593  0.06418970  0.05990437  1
  Zn  Zn132  1  0.31583512  0.06536704  0.56146296  1
  Zn  Zn133  1  0.31625381  0.56177070  0.07186146  1
  Zn  Zn134  1  0.30916460  0.56074969  0.55939745  1
  Zn  Zn135  1  0.81570179  0.06492184  0.06119046  1
  Zn  Zn136  1  0.81522748  0.06568163  0.56002749  1
  Zn  Zn137  1  0.81112756  0.56314476  0.06248209  1
  Zn  Zn138  1  0.80710064  0.56804310  0.56555450  1
  Zn  Zn139  1  0.43484071  0.44037722  0.18875978  1
  Zn  Zn140  1  0.43786579  0.43789118  0.68844875  1
  Zn  Zn141  1  0.43622999  0.94000672  0.18475509  1
  Zn  Zn142  1  0.43698727  0.93829662  0.69100878  1
  Zn  Zn143  1  0.93434423  0.43752042  0.19181507  1
  Zn  Zn144  1  0.93996838  0.43850891  0.56850813  1
  Zn  Zn145  1  0.93181847  0.93176087  0.18878823  1
  Zn  Zn146  1  0.93962262  0.93678485  0.69297591  1
  Zn  Zn147  1  0.06266152  0.06359699  0.31025970  1
  Zn  Zn148  1  0.06808304  0.05966243  0.81829205  1
  Zn  Zn149  1  0.06213772  0.55734787  0.31496663  1
  Zn  Zn150  1  0.05958162  0.55834470  0.80621209  1
  Zn  Zn151  1  0.56377404  0.06664729  0.30985830  1
  Zn  Zn152  1  0.56259730  0.06312577  0.81501025  1
  Zn  Zn153  1  0.53257529  0.57790225  0.32853830  1
  Zn  Zn154  1  0.55957325  0.56164270  0.81119424  1
  Zn  Zn155  1  0.43682027  0.19027650  0.43592556  1
  Zn  Zn156  1  0.43272872  0.18842249  0.93708021  1
  Zn  Zn157  1  0.43170048  0.68959761  0.43368490  1
  Zn  Zn158  1  0.44141852  0.68802707  0.93808180  1
  Zn  Zn159  1  0.94072773  0.18556165  0.44184624  1
  Zn  Zn160  1  0.94200594  0.19198707  0.94118331  1
  Zn  Zn161  1  0.94020419  0.68870268  0.43701091  1
  Zn  Zn162  1  0.93068648  0.69026548  0.93731975  1
  Zn  Zn163  1  0.06227830  0.30750827  0.06086160  1
  Zn  Zn164  1  0.06722088  0.30568775  0.56774074  1
  Zn  Zn165  1  0.05908542  0.80045880  0.05988727  1
  Zn  Zn166  1  0.06667488  0.81277192  0.56369649  1
  Zn  Zn167  1  0.57795843  0.34637465  0.04904986  1
  Zn  Zn168  1  0.56136949  0.31421076  0.56349557  1
  Zn  Zn169  1  0.56642418  0.81234238  0.06127564  1
  Zn  Zn170  1  0.56042335  0.81186460  0.56330234  1
  O  O171  1  0.11778079  0.12577169  0.11447272  1
  O  O172  1  0.11850200  0.11334098  0.62865350  1
  O  O173  1  0.11929849  0.61458472  0.11486090  1
  O  O174  1  0.11955796  0.62274708  0.61582602  1
  O  O175  1  0.61958664  0.12317374  0.11647505  1
  O  O176  1  0.62021989  0.12052448  0.61881845  1
  O  O177  1  0.61158301  0.62601968  0.11827775  1
  O  O178  1  0.61595492  0.62157991  0.61961207  1
  O  O179  1  0.37671728  0.36799621  0.38578347  1
  O  O180  1  0.37885257  0.38115841  0.88152258  1
  O  O181  1  0.38470605  0.88401131  0.37627730  1
  O  O182  1  0.37930210  0.88219594  0.88603896  1
  O  O183  1  0.87148511  0.38893438  0.38111276  1
  O  O184  1  0.88601525  0.38287643  0.87489218  1
  O  O185  1  0.88380803  0.88589239  0.38151006  1
  O  O186  1  0.87719829  0.88128881  0.88025819  1
  O  O187  1  0.25558184  0.00524317  0.36701447  1
  O  O188  1  0.25908928  0.00261625  0.88439826  1
  O  O189  1  0.24334752  0.49755980  0.36314752  1
  O  O190  1  0.25563674  0.50497396  0.86649527  1
  O  O191  1  0.75750532  0.00676055  0.36748902  1
  O  O192  1  0.75946535  0.00662354  0.86943302  1
  O  O193  1  0.75874959  0.50732745  0.37260436  1
  O  O194  1  0.75694004  0.49241970  0.86209882  1
  O  O195  1  0.23929158  0.48850290  0.13105686  1
  O  O196  1  0.23859182  0.50595005  0.63339156  1
  O  O197  1  0.25386755  0.99903795  0.13813152  1
  O  O198  1  0.24236661  1.00266532  0.62346150  1
  O  O199  1  0.75359069  0.49162297  0.13524145  1
  O  O200  1  0.74503652  0.49428815  0.63286215  1
  O  O201  1  0.74725576  1.00962569  0.13713447  1
  O  O202  1  0.74695588  0.99513921  0.62841444  1
  O  O203  1  0.00974293  0.37383578  0.25329018  1
  O  O204  1  0.00133889  0.35971954  0.75912272  1
  O  O205  1  0.00272278  0.87648118  0.26176202  1
  O  O206  1  0.00172069  0.87101303  0.76424938  1
  O  O207  1  0.50750579  0.36709233  0.24463178  1
  O  O208  1  0.49696563  0.36519431  0.75838192  1
  O  O209  1  0.50678664  0.87456653  0.25437350  1
  O  O210  1  0.50288062  0.87098688  0.75295303  1
  O  O211  1  0.49402376  0.13497454  0.24353823  1
  O  O212  1  0.49189449  0.13013514  0.74829748  1
  O  O213  1  0.51200741  0.64116303  0.23496972  1
  O  O214  1  0.48700428  0.62542317  0.74193110  1
  O  O215  1  1.00794057  0.12792586  0.23249831  1
  O  O216  1  0.99674136  0.12967811  0.74866349  1
  O  O217  1  0.99840717  0.63384237  0.25298689  1
  O  O218  1  0.99389096  0.62709782  0.73652126  1
  O  O219  1  0.37240131  0.25310833  0.01345718  1
  O  O220  1  0.37273481  0.25907278  0.50657639  1
  O  O221  1  0.36778581  0.75551514  0.00084692  1
  O  O222  1  0.36488081  0.75018752  0.50457232  1
  O  O223  1  0.86877056  0.25254141  0.01093814  1
  O  O224  1  0.87163804  0.23906674  0.51767379  1
  O  O225  1  0.85634829  0.75950547  -0.00655687  1
  O  O226  1  0.87406863  0.75804450  0.50691769  1
  O  O227  1  0.13835396  0.24325227  0.50177399  1
  O  O228  1  0.12394488  0.23423262  0.99614254  1
  O  O229  1  0.13721966  0.74284586  0.49931115  1
  O  O230  1  0.13252735  0.73581622  0.99194074  1
  O  O231  1  0.62494755  0.24535279  0.49264432  1
  O  O232  1  0.63278129  0.24470735  1.00478846  1
  O  O233  1  0.62460193  0.73888129  0.49903132  1
  O  O234  1  0.63588778  0.75419021  0.98945796  1
  O  O235  1  0.49055041  0.24716804  0.13304344  1
  O  O236  1  0.49217860  0.24321483  0.63136103  1
  O  O237  1  0.49831728  0.74681263  0.12909484  1
  O  O238  1  0.49139003  0.73754873  0.62385343  1
  O  O239  1  0.99065446  0.24302129  0.12879578  1
  O  O240  1  0.99634317  0.23829634  0.63633266  1
  O  O241  1  0.99932341  0.74465144  0.13798709  1
  O  O242  1  0.99318621  0.74454528  0.62670682  1
  O  O243  1  0.00041033  0.24954900  0.37236652  1
  O  O244  1  -0.00327118  0.25871103  0.86345494  1
  O  O245  1  0.00081375  0.76085365  0.36617431  1
  O  O246  1  0.00611867  0.75635311  0.87357820  1
  O  O247  1  0.50931383  0.24497510  0.36394117  1
  O  O248  1  0.49042952  0.25665551  0.86492655  1
  O  O249  1  0.50373765  0.76590470  0.36795036  1
  O  O250  1  0.51307620  0.75141145  0.87505404  1
  O  O251  1  0.25329265  0.13200743  0.48984459  1
  O  O252  1  0.23947333  0.12499265  0.98963218  1
  O  O253  1  0.23908099  0.63404850  0.50037482  1
  O  O254  1  0.24853474  0.63227308  0.99718844  1
  O  O255  1  0.74259138  0.12492910  0.48816811  1
  O  O256  1  0.74345264  0.13390451  0.99603535  1
  O  O257  1  0.73901653  0.62742155  0.49311600  1
  O  O258  1  0.74677677  0.63463295  0.99501255  1
  O  O259  1  0.25989433  0.37595901  0.00827134  1
  O  O260  1  0.26400252  0.36545969  0.49814981  1
  O  O261  1  0.26025374  0.85903806  -0.00404514  1
  O  O262  1  0.25148339  0.86149707  0.49836208  1
  O  O263  1  0.75546958  0.36760140  0.00822880  1
  O  O264  1  0.74235128  0.37579689  0.51452952  1
  O  O265  1  0.75862047  0.87359424  -0.00286038  1
  O  O266  1  0.75697827  0.87723066  0.50951027  1
  O  O267  1  0.13089590  0.49382168  0.24423619  1
  O  O268  1  0.13468582  0.50520447  0.73564217  1
  O  O269  1  0.13972571  1.00112789  0.25067409  1
  O  O270  1  0.12235689  0.98961510  0.74366565  1
  O  O271  1  0.63285339  0.48964651  0.26171280  1
  O  O272  1  0.63228804  0.50016883  0.74495267  1
  O  O273  1  0.63194953  0.99768409  0.24336182  1
  O  O274  1  0.63259768  1.00198373  0.74270575  1
  O  O275  1  0.37120833  0.00842842  0.25495209  1
  O  O276  1  0.37878653  0.01143607  0.76083204  1
  O  O277  1  0.35401060  0.49342411  0.24977898  1
  O  O278  1  0.36817547  0.50706783  0.75382157  1
  O  O279  1  0.86599640  -0.00465616  0.25901012  1
  O  O280  1  0.86924022  0.00767393  0.75755996  1
  O  O281  1  0.86278090  0.49770023  0.26354587  1
  O  O282  1  0.86563860  0.50845634  0.75871210  1
  O  O283  1  0.11991079  0.37355624  0.36960976  1
  O  O284  1  0.11393006  0.38070697  0.87400450  1
  O  O285  1  0.11166293  0.87278884  0.38078243  1
  O  O286  1  0.11578359  0.86997070  0.87258832  1
  O  O287  1  0.63399591  0.36143232  0.36934101  1
  O  O288  1  0.61004148  0.37275064  0.86950527  1
  O  O289  1  0.61835937  0.87841565  0.36394376  1
  O  O290  1  0.62285048  0.86666978  0.87137073  1
  O  O291  1  0.37685886  0.13396390  0.12755220  1
  O  O292  1  0.38062332  0.12957378  0.63496482  1
  O  O293  1  0.38431875  0.62698428  0.13725418  1
  O  O294  1  0.37938253  0.62944335  0.62961780  1
  O  O295  1  0.88626899  0.13378114  0.12147764  1
  O  O296  1  0.88359658  0.12802587  0.63391314  1
  O  O297  1  0.87506195  0.63146201  0.12110231  1
  O  O298  1  0.88329163  0.62984443  0.62946145  1
  O  O299  1  0.25736750  0.26458136  0.13469749  1
  O  O300  1  0.26113115  0.23905723  0.61371931  1
  O  O301  1  0.24774941  0.75287636  0.11795414  1
  O  O302  1  0.25950433  0.74505811  0.61113764  1
  O  O303  1  0.75791132  0.25389825  0.11642502  1
  O  O304  1  0.75902061  0.25859891  0.62538790  1
  O  O305  1  0.74414668  0.74808286  0.10881212  1
  O  O306  1  0.75647620  0.75934930  0.62258373  1
  O  O307  1  0.24985244  0.24114047  0.38355993  1
  O  O308  1  0.25613354  0.24162255  0.87886328  1
  O  O309  1  0.25099381  0.75018309  0.38693585  1
  O  O310  1  0.24447070  0.74073900  0.88265415  1
  O  O311  1  0.74556005  0.24251108  0.37666327  1
  O  O312  1  0.75915774  0.24873942  0.88612882  1
  O  O313  1  0.74901098  0.74325034  0.37584517  1
  O  O314  1  0.73653251  0.75127229  0.88322396  1
  O  O315  1  0.00799248  0.13007015  0.01412074  1
  O  O316  1  0.00359889  0.11605805  0.51358144  1
  O  O317  1  0.00879534  0.62798079  -0.00216407  1
  O  O318  1  0.01312339  0.63281101  0.51058115  1
  O  O319  1  0.50673065  0.12354967  0.00248880  1
  O  O320  1  0.50525901  0.12100305  0.50418430  1
  O  O321  1  0.49340728  0.62252391  0.01495434  1
  O  O322  1  0.50370937  0.61701802  0.50673918  1
  O  O323  1  0.48359274  0.38178410  0.50960809  1
  O  O324  1  0.48060588  0.36294329  0.98958088  1
  O  O325  1  0.50060624  0.88232562  0.49032075  1
  O  O326  1  0.49495839  0.88559443  0.99958325  1
  O  O327  1  0.99917961  0.36801008  0.50671438  1
  O  O328  1  1.00002739  0.36740385  0.98307391  1
  O  O329  1  0.99627326  0.87885787  0.49273273  1
  O  O330  1  0.98462420  0.87120978  0.98796655  1
  O  O331  1  0.51672583  0.48235616  0.39174993  1
  O  O332  1  0.49306787  0.49162616  0.87721583  1
  O  O333  1  0.49694413  0.99444452  0.37619889  1
  O  O334  1  0.49128657  1.00450229  0.88791445  1
  O  O335  1  0.98069421  0.49928670  0.37406771  1
  O  O336  1  0.99405952  0.48471966  0.86623618  1
  O  O337  1  0.99606354  0.99296714  0.37783296  1
  O  O338  1  0.98550143  0.99319100  0.87062767  1
  O  O339  1  -0.01258856  0.01331753  0.12664108  1
  O  O340  1  0.00165109  0.00847201  0.62519438  1
  O  O341  1  0.01205285  0.49681406  0.12965581  1
  O  O342  1  0.01559163  0.50933107  0.62461221  1
  O  O343  1  0.50256633  0.01041696  0.11344042  1
  O  O344  1  0.50457765  0.00650858  0.61959747  1
  O  O345  1  0.49895144  0.51293536  0.12783644  1
  O  O346  1  0.50189656  0.50999902  0.62102242  1
  O  O347  1  0.23710783  0.38235407  0.24526243  1
  O  O348  1  0.25638513  0.38513418  0.75049690  1
  O  O349  1  0.25119911  0.88777868  0.24549862  1
  O  O350  1  0.24024927  0.87296462  0.75910276  1
  O  O351  1  0.74476016  0.38480197  0.24563855  1
  O  O352  1  0.74837604  0.38240357  0.73979269  1
  O  O353  1  0.74072856  0.88693668  0.25530479  1
  O  O354  1  0.75109289  0.88172930  0.73760279  1
  O  O355  1  0.25418970  0.11829711  0.25520560  1
  O  O356  1  0.25843654  0.12916465  0.76514758  1
  O  O357  1  0.24803010  0.61032093  0.24915196  1
  O  O358  1  0.25973475  0.62122317  0.75376896  1
  O  O359  1  0.74350993  0.11890274  0.26267209  1
  O  O360  1  0.75711269  0.12320457  0.75611115  1
  O  O361  1  0.74065179  0.61712334  0.26103332  1
  O  O362  1  0.76129787  0.61424598  0.74108161  1
  O  O363  1  0.36578001  0.12171573  0.36902178  1
  O  O364  1  0.36380359  0.11877058  0.87215450  1
  O  O365  1  0.42105817  0.61026385  0.35895942  1
  O  O366  1  0.37159698  0.62078860  0.86676781  1
  O  O367  1  0.86878067  0.11220929  0.38076630  1
  O  O368  1  0.87135567  0.11859542  0.87492939  1
  O  O369  1  0.86266376  0.61690522  0.38444431  1
  O  O370  1  0.88556272  0.61687117  0.86058525  1
  O  O371  1  0.12919106  0.37766543  0.12976175  1
  O  O372  1  0.12737494  0.38970196  0.62328792  1
  O  O373  1  0.12470111  0.89046780  0.07547050  1
  O  O374  1  0.11974099  0.88350944  0.63917146  1
  O  O375  1  0.64242032  0.36144162  0.14300622  1
  O  O376  1  0.62966664  0.38175132  0.62974076  1
  O  O377  1  0.61963463  0.88673465  0.13533387  1
  O  O378  1  0.63374810  0.88073099  0.62498392  1
  O  O379  1  0.12440463  0.25965669  0.25503078  1
  O  O380  1  0.11312732  0.24859667  0.74437695  1
  O  O381  1  0.10942917  0.74830717  0.25157767  1
  O  O382  1  0.12546006  0.75628127  0.75611189  1
  O  O383  1  0.61700120  0.25563724  0.25764895  1
  O  O384  1  0.61017754  0.24758083  0.74497204  1
  O  O385  1  0.61714382  0.76255383  0.24928113  1
  O  O386  1  0.62538905  0.74972161  0.76095255  1
  O  O387  1  0.38059729  0.24819486  0.24288946  1
  O  O388  1  0.38172982  0.23976663  0.74344866  1
  O  O389  1  0.38806908  0.75336373  0.24970332  1
  O  O390  1  0.37359308  0.74229333  0.74226229  1
  O  O391  1  0.87161861  0.25387851  0.23859235  1
  O  O392  1  0.88289871  0.24304055  0.74076484  1
  O  O393  1  0.89377453  0.76189014  0.24878842  1
  O  O394  1  0.87379922  0.74165718  0.74382924  1
  O  O395  1  0.37833972  0.48617524  0.50186668  1
  O  O396  1  0.37503995  0.49189514  0.99460740  1
  O  O397  1  0.38236554  1.00044066  0.49137464  1
  O  O398  1  0.38056100  0.99466640  0.99572401  1
  O  O399  1  0.87207031  0.50246915  0.49480322  1
  O  O400  1  0.86793844  0.49986853  0.98231367  1
  O  O401  1  0.88254147  0.99416792  0.49376111  1
  O  O402  1  0.86887964  0.98729968  0.99293642  1
  O  O403  1  0.11625161  0.02591659  -0.02257919  1
  O  O404  1  0.12022287  -0.00127573  0.51226899  1
  O  O405  1  0.13149443  0.50837037  0.00864974  1
  O  O406  1  0.13557063  0.51187231  0.51179059  1
  O  O407  1  0.61845843  0.00950247  0.00356432  1
  O  O408  1  0.62017411  0.00675460  0.50430088  1
  O  O409  1  0.61219226  0.45355389  0.01242451  1
  O  O410  1  0.61838308  0.51002151  0.50869766  1
  O  O411  1  0.36775888  0.37114159  0.11879812  1
  O  O412  1  0.37582156  0.36289883  0.62451646  1
  O  O413  1  0.37447925  0.87373951  0.11209180  1
  O  O414  1  0.38104276  0.86213808  0.62261125  1
  O  O415  1  0.86634117  0.36998849  0.12382013  1
  O  O416  1  0.86708774  0.36674002  0.62786122  1
  O  O417  1  0.87714724  0.86788884  0.10897757  1
  O  O418  1  0.87021227  0.87159076  0.62127935  1
  O  O419  1  0.13711632  0.12300367  0.37838252  1
  O  O420  1  0.13814669  0.13210235  0.87405840  1
  O  O421  1  0.11687103  0.62547886  0.39235774  1
  O  O422  1  0.12929953  0.62469898  0.87919955  1
  O  O423  1  0.63190939  0.13447423  0.37846125  1
  O  O424  1  0.63438192  0.12231804  0.88566647  1
  O  O425  1  0.62882449  0.62718936  0.38444505  1
  O  O426  1  0.62041716  0.63722022  0.87345255  1
