# generated using pymatgen
data_V85Zn86O256
_symmetry_space_group_name_H-M   'P 1'
_cell_length_a   16.90660357
_cell_length_b   16.91974034
_cell_length_c   16.92385652
_cell_angle_alpha   89.98801778
_cell_angle_beta   90.02131195
_cell_angle_gamma   90.06815401
_symmetry_Int_Tables_number   1
_chemical_formula_structural   V85Zn86O256
_chemical_formula_sum   'V85 Zn86 O256'
_cell_volume   4841.15570557
_cell_formula_units_Z   1
loop_
 _symmetry_equiv_pos_site_id
 _symmetry_equiv_pos_as_xyz
  1  'x, y, z'
loop_
 _atom_site_type_symbol
 _atom_site_label
 _atom_site_symmetry_multiplicity
 _atom_site_fract_x
 _atom_site_fract_y
 _atom_site_fract_z
 _atom_site_occupancy
  V  V0  1  0.62155006  0.49765116  0.13772593  1
  V  V1  1  0.62500771  0.23720775  0.36568112  1
  V  V2  1  0.12142316  0.87971678  0.74585782  1
  V  V3  1  0.86473695  0.87144306  0.00439015  1
  V  V4  1  0.12354289  0.50080189  0.62186866  1
  V  V5  1  0.00284691  0.88047984  0.37990593  1
  V  V6  1  0.50373133  0.12940048  0.61936889  1
  V  V7  1  0.00762451  0.24914597  0.75346926  1
  V  V8  1  0.24572859  0.88102516  0.62341381  1
  V  V9  1  0.51238385  0.50290478  0.50385451  1
  V  V10  1  0.61949577  0.62224474  0.00727036  1
  V  V11  1  0.62185412  0.74821182  0.87520352  1
  V  V12  1  0.38317705  0.62518896  0.24895078  1
  V  V13  1  0.50725230  0.75054368  0.24815669  1
  V  V14  1  0.74335454  0.37147291  0.13649560  1
  V  V15  1  0.86457281  0.49581132  0.87331813  1
  V  V16  1  0.12513927  0.74090089  0.37689929  1
  V  V17  1  0.87600082  0.01397901  0.37672053  1
  V  V18  1  0.87504327  0.24803854  0.62234713  1
  V  V19  1  0.12514205  0.49944970  0.12897238  1
  V  V20  1  0.00050100  0.50271083  0.49425725  1
  V  V21  1  -0.00163858  0.12214424  0.12687672  1
  V  V22  1  0.86474588  0.36705897  -0.00007093  1
  V  V23  1  0.51552499  0.37432159  0.36779145  1
  V  V24  1  0.12753848  0.24823599  0.37513411  1
  V  V25  1  0.38160820  0.25465249  0.62853578  1
  V  V26  1  0.37814301  0.25674300  0.12528694  1
  V  V27  1  0.87139732  -0.00262897  0.87608780  1
  V  V28  1  0.24761432  0.74698532  0.50208645  1
  V  V29  1  0.24867419  0.50292684  0.74981433  1
  V  V30  1  0.50252712  0.63291017  0.62663860  1
  V  V31  1  0.37999300  0.13099105  0.75134467  1
  V  V32  1  0.61293260  0.24499464  0.87977103  1
  V  V33  1  0.12678391  0.10842792  0.50174751  1
  V  V34  1  0.12258446  0.62556134  0.00187427  1
  V  V35  1  0.50382603  0.87494689  0.37371904  1
  V  V36  1  0.25475546  0.00035281  0.24766376  1
  V  V37  1  0.25030597  0.50138206  0.25126463  1
  V  V38  1  0.49778416  0.49262527  0.00661521  1
  V  V39  1  -0.00375339  0.24219791  0.25003953  1
  V  V40  1  0.62554106  0.00638698  0.61370936  1
  V  V41  1  0.37289583  0.49547610  0.88192162  1
  V  V42  1  0.24695022  0.75428142  0.00730761  1
  V  V43  1  0.50596191  0.13019088  0.13024330  1
  V  V44  1  0.74480330  0.13081562  0.89113141  1
  V  V45  1  0.37868293  0.74727090  0.12458792  1
  V  V46  1  0.24854182  0.62578827  0.87703316  1
  V  V47  1  0.63019506  -0.00611450  0.12418010  1
  V  V48  1  0.24951460  0.25057395  0.49989983  1
  V  V49  1  0.24723535  0.00155655  0.74761864  1
  V  V50  1  -0.00362662  0.37663456  0.37282162  1
  V  V51  1  0.87388753  0.87371110  0.49589030  1
  V  V52  1  0.37945323  0.49808472  0.37881931  1
  V  V53  1  0.00609017  0.11276763  0.62104293  1
  V  V54  1  0.74053724  0.23489957  0.49740749  1
  V  V55  1  -0.00744007  0.62406094  0.13440899  1
  V  V56  1  0.37686876  0.87846366  0.49960304  1
  V  V57  1  0.74586597  0.00357187  0.74877924  1
  V  V58  1  0.37923681  0.63325835  0.75247038  1
  V  V59  1  0.24132727  0.12931180  0.87518169  1
  V  V60  1  0.86648579  0.24311718  0.12496280  1
  V  V61  1  0.00408887  0.62560589  0.62133123  1
  V  V62  1  0.37391324  0.00214479  0.87503772  1
  V  V63  1  0.00008166  -0.00222227  0.00105712  1
  V  V64  1  0.76434784  0.62729633  0.37359413  1
  V  V65  1  0.49698402  0.87311731  0.87128375  1
  V  V66  1  0.87156469  0.37434124  0.49480537  1
  V  V67  1  0.76097058  0.00444144  0.24728561  1
  V  V68  1  0.13203635  -0.00347648  0.12249997  1
  V  V69  1  0.12979241  0.87195043  0.24700464  1
  V  V70  1  0.25024006  0.62544154  0.37883912  1
  V  V71  1  0.37140921  0.87844038  0.00630228  1
  V  V72  1  -0.00353412  0.49763949  -0.00224126  1
  V  V73  1  0.87385826  0.12311452  0.74832298  1
  V  V74  1  0.24756030  0.26049579  -0.00405695  1
  V  V75  1  0.74759330  0.86931988  0.61710961  1
  V  V76  1  0.12734892  0.37277700  0.24821260  1
  V  V77  1  -0.00254111  0.87317981  0.87514011  1
  V  V78  1  0.49767984  0.37491422  0.86577799  1
  V  V79  1  0.86623858  0.61993261  0.74877121  1
  V  V80  1  0.25042002  0.37691497  0.62484882  1
  V  V81  1  0.62031118  0.87325562  0.74892685  1
  V  V82  1  -0.00238218  0.74705435  0.75009110  1
  V  V83  1  0.86633098  0.74815780  0.13216183  1
  V  V84  1  0.50522148  0.00951145  -0.00185363  1
  Zn  Zn85  1  0.63485908  0.87289422  0.24723839  1
  Zn  Zn86  1  0.12551070  0.37259725  0.75507757  1
  Zn  Zn87  1  0.25538023  0.12522354  0.37372983  1
  Zn  Zn88  1  0.37786431  0.00406989  0.37244388  1
  Zn  Zn89  1  0.12278078  0.74976240  0.87714834  1
  Zn  Zn90  1  0.64134417  0.63518689  0.50544697  1
  Zn  Zn91  1  0.64142885  0.75537142  0.39406145  1
  Zn  Zn92  1  0.74323182  0.61970551  0.87318712  1
  Zn  Zn93  1  0.37670389  0.13178071  0.25184151  1
  Zn  Zn94  1  0.25660231  0.37911158  0.12123682  1
  Zn  Zn95  1  -0.00142944  0.74721807  0.25325385  1
  Zn  Zn96  1  0.76575955  0.49957597  0.25589386  1
  Zn  Zn97  1  0.64165877  0.37613843  0.75384748  1
  Zn  Zn98  1  0.74509457  0.74776782  0.00291824  1
  Zn  Zn99  1  0.37930694  0.37472221  0.49892930  1
  Zn  Zn100  1  0.87168037  0.74762286  0.62031284  1
  Zn  Zn101  1  0.37609245  0.75475616  0.63210917  1
  Zn  Zn102  1  0.50393314  0.00626002  0.49285187  1
  Zn  Zn103  1  0.00285289  0.36462771  0.88104202  1
  Zn  Zn104  1  0.12297804  0.12973546  -0.00346374  1
  Zn  Zn105  1  0.64327947  0.50413910  0.64505001  1
  Zn  Zn106  1  0.74949181  0.38007350  0.62822956  1
  Zn  Zn107  1  0.18907344  0.18574322  0.18323371  1
  Zn  Zn108  1  0.18939911  0.18558268  0.68313674  1
  Zn  Zn109  1  0.18898343  0.68578098  0.18890459  1
  Zn  Zn110  1  0.18521403  0.69015534  0.68715399  1
  Zn  Zn111  1  0.68649071  0.18099840  0.18792348  1
  Zn  Zn112  1  0.68618067  0.19639238  0.69105548  1
  Zn  Zn113  1  0.69067935  0.67867727  0.19153085  1
  Zn  Zn114  1  0.68300200  0.69069026  0.68734042  1
  Zn  Zn115  1  0.31694545  0.31473406  0.31099822  1
  Zn  Zn116  1  0.31176310  0.31530870  0.81243330  1
  Zn  Zn117  1  0.31397948  0.81503498  0.31228922  1
  Zn  Zn118  1  0.30766046  0.81309258  0.81722704  1
  Zn  Zn119  1  0.81015862  0.30392862  0.31278256  1
  Zn  Zn120  1  0.81484701  0.30768686  0.81307560  1
  Zn  Zn121  1  0.81139131  0.81725391  0.31000499  1
  Zn  Zn122  1  0.80808067  0.81062687  0.81086515  1
  Zn  Zn123  1  0.18520192  0.43746047  0.43783446  1
  Zn  Zn124  1  0.18193840  0.43558185  0.93546126  1
  Zn  Zn125  1  0.19215251  0.93430202  0.43116653  1
  Zn  Zn126  1  0.18617398  0.93737035  0.93489415  1
  Zn  Zn127  1  0.69437094  0.44312823  0.43814838  1
  Zn  Zn128  1  0.68225243  0.43205560  0.94114182  1
  Zn  Zn129  1  0.69152528  0.94001252  0.43057209  1
  Zn  Zn130  1  0.68484611  0.93945397  0.93737063  1
  Zn  Zn131  1  0.31456717  0.06978928  0.06232108  1
  Zn  Zn132  1  0.31453597  0.06374013  0.56215431  1
  Zn  Zn133  1  0.31337902  0.56518463  0.06372849  1
  Zn  Zn134  1  0.31684381  0.56520984  0.56326633  1
  Zn  Zn135  1  0.81429841  0.05872732  0.06670728  1
  Zn  Zn136  1  0.81576748  0.05896006  0.55912863  1
  Zn  Zn137  1  0.80579796  0.56040152  0.06450285  1
  Zn  Zn138  1  0.81734481  0.56286771  0.55476545  1
  Zn  Zn139  1  0.44116154  0.43509677  0.19090271  1
  Zn  Zn140  1  0.43982391  0.44453728  0.68872521  1
  Zn  Zn141  1  0.44191468  0.93717152  0.18436810  1
  Zn  Zn142  1  0.43680434  0.94268756  0.68558579  1
  Zn  Zn143  1  0.94004617  0.42637026  0.18038831  1
  Zn  Zn144  1  0.93046255  0.43488966  0.68613902  1
  Zn  Zn145  1  0.93896129  0.93247989  0.19112328  1
  Zn  Zn146  1  0.93369372  0.93595839  0.68592111  1
  Zn  Zn147  1  0.06608553  0.06136468  0.31382193  1
  Zn  Zn148  1  0.06012866  0.06127301  0.80998311  1
  Zn  Zn149  1  -0.06254135  0.55663334  0.31176597  1
  Zn  Zn150  1  0.06004926  0.55942913  0.81302606  1
  Zn  Zn151  1  0.56665388  0.06055485  0.30761555  1
  Zn  Zn152  1  0.56241819  0.06527238  0.80899776  1
  Zn  Zn153  1  0.57093739  0.56985715  0.32078127  1
  Zn  Zn154  1  0.55990208  0.56096230  0.81321839  1
  Zn  Zn155  1  0.43947932  0.19085246  0.43553234  1
  Zn  Zn156  1  0.43151608  0.19068082  0.94145031  1
  Zn  Zn157  1  0.43982033  0.69109287  0.43898894  1
  Zn  Zn158  1  0.44034675  0.68473798  0.93931504  1
  Zn  Zn159  1  0.94297226  0.18818536  0.44168863  1
  Zn  Zn160  1  0.93363275  0.18311450  0.93855759  1
  Zn  Zn161  1  0.93831424  0.69245057  0.44055753  1
  Zn  Zn162  1  0.93348817  0.68439685  0.93866761  1
  Zn  Zn163  1  0.06253931  0.31155930  0.06191196  1
  Zn  Zn164  1  0.06249642  0.31035401  0.56484955  1
  Zn  Zn165  1  0.05704494  0.81245458  0.06504696  1
  Zn  Zn166  1  0.06199790  0.81521363  0.56011515  1
  Zn  Zn167  1  0.56563489  0.31179378  0.05502174  1
  Zn  Zn168  1  0.56608231  0.31962937  0.56373428  1
  Zn  Zn169  1  0.55814289  0.81421388  0.05960692  1
  Zn  Zn170  1  0.56026597  0.81298023  0.56275324  1
  O  O171  1  0.11399319  0.11629785  0.12180422  1
  O  O172  1  0.11912803  0.12557260  0.61473725  1
  O  O173  1  0.11799584  0.61827271  0.12096051  1
  O  O174  1  0.11282164  0.61829470  0.62914432  1
  O  O175  1  0.61152529  0.11750919  0.12343776  1
  O  O176  1  0.61515097  0.11933335  0.63587257  1
  O  O177  1  0.62758730  0.61302631  0.11737216  1
  O  O178  1  0.61668804  0.62168648  0.62612108  1
  O  O179  1  0.38499769  0.38356662  0.37691407  1
  O  O180  1  0.37755463  0.38829165  0.87416336  1
  O  O181  1  0.38265039  0.87785580  0.38282582  1
  O  O182  1  0.38014012  0.88000630  0.88150696  1
  O  O183  1  0.88853613  0.36416742  0.37966410  1
  O  O184  1  0.88109299  0.37794466  0.88402407  1
  O  O185  1  0.88461108  0.88044671  0.37924612  1
  O  O186  1  0.87779214  0.87869409  0.88011267  1
  O  O187  1  0.25405114  0.00215171  0.36195309  1
  O  O188  1  0.25543083  0.00824119  0.86932961  1
  O  O189  1  0.25740371  0.50402606  0.37172292  1
  O  O190  1  0.25547421  0.50720881  0.87394527  1
  O  O191  1  0.76707141  0.00098286  0.36547157  1
  O  O192  1  0.74967362  0.00809523  0.86700936  1
  O  O193  1  0.75138978  0.51490905  0.37241764  1
  O  O194  1  0.76178515  0.49690759  0.88190342  1
  O  O195  1  0.24331578  0.50023847  0.13039462  1
  O  O196  1  0.24297838  0.49725527  0.62603028  1
  O  O197  1  0.23782094  1.00586536  0.12649299  1
  O  O198  1  0.25430435  0.98867307  0.63125562  1
  O  O199  1  0.73955046  0.48912851  0.12871206  1
  O  O200  1  0.75255440  0.49396906  0.61114525  1
  O  O201  1  0.74337874  1.00089122  0.13285831  1
  O  O202  1  0.74382728  0.99587227  0.63146870  1
  O  O203  1  0.00790138  0.36263813  0.25480996  1
  O  O204  1  -0.00352572  0.35605312  0.74650979  1
  O  O205  1  0.01301912  0.87238479  0.26003524  1
  O  O206  1  0.00357229  0.86843521  0.75221933  1
  O  O207  1  0.50113718  0.37691386  0.26951543  1
  O  O208  1  0.49350483  0.37687616  0.76434723  1
  O  O209  1  0.50045514  0.86715917  0.25641489  1
  O  O210  1  0.50446266  0.88370329  0.76221964  1
  O  O211  1  0.49755150  0.12087139  0.23288266  1
  O  O212  1  0.48577601  0.12138468  0.74160746  1
  O  O213  1  0.48922308  0.63369447  0.25911587  1
  O  O214  1  0.48899535  0.62192630  0.74237707  1
  O  O215  1  1.00761544  0.13462136  0.24262456  1
  O  O216  1  0.99471200  0.13119475  0.74334491  1
  O  O217  1  1.00263416  0.62485894  0.23665127  1
  O  O218  1  0.99422964  0.63233770  0.74502222  1
  O  O219  1  0.36036784  0.24648392  0.01206068  1
  O  O220  1  0.36393480  0.25169752  0.50767007  1
  O  O221  1  0.37054647  0.75499164  0.00649626  1
  O  O222  1  0.36570290  0.76279234  0.50133311  1
  O  O223  1  0.88052829  0.25586963  0.01080679  1
  O  O224  1  0.86905496  0.25326305  0.50397373  1
  O  O225  1  0.87122851  0.75627123  0.00644055  1
  O  O226  1  0.88083887  0.76830200  0.50411308  1
  O  O227  1  0.13711038  0.24810210  0.49684250  1
  O  O228  1  0.14144623  0.24740595  1.00632985  1
  O  O229  1  0.13788164  0.75781513  0.49136083  1
  O  O230  1  0.13155750  0.74669392  1.00227370  1
  O  O231  1  0.63811483  0.25190238  0.49769522  1
  O  O232  1  0.63018479  0.25055249  0.98022462  1
  O  O233  1  0.63132147  0.75036371  0.50782398  1
  O  O234  1  0.62238866  0.74273521  0.99530944  1
  O  O235  1  0.49165782  0.23957316  0.11305587  1
  O  O236  1  0.48850503  0.24699024  0.61971321  1
  O  O237  1  0.48659127  0.75415985  0.13074644  1
  O  O238  1  0.49438381  0.73788858  0.62470895  1
  O  O239  1  0.99474541  0.24142929  0.13145176  1
  O  O240  1  0.99356959  0.23979278  0.63172937  1
  O  O241  1  0.99104875  0.73868457  0.12561909  1
  O  O242  1  0.99992768  0.74276352  0.63127510  1
  O  O243  1  0.00712326  0.25370339  0.36725442  1
  O  O244  1  -0.00697165  0.24313906  0.85746210  1
  O  O245  1  0.01000738  0.75745162  0.37379805  1
  O  O246  1  -0.00088684  0.75395367  0.86715731  1
  O  O247  1  0.51381597  0.26509163  0.38567646  1
  O  O248  1  0.50483111  0.25527387  0.87988058  1
  O  O249  1  0.49891304  0.76133955  0.36554066  1
  O  O250  1  0.50861703  0.76143829  0.88072209  1
  O  O251  1  0.24402871  0.13372818  0.50074881  1
  O  O252  1  0.24740062  0.13292047  0.99011367  1
  O  O253  1  0.25654712  0.63779929  0.49522547  1
  O  O254  1  0.24248343  0.63263323  0.99712117  1
  O  O255  1  0.75240727  0.13654715  0.50068630  1
  O  O256  1  0.75133566  0.11695971  0.98860430  1
  O  O257  1  0.75893457  0.62790572  0.48315938  1
  O  O258  1  0.73438023  0.62451768  0.99507936  1
  O  O259  1  0.24904565  0.36435813  0.00025288  1
  O  O260  1  0.25224535  0.36931128  0.50778098  1
  O  O261  1  0.25900851  0.86645951  -0.00729961  1
  O  O262  1  0.25560065  0.87074409  0.50720875  1
  O  O263  1  0.76123195  0.37729220  0.00951526  1
  O  O264  1  0.76442347  0.36570282  0.49489709  1
  O  O265  1  0.76157380  0.87457610  -0.00373270  1
  O  O266  1  0.75870990  0.88329167  0.50741095  1
  O  O267  1  0.12956015  0.49429736  0.23621769  1
  O  O268  1  0.12951029  0.50134410  0.73786015  1
  O  O269  1  0.13467519  0.99341956  0.24284880  1
  O  O270  1  0.12951036  0.98733532  0.75359255  1
  O  O271  1  0.61869806  0.50376458  0.23871516  1
  O  O272  1  0.62157234  0.49090410  0.75625610  1
  O  O273  1  0.63485010  0.99725944  0.24072066  1
  O  O274  1  0.62990297  0.99239037  0.74439756  1
  O  O275  1  0.36195578  -0.00371678  0.24311496  1
  O  O276  1  0.36707254  0.00803446  0.75579906  1
  O  O277  1  0.37413210  0.50728288  0.25975787  1
  O  O278  1  0.36681506  0.51121682  0.75920766  1
  O  O279  1  0.86963289  -0.00193807  0.25702856  1
  O  O280  1  0.86544072  0.00288595  0.75586197  1
  O  O281  1  0.87965508  0.49604012  0.23959470  1
  O  O282  1  0.88572444  0.50871597  0.76148724  1
  O  O283  1  0.11613591  0.36856361  0.36971513  1
  O  O284  1  0.11397610  0.38118369  0.86769786  1
  O  O285  1  0.12036934  0.86822122  0.36800825  1
  O  O286  1  0.11635562  0.87208159  0.86612641  1
  O  O287  1  0.61858083  0.37143544  0.38027642  1
  O  O288  1  0.61443950  0.36410756  0.87624554  1
  O  O289  1  0.61902501  0.87101909  0.37079335  1
  O  O290  1  0.61599380  0.87198924  0.86929137  1
  O  O291  1  0.38644507  0.13429157  0.12633059  1
  O  O292  1  0.37904179  0.13396788  0.63267786  1
  O  O293  1  0.37200376  0.63430422  0.13649322  1
  O  O294  1  0.37987991  0.62874548  0.63646336  1
  O  O295  1  0.88864219  0.12924554  0.12048632  1
  O  O296  1  0.88219389  0.13145125  0.62582014  1
  O  O297  1  0.88057716  0.63742060  0.11566794  1
  O  O298  1  0.88689162  0.62582696  0.63219719  1
  O  O299  1  0.25948066  0.25162867  0.11457753  1
  O  O300  1  0.25789903  0.25709109  0.61905867  1
  O  O301  1  0.25944721  0.74686750  0.11448010  1
  O  O302  1  0.25030493  0.76045086  0.61895641  1
  O  O303  1  0.75912277  0.25150788  0.13007596  1
  O  O304  1  0.75851461  0.24888814  0.61249828  1
  O  O305  1  0.76231264  0.74543643  0.12389907  1
  O  O306  1  0.75278936  0.76696352  0.63473538  1
  O  O307  1  0.24659498  0.25162285  0.38333920  1
  O  O308  1  0.25605016  0.24492792  0.88735370  1
  O  O309  1  0.24660878  0.74771902  0.38266005  1
  O  O310  1  0.24733038  0.74323786  0.88882148  1
  O  O311  1  0.73718903  0.25014284  0.38551019  1
  O  O312  1  0.75187388  0.23261880  0.87742282  1
  O  O313  1  0.75365524  0.73686391  0.36419594  1
  O  O314  1  0.73365277  0.75096149  0.87739060  1
  O  O315  1  0.00267122  0.11621849  0.00579293  1
  O  O316  1  0.01443876  0.12899062  0.50931870  1
  O  O317  1  0.00446751  0.61733278  0.00748733  1
  O  O318  1  -0.00360408  0.61528196  0.50844305  1
  O  O319  1  0.49253496  0.11374841  0.00580748  1
  O  O320  1  0.49208343  0.12314842  0.51553194  1
  O  O321  1  0.51077695  0.61199039  -0.00472618  1
  O  O322  1  0.49689599  0.61885096  0.50896443  1
  O  O323  1  0.49845589  0.38780624  0.49370678  1
  O  O324  1  0.50139596  0.38729151  0.98944835  1
  O  O325  1  0.49210986  0.87809420  0.49303135  1
  O  O326  1  0.49102294  0.88545123  0.98910711  1
  O  O327  1  0.99580191  0.37627285  0.49052317  1
  O  O328  1  0.98918124  0.38180773  1.00359264  1
  O  O329  1  0.99683564  0.87772477  0.48728928  1
  O  O330  1  0.99134976  0.87902131  0.99299160  1
  O  O331  1  0.49759891  0.49448507  0.38184979  1
  O  O332  1  0.48989711  0.49327606  0.88296746  1
  O  O333  1  0.50015674  0.98856212  0.37338474  1
  O  O334  1  0.49480794  0.99755421  0.88085867  1
  O  O335  1  1.00523021  0.48920872  0.38215979  1
  O  O336  1  0.99117622  0.50203580  0.88922127  1
  O  O337  1  0.98871259  0.99243388  0.36532156  1
  O  O338  1  0.99147328  0.99488879  0.87936301  1
  O  O339  1  0.00636643  0.00520878  0.12291754  1
  O  O340  1  -0.00334663  0.01348899  0.63116990  1
  O  O341  1  0.00592494  0.50444118  0.11464803  1
  O  O342  1  0.00627798  0.50482142  0.61986427  1
  O  O343  1  0.50481733  0.01030720  0.11677693  1
  O  O344  1  0.50911022  0.00942323  0.62286825  1
  O  O345  1  0.50620705  0.49330632  0.11732449  1
  O  O346  1  0.49540697  0.51244422  0.61485532  1
  O  O347  1  0.24475656  0.38376164  0.24847342  1
  O  O348  1  0.24904900  0.38394249  0.74135255  1
  O  O349  1  0.23805178  0.88081834  0.25267777  1
  O  O350  1  0.24116220  0.87814044  0.74426121  1
  O  O351  1  0.75357922  0.37486792  0.23954358  1
  O  O352  1  0.75905301  0.36948515  0.74257651  1
  O  O353  1  0.74910620  0.89289876  0.25189300  1
  O  O354  1  0.74209796  0.88686332  0.74542108  1
  O  O355  1  0.25116446  0.11481879  0.25011154  1
  O  O356  1  0.25713996  0.12219860  0.75473174  1
  O  O357  1  0.26067737  0.62047880  0.25762726  1
  O  O358  1  0.25242274  0.62162560  0.75701857  1
  O  O359  1  0.74864629  0.10563907  0.24830036  1
  O  O360  1  0.75418361  0.11489784  0.75156041  1
  O  O361  1  0.74975063  0.61708961  0.26379255  1
  O  O362  1  0.76316467  0.63178552  0.75103644  1
  O  O363  1  0.37599174  0.12321733  0.36942731  1
  O  O364  1  0.36637587  0.12284747  0.86779238  1
  O  O365  1  0.37049073  0.61957045  0.36957664  1
  O  O366  1  0.37008079  0.61822215  0.87096952  1
  O  O367  1  0.88429936  0.11250800  0.37754662  1
  O  O368  1  0.86285694  0.11645227  0.87081930  1
  O  O369  1  0.87369441  0.62885497  0.37281588  1
  O  O370  1  0.87128566  0.61525873  0.86790016  1
  O  O371  1  0.12697543  0.38263048  0.12985643  1
  O  O372  1  0.13124989  0.38263262  0.62917469  1
  O  O373  1  0.11831582  0.88431466  0.13342956  1
  O  O374  1  0.13258152  0.87217768  0.63356755  1
  O  O375  1  0.63348309  0.38089193  0.11865143  1
  O  O376  1  0.62845177  0.38041555  0.63279395  1
  O  O377  1  0.61568802  0.89002826  0.12467695  1
  O  O378  1  0.62817226  0.88541149  0.63268219  1
  O  O379  1  0.12110621  0.25372509  0.25353820  1
  O  O380  1  0.11063915  0.24762283  0.74356556  1
  O  O381  1  0.12610107  0.75640236  0.25623126  1
  O  O382  1  0.11343171  0.75865826  0.75208101  1
  O  O383  1  0.62968519  0.24583062  0.26616563  1
  O  O384  1  0.63223499  0.25389309  0.77297686  1
  O  O385  1  0.61165321  0.75080617  0.23985539  1
  O  O386  1  0.62520119  0.76580113  0.75707155  1
  O  O387  1  0.36870304  0.24895836  0.23113697  1
  O  O388  1  0.36796043  0.24264987  0.74066707  1
  O  O389  1  0.38061748  0.74527842  0.24293961  1
  O  O390  1  0.36717424  0.73745695  0.75406823  1
  O  O391  1  0.88575175  0.25099993  0.24029480  1
  O  O392  1  0.88237473  0.23946543  0.73965287  1
  O  O393  1  0.87951242  0.75593387  0.23455560  1
  O  O394  1  0.88511262  0.74428452  0.74827572  1
  O  O395  1  0.38039963  0.50170212  0.48772130  1
  O  O396  1  0.38255220  0.50784791  0.99254226  1
  O  O397  1  0.37560312  0.98854846  0.49875943  1
  O  O398  1  0.37832767  0.99412749  0.99503613  1
  O  O399  1  0.89229334  0.48633805  0.50230278  1
  O  O400  1  0.88008792  0.49225203  0.99652993  1
  O  O401  1  0.87447826  0.99292048  0.48437147  1
  O  O402  1  0.88041513  0.99035838  0.99718205  1
  O  O403  1  0.11836077  -0.00136647  0.00673068  1
  O  O404  1  0.13266072  0.00938149  0.49509329  1
  O  O405  1  0.11827483  0.50377969  0.01065150  1
  O  O406  1  0.11522055  0.49456197  0.51202957  1
  O  O407  1  0.61475116  -0.00230347  0.00597420  1
  O  O408  1  0.62640535  -0.00140080  0.51082933  1
  O  O409  1  0.61606755  0.50456357  0.00670774  1
  O  O410  1  0.61580518  0.50649342  0.50004226  1
  O  O411  1  0.37765858  0.36196578  0.12576833  1
  O  O412  1  0.37003737  0.37052245  0.62455190  1
  O  O413  1  0.37812479  0.86925405  0.11142024  1
  O  O414  1  0.36820889  0.87407927  0.61965300  1
  O  O415  1  0.86727130  0.36110208  0.11749351  1
  O  O416  1  0.88157495  0.35948035  0.61261109  1
  O  O417  1  0.88397558  0.85960624  0.11565816  1
  O  O418  1  0.86491111  0.87857316  0.61530162  1
  O  O419  1  0.12801403  0.13227947  0.38411818  1
  O  O420  1  0.13765498  0.12117479  0.87289599  1
  O  O421  1  0.13525558  0.63962266  0.37199819  1
  O  O422  1  0.12916914  0.62563048  0.88323309  1
  O  O423  1  0.61162784  0.13869473  0.37890502  1
  O  O424  1  0.63378161  0.13157374  0.87241170  1
  O  O425  1  0.63676850  0.63527000  0.38311413  1
  O  O426  1  0.62217457  0.63468149  0.88031746  1
