# generated using pymatgen
data_V85Zn86O256
_symmetry_space_group_name_H-M   'P 1'
_cell_length_a   16.93716458
_cell_length_b   16.93531235
_cell_length_c   16.92669714
_cell_angle_alpha   90.06249621
_cell_angle_beta   89.98417565
_cell_angle_gamma   90.00313397
_symmetry_Int_Tables_number   1
_chemical_formula_structural   V85Zn86O256
_chemical_formula_sum   'V85 Zn86 O256'
_cell_volume   4855.18594038
_cell_formula_units_Z   1
loop_
 _symmetry_equiv_pos_site_id
 _symmetry_equiv_pos_as_xyz
  1  'x, y, z'
loop_
 _atom_site_type_symbol
 _atom_site_label
 _atom_site_symmetry_multiplicity
 _atom_site_fract_x
 _atom_site_fract_y
 _atom_site_fract_z
 _atom_site_occupancy
  V  V0  1  0.12303180  0.86127125  0.24726680  1
  V  V1  1  0.62423202  0.37847530  0.24762560  1
  V  V2  1  0.87168896  0.62074797  0.74859172  1
  V  V3  1  0.87487095  -0.00579277  0.87397711  1
  V  V4  1  0.75581315  0.74805585  -0.00301675  1
  V  V5  1  0.36685465  0.87668873  0.00039898  1
  V  V6  1  0.25061794  0.25098476  0.50724480  1
  V  V7  1  0.00021703  0.37117492  0.36629416  1
  V  V8  1  0.61502478  0.52173074  0.11860531  1
  V  V9  1  0.74688199  -0.00340532  0.74894304  1
  V  V10  1  0.25195372  0.12863928  0.87286154  1
  V  V11  1  0.25461847  0.25648619  0.01526119  1
  V  V12  1  0.00571573  0.62826096  0.62304574  1
  V  V13  1  0.12311094  0.49906431  0.62609778  1
  V  V14  1  0.60501702  0.73553434  0.89781066  1
  V  V15  1  -0.00060994  0.87120025  0.37087040  1
  V  V16  1  0.37832514  0.49718677  0.87994275  1
  V  V17  1  0.00389136  -0.00018593  -0.00478726  1
  V  V18  1  0.24173846  0.75042492  0.50056321  1
  V  V19  1  0.37590244  0.87974865  0.50100778  1
  V  V20  1  0.00082475  0.76197040  0.75167451  1
  V  V21  1  0.12592489  -0.00347054  0.12145140  1
  V  V22  1  0.24733672  -0.00217596  0.24928334  1
  V  V23  1  0.37144646  0.12929247  0.24801627  1
  V  V24  1  0.86892697  0.49823524  0.87411332  1
  V  V25  1  0.50206879  -0.00419314  0.00664606  1
  V  V26  1  0.49863088  0.13229043  0.61963432  1
  V  V27  1  0.12642367  0.25330385  0.87989070  1
  V  V28  1  0.50342399  0.75021505  0.24743083  1
  V  V29  1  0.00561220  0.49961471  0.49827231  1
  V  V30  1  0.63423302  0.49948507  0.62955147  1
  V  V31  1  0.24582032  0.12248405  0.38503696  1
  V  V32  1  0.24343074  0.88098754  0.63731051  1
  V  V33  1  0.74942157  0.25135243  0.00384963  1
  V  V34  1  0.62512838  0.11935897  0.00670981  1
  V  V35  1  0.49811004  0.25053203  0.25168606  1
  V  V36  1  0.00266434  0.62819135  0.13146915  1
  V  V37  1  0.74576852  0.00543035  0.24788209  1
  V  V38  1  0.86976016  0.74899516  0.61991769  1
  V  V39  1  0.61543740  -0.00140879  0.62087014  1
  V  V40  1  0.63500891  0.63273291  0.50276028  1
  V  V41  1  0.62865657  0.11948155  0.49356007  1
  V  V42  1  0.62350586  0.87112285  0.75137453  1
  V  V43  1  0.01254658  0.00219426  0.50095531  1
  V  V44  1  0.74539858  0.62347055  0.87368368  1
  V  V45  1  0.74103024  0.87878127  0.12182647  1
  V  V46  1  0.38104590  0.62366775  0.24573466  1
  V  V47  1  0.74612780  0.87017048  0.61529258  1
  V  V48  1  0.46184406  0.56242999  0.56161126  1
  V  V49  1  0.50304305  0.37774981  0.87520195  1
  V  V50  1  0.49577673  0.12749609  0.12500414  1
  V  V51  1  0.11825952  0.24185990  0.37554930  1
  V  V52  1  0.88178121  0.87611843  -0.00295496  1
  V  V53  1  0.25244849  0.61955416  0.37719709  1
  V  V54  1  0.87384846  0.12724707  0.25416167  1
  V  V55  1  0.25063781  0.74477310  -0.00204371  1
  V  V56  1  0.37988732  0.37711763  0.01695223  1
  V  V57  1  0.75005199  0.37643265  0.64279510  1
  V  V58  1  0.87041150  0.00160428  0.37757308  1
  V  V59  1  0.87307743  0.50143578  0.37514356  1
  V  V60  1  0.11977773  0.74055930  0.37485688  1
  V  V61  1  0.37549592  0.74786736  0.62159730  1
  V  V62  1  0.37669673  0.13533886  0.74661229  1
  V  V63  1  0.38021085  0.61859836  0.74792752  1
  V  V64  1  0.50180153  0.74660869  0.74041742  1
  V  V65  1  0.12181438  0.75522859  0.87028485  1
  V  V66  1  0.62445173  0.87566949  0.25141740  1
  V  V67  1  -0.00049865  0.50054622  0.00002133  1
  V  V68  1  0.74951742  0.50492037  0.25180193  1
  V  V69  1  0.37925407  0.00028193  0.37642049  1
  V  V70  1  -0.00097227  0.25023192  0.75090618  1
  V  V71  1  0.87327843  0.12344840  0.74695551  1
  V  V72  1  0.63417617  0.24643429  0.37364952  1
  V  V73  1  0.50423793  0.87462230  0.37895615  1
  V  V74  1  0.74940144  0.64318757  0.37755592  1
  V  V75  1  0.86907772  0.37514687  0.49978187  1
  V  V76  1  0.62502752  0.25354957  0.87028456  1
  V  V77  1  0.49791663  0.87830213  0.87145355  1
  V  V78  1  0.00005600  0.12575274  0.12924324  1
  V  V79  1  0.87906470  0.75245083  0.13352065  1
  V  V80  1  0.74773827  0.12220362  0.87695224  1
  V  V81  1  0.12498255  0.37442399  0.74951041  1
  V  V82  1  0.87442601  0.24875240  0.62420546  1
  V  V83  1  0.37224456  0.00246693  0.86811466  1
  V  V84  1  0.87631034  0.25208803  0.12984417  1
  Zn  Zn85  1  0.00888394  0.12693989  0.61588304  1
  Zn  Zn86  1  0.50291448  0.25371449  0.74908469  1
  Zn  Zn87  1  0.38822952  0.36435690  0.51041375  1
  Zn  Zn88  1  0.74947356  0.38262941  0.12438566  1
  Zn  Zn89  1  0.87359666  0.37607370  0.00198064  1
  Zn  Zn90  1  0.38669665  0.49940276  0.38219861  1
  Zn  Zn91  1  -0.00267057  0.37615883  0.87727249  1
  Zn  Zn92  1  0.25573787  0.36798259  0.62868036  1
  Zn  Zn93  1  0.12866222  0.12606663  0.00310857  1
  Zn  Zn94  1  0.13638694  0.36753259  0.24466938  1
  Zn  Zn95  1  0.24795038  0.62164104  0.86974540  1
  Zn  Zn96  1  0.87824669  0.63039174  0.25474638  1
  Zn  Zn97  1  0.12551645  0.62063723  -0.00515076  1
  Zn  Zn98  1  0.37762389  0.74942733  0.12322743  1
  Zn  Zn99  1  0.13143198  0.48712441  0.12371854  1
  Zn  Zn100  1  0.25552943  0.48567377  0.23777648  1
  Zn  Zn101  1  0.87208605  0.87209575  0.49704284  1
  Zn  Zn102  1  0.25179923  0.49719312  0.75099217  1
  Zn  Zn103  1  0.24983168  0.86936885  0.12699580  1
  Zn  Zn104  1  0.75251351  0.24451536  0.49642178  1
  Zn  Zn105  1  0.50286103  0.38190574  0.38436864  1
  Zn  Zn106  1  0.12983790  -0.00410916  0.66502361  1
  Zn  Zn107  1  0.18422182  0.18771173  0.19376913  1
  Zn  Zn108  1  0.18385371  0.17986433  0.68954129  1
  Zn  Zn109  1  0.20670676  0.65467373  0.16985948  1
  Zn  Zn110  1  0.18847974  0.68806183  0.69004495  1
  Zn  Zn111  1  0.68628768  0.18653653  0.18642317  1
  Zn  Zn112  1  0.68797933  0.18648767  0.68324050  1
  Zn  Zn113  1  0.69005126  0.69285607  0.18992148  1
  Zn  Zn114  1  0.68609404  0.68434568  0.68950074  1
  Zn  Zn115  1  0.31553826  0.31697279  0.32395282  1
  Zn  Zn116  1  0.31276040  0.31464090  0.81573245  1
  Zn  Zn117  1  0.31096094  0.80851788  0.31239388  1
  Zn  Zn118  1  0.31413548  0.80748318  0.81303455  1
  Zn  Zn119  1  0.81101224  0.31540232  0.31024740  1
  Zn  Zn120  1  0.81229049  0.31017433  0.81712904  1
  Zn  Zn121  1  0.81190587  0.81861465  0.31006452  1
  Zn  Zn122  1  0.81133777  0.80885869  0.80957685  1
  Zn  Zn123  1  0.18723298  0.43062211  0.43441320  1
  Zn  Zn124  1  0.19131964  0.43665689  0.94086124  1
  Zn  Zn125  1  0.18956308  0.93120989  0.43495874  1
  Zn  Zn126  1  0.16563547  0.95623652  0.88067428  1
  Zn  Zn127  1  0.67736252  0.44371377  0.43886416  1
  Zn  Zn128  1  0.68647710  0.43909835  0.94156216  1
  Zn  Zn129  1  0.68697642  0.93955396  0.43579332  1
  Zn  Zn130  1  0.68568051  0.93132716  0.93762111  1
  Zn  Zn131  1  0.31130125  0.06322928  0.06033380  1
  Zn  Zn132  1  0.31123352  0.06163018  0.56493252  1
  Zn  Zn133  1  0.31863310  0.56165741  0.06192505  1
  Zn  Zn134  1  0.29510852  0.56442015  0.56343843  1
  Zn  Zn135  1  0.81329470  0.06102442  0.06523996  1
  Zn  Zn136  1  0.81010184  0.05840944  0.56181194  1
  Zn  Zn137  1  0.81131060  0.56571768  0.06300893  1
  Zn  Zn138  1  0.81197898  0.56112084  0.56169946  1
  Zn  Zn139  1  0.44401392  0.44456790  0.19522549  1
  Zn  Zn140  1  0.43773712  0.42689371  0.69070976  1
  Zn  Zn141  1  0.43651514  0.93853334  0.18653564  1
  Zn  Zn142  1  0.43411801  0.94029604  0.68553051  1
  Zn  Zn143  1  0.93818030  0.44050949  0.18646883  1
  Zn  Zn144  1  0.93747881  0.43729689  0.68911903  1
  Zn  Zn145  1  0.93742896  0.93803949  0.18727612  1
  Zn  Zn146  1  0.93524038  0.93725244  0.68273571  1
  Zn  Zn147  1  0.06127310  0.05836531  0.31137122  1
  Zn  Zn148  1  0.05904890  0.07009533  0.81140407  1
  Zn  Zn149  1  0.06680118  0.55671785  0.30708532  1
  Zn  Zn150  1  0.05919527  0.56665210  0.81251881  1
  Zn  Zn151  1  0.56239111  0.06014943  0.31242175  1
  Zn  Zn152  1  0.56030896  0.06444199  0.81308015  1
  Zn  Zn153  1  0.56608949  0.56527015  0.31826089  1
  Zn  Zn154  1  0.55967584  0.55836356  0.81096619  1
  Zn  Zn155  1  0.44105101  0.19035425  0.43819793  1
  Zn  Zn156  1  0.43648146  0.19231013  0.94041543  1
  Zn  Zn157  1  0.43681122  0.69476791  0.43099530  1
  Zn  Zn158  1  0.43542902  0.68841892  0.93220673  1
  Zn  Zn159  1  0.93643778  0.18482918  0.43762302  1
  Zn  Zn160  1  0.93661107  0.18461084  0.93900655  1
  Zn  Zn161  1  0.93876257  0.68592627  0.43973800  1
  Zn  Zn162  1  0.93885568  0.68477599  0.93696240  1
  Zn  Zn163  1  0.05907033  0.31304834  0.06347458  1
  Zn  Zn164  1  0.06310965  0.31008190  0.55812507  1
  Zn  Zn165  1  0.06533187  0.80931149  0.05686759  1
  Zn  Zn166  1  0.06193060  0.81789430  0.56115393  1
  Zn  Zn167  1  0.56170978  0.31324621  0.06492387  1
  Zn  Zn168  1  0.57155821  0.31130929  0.56407178  1
  Zn  Zn169  1  0.55721235  0.79699605  0.05628974  1
  Zn  Zn170  1  0.56151578  0.81211942  0.55867805  1
  O  O171  1  0.11604769  0.11832571  0.12545267  1
  O  O172  1  0.11637503  0.10657728  0.64313326  1
  O  O173  1  0.10603151  0.63296587  0.11746143  1
  O  O174  1  0.11569382  0.61604073  0.63193168  1
  O  O175  1  0.61666374  0.12531051  0.11334032  1
  O  O176  1  0.61911091  0.11552069  0.61964789  1
  O  O177  1  0.62635992  0.62182912  0.12809915  1
  O  O178  1  0.63388370  0.61526768  0.61483289  1
  O  O179  1  0.37962216  0.38097337  0.39180794  1
  O  O180  1  0.38247144  0.38102998  0.88283961  1
  O  O181  1  0.37843624  0.88117599  0.38118813  1
  O  O182  1  0.37809558  0.88385988  0.87830839  1
  O  O183  1  0.87958984  0.37946864  0.38212734  1
  O  O184  1  0.87512970  0.38485539  0.87732703  1
  O  O185  1  0.88266559  0.88193611  0.37466320  1
  O  O186  1  0.86849728  0.88224005  0.88301810  1
  O  O187  1  0.25733467  0.00381219  0.37052327  1
  O  O188  1  0.26293302  0.01536468  0.88769290  1
  O  O189  1  0.24932808  0.51554336  0.38641764  1
  O  O190  1  0.26372987  0.49944796  0.87269412  1
  O  O191  1  0.76269026  -0.00654433  0.36473661  1
  O  O192  1  0.75261158  0.00329320  0.86902200  1
  O  O193  1  0.75240363  0.50558118  0.36580999  1
  O  O194  1  0.75891859  0.50896834  0.88106702  1
  O  O195  1  0.23646532  0.53974603  0.13437184  1
  O  O196  1  0.23253082  0.49714795  0.62825390  1
  O  O197  1  0.24179464  0.99817841  0.12871027  1
  O  O198  1  0.25030600  0.98418913  0.62509352  1
  O  O199  1  0.74615554  0.50516205  0.13922489  1
  O  O200  1  0.74359137  0.49159456  0.62430323  1
  O  O201  1  0.75546249  0.98995599  0.13451029  1
  O  O202  1  0.73981747  0.99056588  0.63142626  1
  O  O203  1  -0.00550190  0.37760155  0.26547674  1
  O  O204  1  0.00848916  0.36839511  0.75366267  1
  O  O205  1  0.00785363  0.88155999  0.26182168  1
  O  O206  1  -0.00787875  0.86101799  0.74672438  1
  O  O207  1  0.50658302  0.36457429  0.25227671  1
  O  O208  1  0.50077889  0.37045650  0.76907023  1
  O  O209  1  0.50734539  0.87513687  0.25560222  1
  O  O210  1  0.50517414  0.87135680  0.75032408  1
  O  O211  1  0.49338183  0.12632605  0.24259503  1
  O  O212  1  0.49338893  0.12744957  0.74337566  1
  O  O213  1  0.49009313  0.63750129  0.26276856  1
  O  O214  1  0.48980214  0.63315795  0.75163924  1
  O  O215  1  0.99010918  0.11638451  0.23731294  1
  O  O216  1  0.98338055  0.13216185  0.75287186  1
  O  O217  1  0.99679958  0.62187526  0.23559618  1
  O  O218  1  0.98981953  0.63124251  0.73875242  1
  O  O219  1  0.36362442  0.26144957  0.00088861  1
  O  O220  1  0.35432252  0.24233762  0.49451314  1
  O  O221  1  0.36914638  0.75809860  -0.00194670  1
  O  O222  1  0.36823027  0.76055660  0.50382917  1
  O  O223  1  0.86306770  0.24713674  0.00640373  1
  O  O224  1  0.87262626  0.25610863  0.50537108  1
  O  O225  1  0.87119857  0.75884979  0.00248920  1
  O  O226  1  0.88047451  0.75173884  0.51604758  1
  O  O227  1  0.13365052  0.24822717  0.48809252  1
  O  O228  1  0.13526145  0.25076176  0.99454762  1
  O  O229  1  0.13128536  0.75679571  0.48952460  1
  O  O230  1  0.13342334  0.74343318  0.99003893  1
  O  O231  1  0.63162370  0.23975661  0.48971687  1
  O  O232  1  0.63413230  0.24161171  0.99714483  1
  O  O233  1  0.62654273  0.73268674  0.51030909  1
  O  O234  1  0.65320568  0.77900665  0.99400203  1
  O  O235  1  0.50458733  0.23687525  0.13696110  1
  O  O236  1  0.51429792  0.23519779  0.63275661  1
  O  O237  1  0.49639513  0.75835586  0.14279866  1
  O  O238  1  0.49236212  0.75607818  0.63337009  1
  O  O239  1  0.98449012  0.23912022  0.11731462  1
  O  O240  1  0.99248144  0.24760236  0.63051147  1
  O  O241  1  0.99068860  0.73880310  0.11521974  1
  O  O242  1  0.99676628  0.74429855  0.63006203  1
  O  O243  1  0.00954417  0.25554762  0.38351077  1
  O  O244  1  0.00771161  0.25053136  0.87238113  1
  O  O245  1  0.00695560  0.75733087  0.37911653  1
  O  O246  1  0.01017375  0.74150395  0.86536922  1
  O  O247  1  0.51237127  0.24451951  0.36130592  1
  O  O248  1  0.51038452  0.25549632  0.87724695  1
  O  O249  1  0.49708809  0.76738205  0.36425343  1
  O  O250  1  0.49472647  0.76148757  0.85404235  1
  O  O251  1  0.25021919  0.12660951  0.48976657  1
  O  O252  1  0.25346825  0.13911963  0.99110377  1
  O  O253  1  0.25099790  0.64207503  0.49353460  1
  O  O254  1  0.25584954  0.63647366  0.99216912  1
  O  O255  1  0.73467773  0.12486552  0.50620948  1
  O  O256  1  0.74212942  0.12745525  0.99870305  1
  O  O257  1  0.74365910  0.62431511  0.49288621  1
  O  O258  1  0.75647086  0.63785516  0.98887726  1
  O  O259  1  0.26267877  0.36483120  0.00170290  1
  O  O260  1  0.24778914  0.35826448  0.50304772  1
  O  O261  1  0.26231317  0.86479695  -0.00281470  1
  O  O262  1  0.25655261  0.86598799  0.50527507  1
  O  O263  1  0.75168263  0.36338477  0.00461012  1
  O  O264  1  0.76252593  0.37699747  0.50066912  1
  O  O265  1  0.76519574  0.87688188  0.00684820  1
  O  O266  1  0.74874800  0.87645923  0.51170361  1
  O  O267  1  0.13326923  0.49124676  0.24757854  1
  O  O268  1  0.12167557  0.49095094  0.74464383  1
  O  O269  1  0.13074406  0.99035404  0.24441168  1
  O  O270  1  0.12621442  0.98989594  0.77908073  1
  O  O271  1  0.63189496  0.49574110  0.24363703  1
  O  O272  1  0.62364621  0.51016385  0.72938957  1
  O  O273  1  0.63417333  0.99066181  0.25192167  1
  O  O274  1  0.62829943  0.99370117  0.74512263  1
  O  O275  1  0.36784136  0.00732145  0.25664241  1
  O  O276  1  0.38087755  0.00964042  0.76356504  1
  O  O277  1  0.37349147  0.51355101  0.25556378  1
  O  O278  1  0.37698845  0.50460123  0.75843685  1
  O  O279  1  0.86822076  0.00640705  0.25576829  1
  O  O280  1  0.86960820  0.00534055  0.75298098  1
  O  O281  1  0.86676238  0.50375948  0.25766942  1
  O  O282  1  0.88056621  0.50984452  0.75890265  1
  O  O283  1  0.11498399  0.36185149  0.37564671  1
  O  O284  1  0.12379629  0.36673821  0.87033575  1
  O  O285  1  0.11825524  0.86558313  0.36731665  1
  O  O286  1  0.12034787  0.85326740  0.88725910  1
  O  O287  1  0.62686472  0.36665713  0.36322976  1
  O  O288  1  0.61716218  0.36563083  0.88649496  1
  O  O289  1  0.61501453  0.88223857  0.36693482  1
  O  O290  1  0.61547849  0.86337735  0.87038615  1
  O  O291  1  0.38308011  0.11950828  0.13516862  1
  O  O292  1  0.38562139  0.11683200  0.63434941  1
  O  O293  1  0.37932047  0.62861437  0.14177579  1
  O  O294  1  0.38675029  0.62130847  0.62455607  1
  O  O295  1  0.88012378  0.12894211  0.13423960  1
  O  O296  1  0.87524424  0.12815148  0.63264385  1
  O  O297  1  0.88223337  0.63614291  0.12648503  1
  O  O298  1  0.87870237  0.62975119  0.63131894  1
  O  O299  1  0.24659928  0.24094087  0.11243689  1
  O  O300  1  0.23969726  0.24406035  0.61034839  1
  O  O301  1  0.25309725  0.74831396  0.11250245  1
  O  O302  1  0.25439088  0.75618953  0.61810862  1
  O  O303  1  0.75889884  0.24846100  0.11884626  1
  O  O304  1  0.75609989  0.25925605  0.62274488  1
  O  O305  1  0.76021986  0.75750697  0.11689532  1
  O  O306  1  0.75785756  0.75849552  0.63381838  1
  O  O307  1  0.23920786  0.23922728  0.38426443  1
  O  O308  1  0.24368574  0.24793397  0.88445315  1
  O  O309  1  0.24081816  0.74515938  0.38308928  1
  O  O310  1  0.24028918  0.74727144  0.87752163  1
  O  O311  1  0.73846911  0.24955122  0.37211774  1
  O  O312  1  0.74536562  0.24235289  0.88542944  1
  O  O313  1  0.75656772  0.74258305  0.37411335  1
  O  O314  1  0.74422640  0.74121027  0.88013618  1
  O  O315  1  -0.00040240  0.11732921  0.01207331  1
  O  O316  1  -0.00520866  0.10662387  0.49922001  1
  O  O317  1  -0.00289119  0.61413678  0.00740734  1
  O  O318  1  -0.00466629  0.61473335  0.51404548  1
  O  O319  1  0.50365799  0.11963236  0.00701223  1
  O  O320  1  0.51131250  0.12843050  0.50875108  1
  O  O321  1  0.53960450  0.69832591  -0.02365834  1
  O  O322  1  0.50961338  0.63070383  0.49874395  1
  O  O323  1  0.50097551  0.35819544  0.49577115  1
  O  O324  1  0.48564146  0.36469226  0.99367267  1
  O  O325  1  0.49028932  0.87236438  0.49146218  1
  O  O326  1  0.49072890  0.88029899  0.99471019  1
  O  O327  1  0.98828365  0.38131561  0.49519736  1
  O  O328  1  0.99413846  0.38793775  0.99797855  1
  O  O329  1  0.99695299  0.88361080  0.48774356  1
  O  O330  1  0.98933361  0.88325423  1.00484534  1
  O  O331  1  0.50179242  0.49614957  0.37405467  1
  O  O332  1  0.49088768  0.49311692  0.87732319  1
  O  O333  1  0.48586484  0.99155267  0.36936570  1
  O  O334  1  0.49274951  0.99729444  0.88500302  1
  O  O335  1  0.99619410  0.49459592  0.38287821  1
  O  O336  1  0.98770138  0.50272913  0.88230606  1
  O  O337  1  0.99070285  0.99343749  0.38149462  1
  O  O338  1  0.98878873  1.00967490  0.88895241  1
  O  O339  1  0.00453152  0.00484735  0.11525702  1
  O  O340  1  0.00141364  -0.00724793  0.60810698  1
  O  O341  1  -0.00363331  0.51344994  0.11744328  1
  O  O342  1  0.00636413  0.50528765  0.62033320  1
  O  O343  1  0.49697256  0.00779909  0.11307752  1
  O  O344  1  0.51125322  0.00730766  0.62949050  1
  O  O345  1  0.51618404  0.50484563  0.13005823  1
  O  O346  1  0.51097264  0.49637718  0.62502823  1
  O  O347  1  0.25198350  0.37415190  0.25501679  1
  O  O348  1  0.23638379  0.37387397  0.74973611  1
  O  O349  1  0.24160580  0.87933179  0.24946963  1
  O  O350  1  0.25723132  0.86968071  0.73535102  1
  O  O351  1  0.74242920  0.38660962  0.24826663  1
  O  O352  1  0.75400768  0.37322490  0.74203124  1
  O  O353  1  0.74343089  0.88307289  0.24245391  1
  O  O354  1  0.74120741  0.87773512  0.74321399  1
  O  O355  1  0.25641226  0.11998490  0.26005650  1
  O  O356  1  0.26019913  0.13201447  0.76489750  1
  O  O357  1  0.26840597  0.63403007  0.26460557  1
  O  O358  1  0.26706685  0.62221455  0.74663940  1
  O  O359  1  0.75672818  0.11291173  0.24297577  1
  O  O360  1  0.75771726  0.11879584  0.75339428  1
  O  O361  1  0.75193162  0.62268481  0.26067859  1
  O  O362  1  0.76331899  0.63077622  0.75901068  1
  O  O363  1  0.36915503  0.11593967  0.37068745  1
  O  O364  1  0.37172320  0.12142943  0.87088726  1
  O  O365  1  0.36753928  0.62461052  0.37135210  1
  O  O366  1  0.37654266  0.61598600  0.86676642  1
  O  O367  1  0.87867944  0.11791013  0.36242955  1
  O  O368  1  0.86548179  0.11765688  0.86898820  1
  O  O369  1  0.86769356  0.61942933  0.37648250  1
  O  O370  1  0.86738362  0.62008130  0.86732235  1
  O  O371  1  0.11763376  0.37464799  0.13170276  1
  O  O372  1  0.12302563  0.38051585  0.63392046  1
  O  O373  1  0.12482198  0.87802802  0.13091770  1
  O  O374  1  0.13907151  0.87765785  0.62517098  1
  O  O375  1  0.62709016  0.37563173  0.13823620  1
  O  O376  1  0.63930787  0.38680930  0.62122377  1
  O  O377  1  0.63728619  0.87085976  0.12857387  1
  O  O378  1  0.62780435  0.88013721  0.62915851  1
  O  O379  1  0.12493918  0.24854527  0.26983318  1
  O  O380  1  0.11962274  0.25586046  0.75891503  1
  O  O381  1  0.12891365  0.75984340  0.25624858  1
  O  O382  1  0.11749012  0.74715077  0.76083356  1
  O  O383  1  0.62050656  0.25556406  0.25388326  1
  O  O384  1  0.62916591  0.24164700  0.76768496  1
  O  O385  1  0.62044758  0.76586666  0.24913868  1
  O  O386  1  0.61548454  0.75131112  0.75638348  1
  O  O387  1  0.38323782  0.23563562  0.26075739  1
  O  O388  1  0.37904426  0.23866286  0.75667614  1
  O  O389  1  0.38381929  0.74311995  0.25069627  1
  O  O390  1  0.38049789  0.74072408  0.74047914  1
  O  O391  1  0.86830801  0.23965153  0.24277204  1
  O  O392  1  0.87709902  0.24202709  0.74617658  1
  O  O393  1  0.87386614  0.75305495  0.23686880  1
  O  O394  1  0.88236209  0.74252522  0.74162996  1
  O  O395  1  0.38499971  0.51363176  0.50877923  1
  O  O396  1  0.37283337  0.48639818  0.99553777  1
  O  O397  1  0.36843521  0.98794565  0.49175919  1
  O  O398  1  0.38190578  0.99383233  0.99259480  1
  O  O399  1  0.88400543  0.49370271  0.49593476  1
  O  O400  1  0.87903325  0.50002580  0.99260574  1
  O  O401  1  0.87763957  0.99576723  0.49049836  1
  O  O402  1  0.88084535  0.99418633  0.99574247  1
  O  O403  1  0.11653770  0.00281675  -0.00310353  1
  O  O404  1  0.11146519  -0.00408659  0.49024511  1
  O  O405  1  0.11577618  0.50152599  0.00046884  1
  O  O406  1  0.11215997  0.49072124  0.50764902  1
  O  O407  1  0.61445855  0.00606263  -0.00662406  1
  O  O408  1  0.62631470  0.00538922  0.50901846  1
  O  O409  1  0.63345617  0.50090792  0.02095134  1
  O  O410  1  0.62479263  0.51366785  0.51383036  1
  O  O411  1  0.38410555  0.38175611  0.11541016  1
  O  O412  1  0.36805821  0.37644434  0.62228560  1
  O  O413  1  0.37140295  0.87491325  0.11472937  1
  O  O414  1  0.36760571  0.87146635  0.61700325  1
  O  O415  1  0.87215087  0.36537827  0.12549081  1
  O  O416  1  0.86915046  0.37082416  0.61940055  1
  O  O417  1  0.87011310  0.86925853  0.11849012  1
  O  O418  1  0.86279394  0.86719550  0.62415492  1
  O  O419  1  0.13058341  0.13106455  0.37130685  1
  O  O420  1  0.13348812  0.13950479  0.87846264  1
  O  O421  1  0.13055898  0.63620466  0.36797339  1
  O  O422  1  0.12887321  0.63289510  0.87511842  1
  O  O423  1  0.62146938  0.12934839  0.38261102  1
  O  O424  1  0.62848294  0.12998007  0.88718796  1
  O  O425  1  0.63797664  0.62422770  0.38987987  1
  O  O426  1  0.63490523  0.62979288  0.86662193  1
