# generated using pymatgen
data_V85Zn86O256
_symmetry_space_group_name_H-M   'P 1'
_cell_length_a   16.93640261
_cell_length_b   16.93424610
_cell_length_c   16.93834687
_cell_angle_alpha   90.01355881
_cell_angle_beta   89.99402129
_cell_angle_gamma   90.00123560
_symmetry_Int_Tables_number   1
_chemical_formula_structural   V85Zn86O256
_chemical_formula_sum   'V85 Zn86 O256'
_cell_volume   4858.00596710
_cell_formula_units_Z   1
loop_
 _symmetry_equiv_pos_site_id
 _symmetry_equiv_pos_as_xyz
  1  'x, y, z'
loop_
 _atom_site_type_symbol
 _atom_site_label
 _atom_site_symmetry_multiplicity
 _atom_site_fract_x
 _atom_site_fract_y
 _atom_site_fract_z
 _atom_site_occupancy
  V  V0  1  0.48752250  0.11729392  0.62892898  1
  V  V1  1  0.12330018  -0.00195547  0.12245765  1
  V  V2  1  0.25203875  0.88032128  0.13098664  1
  V  V3  1  0.00050170  0.38591994  0.38169716  1
  V  V4  1  0.50113927  -0.00172569  -0.00297685  1
  V  V5  1  0.50490179  0.25761247  0.25102932  1
  V  V6  1  0.50545734  0.61456955  0.61423406  1
  V  V7  1  0.74640591  0.12667589  0.37878642  1
  V  V8  1  0.00171895  0.25145262  0.25378568  1
  V  V9  1  0.26722829  0.62367073  0.37389007  1
  V  V10  1  0.74940536  -0.00037564  0.25047558  1
  V  V11  1  0.87599703  0.25133622  0.12548999  1
  V  V12  1  0.13041995  0.87862471  0.25567330  1
  V  V13  1  0.00274309  0.37705672  0.87674248  1
  V  V14  1  0.87547081  0.00000809  0.37781185  1
  V  V15  1  0.24764489  0.24724304  0.00352790  1
  V  V16  1  0.26220931  0.50362486  0.25463877  1
  V  V17  1  0.12582800  0.00585250  0.62131185  1
  V  V18  1  0.12686013  0.87158068  0.75310138  1
  V  V19  1  0.25346436  0.62685274  0.87203752  1
  V  V20  1  0.86810587  0.50395674  0.37926053  1
  V  V21  1  0.24520582  0.12092137  0.37997923  1
  V  V22  1  0.62602739  -0.00085361  0.12292402  1
  V  V23  1  0.87745197  0.00222335  0.87404173  1
  V  V24  1  0.61319211  0.25928023  0.87071255  1
  V  V25  1  0.75117109  0.87461162  0.12268255  1
  V  V26  1  0.87283557  0.38130350  0.51032590  1
  V  V27  1  0.37884385  0.74863672  0.61644783  1
  V  V28  1  0.12304427  0.24595535  0.38282679  1
  V  V29  1  0.25504855  0.12336429  0.87277322  1
  V  V30  1  0.62377085  0.00084400  0.61337842  1
  V  V31  1  0.63114094  0.87423485  0.74165381  1
  V  V32  1  0.37688189  0.00460308  0.38349434  1
  V  V33  1  0.12366310  0.24857544  0.87610630  1
  V  V34  1  0.00452182  0.50085469  0.00215664  1
  V  V35  1  0.86453794  0.62460707  0.25205593  1
  V  V36  1  0.49800886  0.62482959  0.12575293  1
  V  V37  1  0.12312194  0.73983528  0.37910845  1
  V  V38  1  0.00301290  0.62581018  0.12812035  1
  V  V39  1  0.00192074  0.62494231  0.61354732  1
  V  V40  1  0.12547201  0.62534951  -0.00687526  1
  V  V41  1  0.37773559  0.61787283  0.75135971  1
  V  V42  1  0.12833460  0.38072455  0.74622515  1
  V  V43  1  0.50106754  0.74889520  0.74775006  1
  V  V44  1  0.87516407  0.12439398  0.25042388  1
  V  V45  1  0.86923876  0.62448300  0.75464850  1
  V  V46  1  0.62605384  0.49171934  0.12542669  1
  V  V47  1  0.62791198  0.62244069  -0.00668661  1
  V  V48  1  0.62488874  0.86993193  0.25218614  1
  V  V49  1  0.12414083  0.50200993  0.61319191  1
  V  V50  1  0.25090041  0.87441651  0.62354722  1
  V  V51  1  0.62749704  0.12626124  -0.00485795  1
  V  V52  1  0.50210605  0.87896520  0.38142866  1
  V  V53  1  0.37431979  0.24841305  0.12606316  1
  V  V54  1  0.75108324  0.74703887  -0.00498577  1
  V  V55  1  0.24537418  0.74640428  0.50144869  1
  V  V56  1  0.63090162  0.74790192  0.87130175  1
  V  V57  1  0.75144936  -0.00039025  0.74052493  1
  V  V58  1  0.25805908  0.00096079  0.74856595  1
  V  V59  1  0.24502092  0.75152210  -0.00338729  1
  V  V60  1  0.00348438  0.00978673  0.49910137  1
  V  V61  1  0.86445683  0.75384354  0.62633979  1
  V  V62  1  -0.00014140  0.11927549  0.11864606  1
  V  V63  1  0.49965845  0.12478994  0.12665029  1
  V  V64  1  0.00287044  0.74841138  0.75280386  1
  V  V65  1  0.87478990  0.37506368  0.00129069  1
  V  V66  1  0.62857580  0.26511796  0.36944727  1
  V  V67  1  0.87620245  0.75019289  0.12375408  1
  V  V68  1  0.49030364  0.49662629  -0.01211313  1
  V  V69  1  0.87821216  0.87883987  -0.00113819  1
  V  V70  1  -0.00294667  0.24845035  0.74883988  1
  V  V71  1  0.74524585  0.75225128  0.48157477  1
  V  V72  1  0.50003294  0.75056046  0.25742380  1
  V  V73  1  0.00423782  0.87635361  0.87915729  1
  V  V74  1  0.37008436  0.11867902  0.25344044  1
  V  V75  1  0.63087345  0.62161549  0.48107973  1
  V  V76  1  0.74814756  0.25374308  0.51167008  1
  V  V77  1  0.38550533  0.26052979  0.63748465  1
  V  V78  1  0.37558883  0.87445542  -0.00310137  1
  V  V79  1  0.24946301  0.37518740  0.12988618  1
  V  V80  1  0.24486352  0.25574102  0.51263391  1
  V  V81  1  0.86667309  0.50447251  0.87852820  1
  V  V82  1  0.62009366  0.37708203  0.74085763  1
  V  V83  1  0.00108438  0.87508361  0.37960716  1
  V  V84  1  0.37486629  0.74696227  0.12942232  1
  Zn  Zn85  1  0.74507937  0.49388807  0.25398372  1
  Zn  Zn86  1  0.37983482  0.37045680  -0.01769832  1
  Zn  Zn87  1  0.12860668  0.50148813  0.12831698  1
  Zn  Zn88  1  0.25340298  0.49572544  0.74908957  1
  Zn  Zn89  1  0.86801450  0.87872556  0.50702045  1
  Zn  Zn90  1  0.37761195  0.38883628  0.50188711  1
  Zn  Zn91  1  0.75217398  0.49236785  0.74576646  1
  Zn  Zn92  1  0.87269048  0.12745645  0.74742416  1
  Zn  Zn93  1  0.12657556  0.37914098  0.25522426  1
  Zn  Zn94  1  0.63550503  0.49472959  0.61583510  1
  Zn  Zn95  1  0.12120285  0.11775893  -0.00237474  1
  Zn  Zn96  1  0.49264126  0.39106542  0.38145064  1
  Zn  Zn97  1  0.74628472  0.37030026  0.13146859  1
  Zn  Zn98  1  0.38011037  0.87919330  0.50144355  1
  Zn  Zn99  1  0.61081192  0.12694279  0.49671753  1
  Zn  Zn100  1  -0.00055995  0.13004812  0.62038992  1
  Zn  Zn101  1  0.00033718  0.75004958  0.25223229  1
  Zn  Zn102  1  0.37894622  0.00283840  0.86960843  1
  Zn  Zn103  1  0.74906568  0.12752708  0.87072424  1
  Zn  Zn104  1  0.74877977  0.25070543  -0.00180014  1
  Zn  Zn105  1  0.87109229  0.25282613  0.62972754  1
  Zn  Zn106  1  0.50133212  0.87481945  0.87216258  1
  Zn  Zn107  1  0.18579932  0.18536102  0.19405763  1
  Zn  Zn108  1  0.18335366  0.18471741  0.69379725  1
  Zn  Zn109  1  0.18820476  0.68964574  0.19156217  1
  Zn  Zn110  1  0.18554546  0.68560496  0.68657442  1
  Zn  Zn111  1  0.68850433  0.18790444  0.18644453  1
  Zn  Zn112  1  0.67846102  0.18411384  0.69103440  1
  Zn  Zn113  1  0.68455219  0.68602152  0.18265773  1
  Zn  Zn114  1  0.69016539  0.67782319  0.68615247  1
  Zn  Zn115  1  0.31252182  0.30862729  0.31464091  1
  Zn  Zn116  1  0.31211028  0.31247329  0.80976265  1
  Zn  Zn117  1  0.31586706  0.81222824  0.31550370  1
  Zn  Zn118  1  0.31433595  0.80796063  0.81183109  1
  Zn  Zn119  1  0.81300353  0.31738311  0.31404221  1
  Zn  Zn120  1  0.80519763  0.31210373  0.81538165  1
  Zn  Zn121  1  0.81682876  0.81414472  0.31016789  1
  Zn  Zn122  1  0.81283163  0.81501513  0.80976402  1
  Zn  Zn123  1  0.19217640  0.43752225  0.43727760  1
  Zn  Zn124  1  0.22029409  0.42306172  0.91873636  1
  Zn  Zn125  1  0.19081569  0.93772923  0.43926119  1
  Zn  Zn126  1  0.18771566  0.93777956  0.93779431  1
  Zn  Zn127  1  0.68986777  0.43840585  0.43775875  1
  Zn  Zn128  1  0.68822035  0.43526010  0.94051463  1
  Zn  Zn129  1  0.68863343  0.93330545  0.43645518  1
  Zn  Zn130  1  0.69039442  0.93569812  0.93005901  1
  Zn  Zn131  1  0.31181869  0.06085949  0.06213865  1
  Zn  Zn132  1  0.31269924  0.06968912  0.55860995  1
  Zn  Zn133  1  0.31178032  0.56293593  0.06512545  1
  Zn  Zn134  1  0.30474434  0.56459684  0.56561018  1
  Zn  Zn135  1  0.81401317  0.06129346  0.05984030  1
  Zn  Zn136  1  0.81444342  0.06744774  0.56456890  1
  Zn  Zn137  1  0.81173001  0.56399097  0.06212225  1
  Zn  Zn138  1  0.81160616  0.56557524  0.56142104  1
  Zn  Zn139  1  0.43697410  0.43704423  0.18452395  1
  Zn  Zn140  1  0.44466306  0.43508958  0.69216286  1
  Zn  Zn141  1  0.43680297  0.93891050  0.18900446  1
  Zn  Zn142  1  0.44186316  0.93631348  0.68323020  1
  Zn  Zn143  1  0.93681038  0.43864051  0.19186538  1
  Zn  Zn144  1  0.94238345  0.44109858  0.68917509  1
  Zn  Zn145  1  0.94042972  0.93633154  0.19096440  1
  Zn  Zn146  1  0.93958396  0.93750082  0.68740541  1
  Zn  Zn147  1  0.06499919  0.06188773  0.30886832  1
  Zn  Zn148  1  0.06538626  0.06048944  0.81100342  1
  Zn  Zn149  1  0.06480467  0.56010068  0.30869046  1
  Zn  Zn150  1  0.06086210  0.56405739  0.81414619  1
  Zn  Zn151  1  0.56064845  0.06364016  0.31275812  1
  Zn  Zn152  1  0.56291662  0.06396036  0.80870788  1
  Zn  Zn153  1  0.56217202  0.56354142  0.30519522  1
  Zn  Zn154  1  0.56445679  0.55966459  0.80965532  1
  Zn  Zn155  1  0.44500329  0.23639087  0.45218333  1
  Zn  Zn156  1  0.43656554  0.18577725  0.93750413  1
  Zn  Zn157  1  0.43883571  0.56170596  0.44005933  1
  Zn  Zn158  1  0.43928001  0.68642818  0.93696469  1
  Zn  Zn159  1  0.93248964  0.19197693  0.43986113  1
  Zn  Zn160  1  0.93713447  0.18675432  0.93632009  1
  Zn  Zn161  1  0.93219965  0.68944827  0.43745663  1
  Zn  Zn162  1  0.94048037  0.69003535  0.93628822  1
  Zn  Zn163  1  0.06509021  0.31194382  0.06489931  1
  Zn  Zn164  1  0.06121392  0.31630157  0.56224761  1
  Zn  Zn165  1  0.06369481  0.81259382  0.06313629  1
  Zn  Zn166  1  0.06107416  0.81458172  0.56407647  1
  Zn  Zn167  1  0.55751931  0.31271977  0.05607731  1
  Zn  Zn168  1  0.56278083  0.30590435  0.56628045  1
  Zn  Zn169  1  0.56302046  0.81092185  0.06218917  1
  Zn  Zn170  1  0.56760860  0.80765769  0.56028229  1
  O  O171  1  0.11768789  0.11498303  0.12906792  1
  O  O172  1  0.11950201  0.10911366  0.63156881  1
  O  O173  1  0.11805158  0.62889562  0.11793634  1
  O  O174  1  0.10942128  0.61942572  0.62980014  1
  O  O175  1  0.62038316  0.11812338  0.11689078  1
  O  O176  1  0.61784935  0.11467920  0.62068284  1
  O  O177  1  0.61773305  0.62044057  0.11033334  1
  O  O178  1  0.61160754  0.62813752  0.62091615  1
  O  O179  1  0.38694453  0.33772772  0.39042300  1
  O  O180  1  0.32902013  0.39041670  0.88412844  1
  O  O181  1  0.38340538  0.88561820  0.37416036  1
  O  O182  1  0.37739328  0.87390078  0.88721974  1
  O  O183  1  0.88266606  0.38485550  0.38341094  1
  O  O184  1  0.88160555  0.38145165  0.88489981  1
  O  O185  1  0.88487236  0.88198683  0.37633859  1
  O  O186  1  0.88311580  0.88041645  0.87866941  1
  O  O187  1  0.25761700  0.00987025  0.37861180  1
  O  O188  1  0.25078030  0.00513243  0.86734379  1
  O  O189  1  0.24720720  0.51624883  0.37159270  1
  O  O190  1  0.23611975  0.52426429  0.86609052  1
  O  O191  1  0.75557889  0.00588936  0.37062878  1
  O  O192  1  0.76176354  -0.00087239  0.86344438  1
  O  O193  1  0.76355539  0.50070424  0.37228794  1
  O  O194  1  0.76439288  0.49915413  0.87971263  1
  O  O195  1  0.24974425  0.49115641  0.13132883  1
  O  O196  1  0.22736752  0.51616234  0.63447268  1
  O  O197  1  0.24526827  0.98651812  0.12371581  1
  O  O198  1  0.24490523  0.99645322  0.62950402  1
  O  O199  1  0.73373251  0.50075982  0.11798309  1
  O  O200  1  0.74595007  0.51656785  0.63471570  1
  O  O201  1  0.74688917  0.99351431  0.13025753  1
  O  O202  1  0.74286722  1.00242932  0.63295524  1
  O  O203  1  -0.00039602  0.36661408  0.26067712  1
  O  O204  1  0.00564198  0.36720395  0.75799231  1
  O  O205  1  0.00765013  0.87396780  0.26385779  1
  O  O206  1  0.00799305  0.86963937  0.75659871  1
  O  O207  1  0.49371178  0.35955371  0.25006793  1
  O  O208  1  0.51921486  0.38096001  0.75959056  1
  O  O209  1  0.50845466  0.87116826  0.25114115  1
  O  O210  1  0.50603296  0.86215799  0.74998348  1
  O  O211  1  0.49421138  0.12854508  0.24093651  1
  O  O212  1  0.50574671  0.12117951  0.73008263  1
  O  O213  1  0.50811002  0.63715730  0.23291723  1
  O  O214  1  0.49705818  0.63306308  0.74224768  1
  O  O215  1  0.99390146  0.13089865  0.24261648  1
  O  O216  1  1.00109224  0.13998422  0.75432758  1
  O  O217  1  0.99587638  0.62651067  0.23759128  1
  O  O218  1  0.99299081  0.63482870  0.74682433  1
  O  O219  1  0.36681658  0.25024452  0.00714289  1
  O  O220  1  0.35504498  0.24182287  0.52872328  1
  O  O221  1  0.36860503  0.75695447  0.00820975  1
  O  O222  1  0.36686673  0.75278539  0.51297337  1
  O  O223  1  0.87685458  0.25772863  0.00791780  1
  O  O224  1  0.86493882  0.26067023  0.50240984  1
  O  O225  1  0.87035126  0.75705327  0.00293559  1
  O  O226  1  0.86147719  0.74902181  0.50903225  1
  O  O227  1  0.12976300  0.25196101  0.49138873  1
  O  O228  1  0.13032012  0.24477688  0.99478235  1
  O  O229  1  0.13324496  0.75846351  0.49151425  1
  O  O230  1  0.13920075  0.74523210  1.00730262  1
  O  O231  1  0.63595310  0.24820574  0.48847687  1
  O  O232  1  0.62525430  0.24103746  0.99514988  1
  O  O233  1  0.63883421  0.74108528  0.50027213  1
  O  O234  1  0.62898918  0.74451801  0.99070827  1
  O  O235  1  0.49575191  0.24388697  0.12958868  1
  O  O236  1  0.48769469  0.24384175  0.63766376  1
  O  O237  1  0.49244756  0.74473584  0.12675632  1
  O  O238  1  0.49504228  0.74323341  0.62936264  1
  O  O239  1  0.99262969  0.24335961  0.13220769  1
  O  O240  1  1.00090305  0.25019134  0.63596721  1
  O  O241  1  0.99375073  0.74392132  0.12623711  1
  O  O242  1  0.99528159  0.74301410  0.63369687  1
  O  O243  1  0.00475573  0.25443915  0.37163778  1
  O  O244  1  0.00590362  0.25701422  0.87210629  1
  O  O245  1  0.00609561  0.75859325  0.37718359  1
  O  O246  1  -0.00445937  0.76020101  0.86071080  1
  O  O247  1  0.51972115  0.23382548  0.36161135  1
  O  O248  1  0.51375530  0.24582864  0.88046456  1
  O  O249  1  0.49462018  0.76205102  0.35710393  1
  O  O250  1  0.51139216  0.74958972  0.86588467  1
  O  O251  1  0.24843874  0.13584463  0.48773242  1
  O  O252  1  0.24600294  0.13304950  0.99748359  1
  O  O253  1  0.24974783  0.63829426  0.48804183  1
  O  O254  1  0.24474456  0.63212074  0.99520149  1
  O  O255  1  0.75163977  0.13498904  0.49069781  1
  O  O256  1  0.73581350  0.12159779  0.99964773  1
  O  O257  1  0.73857683  0.63777503  0.50007693  1
  O  O258  1  0.74100532  0.63533577  1.00279493  1
  O  O259  1  0.24317305  0.35784505  0.01364142  1
  O  O260  1  0.25234433  0.35815040  0.49618625  1
  O  O261  1  0.25648709  0.86887117  0.00602235  1
  O  O262  1  0.25431480  0.86444134  0.50574042  1
  O  O263  1  0.76504164  0.37448556  0.00717255  1
  O  O264  1  0.75982868  0.36550947  0.49470665  1
  O  O265  1  0.75590517  0.86823585  0.00305338  1
  O  O266  1  0.75041820  0.85840659  0.49788629  1
  O  O267  1  0.13845585  0.49808080  0.24693407  1
  O  O268  1  0.11925232  0.49312237  0.74494032  1
  O  O269  1  0.12323754  0.98599548  0.24125084  1
  O  O270  1  0.13293417  0.98823406  0.74350763  1
  O  O271  1  0.62802764  0.50865796  0.22849337  1
  O  O272  1  0.62932777  0.48939324  0.75015207  1
  O  O273  1  0.63019550  0.99250389  0.24197998  1
  O  O274  1  0.63219148  0.99092825  0.74305687  1
  O  O275  1  0.37842233  0.01256695  0.25600752  1
  O  O276  1  0.36171977  -0.01129352  0.75120263  1
  O  O277  1  0.36223412  0.50024905  0.24389574  1
  O  O278  1  0.37303882  0.51434934  0.74199502  1
  O  O279  1  0.86965551  0.00443000  0.25672359  1
  O  O280  1  0.86761561  -0.00096261  0.75370646  1
  O  O281  1  0.87458852  0.51007117  0.25703101  1
  O  O282  1  0.87708993  0.50713652  0.76119548  1
  O  O283  1  0.11619054  0.36800435  0.37703694  1
  O  O284  1  0.12190849  0.36977590  0.86933893  1
  O  O285  1  0.12110143  0.87009618  0.37046562  1
  O  O286  1  0.11582967  0.88139555  0.86721986  1
  O  O287  1  0.62209526  0.36678875  0.37449586  1
  O  O288  1  0.62320917  0.36124632  0.88242557  1
  O  O289  1  0.61689538  0.88232659  0.36154749  1
  O  O290  1  0.62252177  0.86721576  0.86210118  1
  O  O291  1  0.37887860  0.12769347  0.13079461  1
  O  O292  1  0.38319739  0.12513016  0.62949995  1
  O  O293  1  0.38317591  0.63659010  0.11952971  1
  O  O294  1  0.38802980  0.63204985  0.62933265  1
  O  O295  1  0.88156901  0.12947646  0.12873469  1
  O  O296  1  0.88191948  0.13210574  0.62942214  1
  O  O297  1  0.88356423  0.63003113  0.12912500  1
  O  O298  1  0.88611238  0.63513541  0.63290127  1
  O  O299  1  0.25279570  0.25123945  0.12184565  1
  O  O300  1  0.23289175  0.24735093  0.61286930  1
  O  O301  1  0.25714171  0.75891752  0.12050540  1
  O  O302  1  0.25521969  0.75151265  0.61832639  1
  O  O303  1  0.76492038  0.24701689  0.12112868  1
  O  O304  1  0.74637384  0.24483307  0.61421179  1
  O  O305  1  0.75606189  0.75676260  0.11740287  1
  O  O306  1  0.76294360  0.74585549  0.62490521  1
  O  O307  1  0.23827512  0.24215068  0.38356880  1
  O  O308  1  0.24203595  0.24039449  0.88347543  1
  O  O309  1  0.24474697  0.74250634  0.38017910  1
  O  O310  1  0.25193597  0.74380912  0.88628864  1
  O  O311  1  0.74460126  0.24257717  0.37727744  1
  O  O312  1  0.73761284  0.24481451  0.88160386  1
  O  O313  1  0.75539453  0.74968873  0.38320149  1
  O  O314  1  0.73838555  0.75534822  0.87796853  1
  O  O315  1  0.00117683  0.12807556  0.01490816  1
  O  O316  1  -0.00270353  0.11333892  0.49671424  1
  O  O317  1  0.00695276  0.62466045  0.00916866  1
  O  O318  1  -0.00273149  0.63378809  0.51541210  1
  O  O319  1  0.50818678  0.11660161  0.00535728  1
  O  O320  1  0.49897889  0.14428032  0.52098556  1
  O  O321  1  0.50607097  0.61995930  0.00796650  1
  O  O322  1  0.51386242  0.62911548  0.50848661  1
  O  O323  1  0.49062797  0.34650121  0.49290987  1
  O  O324  1  0.49421863  0.39059298  1.00000239  1
  O  O325  1  0.50192389  0.86694613  0.48428585  1
  O  O326  1  0.49354198  0.88118061  0.99887913  1
  O  O327  1  0.98832713  0.36902819  0.48899586  1
  O  O328  1  0.99363351  0.37944823  0.99814343  1
  O  O329  1  0.99823267  0.88252202  0.48983376  1
  O  O330  1  0.99628959  0.86860232  0.98693292  1
  O  O331  1  0.49788834  0.50150964  0.36746120  1
  O  O332  1  0.49822577  0.51009988  0.89011362  1
  O  O333  1  0.49076467  0.99156362  0.36955802  1
  O  O334  1  0.49917733  0.99844100  0.88470544  1
  O  O335  1  0.99415046  0.48994699  0.36955506  1
  O  O336  1  0.99440188  0.49425110  0.88400531  1
  O  O337  1  0.99795871  0.99473867  0.38039733  1
  O  O338  1  0.98781601  0.99108362  0.86681308  1
  O  O339  1  0.00829839  0.00782214  0.13092717  1
  O  O340  1  0.00750741  -0.00119726  0.61558074  1
  O  O341  1  0.00172941  0.50882970  0.12014403  1
  O  O342  1  0.00605873  0.51768529  0.62806236  1
  O  O343  1  0.50479078  0.00299857  0.11395537  1
  O  O344  1  0.50638698  0.00793303  0.62121094  1
  O  O345  1  0.50852473  0.50719223  0.11908445  1
  O  O346  1  0.50602617  0.51346043  0.62696606  1
  O  O347  1  0.25092191  0.38102208  0.24734811  1
  O  O348  1  0.23147508  0.37689743  0.74648972  1
  O  O349  1  0.24346096  0.86930119  0.24261273  1
  O  O350  1  0.24372362  0.87676098  0.74525906  1
  O  O351  1  0.75726948  0.38064657  0.24277266  1
  O  O352  1  0.72959717  0.37753257  0.76168608  1
  O  O353  1  0.74372406  0.87884970  0.24474714  1
  O  O354  1  0.74123071  0.88284227  0.74971325  1
  O  O355  1  0.25923842  0.13115626  0.26422763  1
  O  O356  1  0.24239868  0.11186125  0.76029493  1
  O  O357  1  0.24825427  0.62199672  0.26502291  1
  O  O358  1  0.26145463  0.63495401  0.75684817  1
  O  O359  1  0.75620551  0.11900006  0.25573278  1
  O  O360  1  0.74955901  0.11367550  0.75181395  1
  O  O361  1  0.76212047  0.62306596  0.24128940  1
  O  O362  1  0.76696982  0.62876325  0.75607436  1
  O  O363  1  0.36742205  0.11886940  0.36875201  1
  O  O364  1  0.36016355  0.12154915  0.88069689  1
  O  O365  1  0.36462079  0.63261243  0.37561817  1
  O  O366  1  0.36741691  0.63346533  0.86411244  1
  O  O367  1  0.86537029  0.12100050  0.37035473  1
  O  O368  1  0.87312604  0.11537881  0.87300255  1
  O  O369  1  0.88444495  0.61700202  0.36338191  1
  O  O370  1  0.88496893  0.61583570  0.86847495  1
  O  O371  1  0.13744518  0.37304990  0.13179482  1
  O  O372  1  0.11113161  0.39413528  0.63202352  1
  O  O373  1  0.13141693  0.87827598  0.13346106  1
  O  O374  1  0.13101195  0.88269605  0.63251573  1
  O  O375  1  0.62433148  0.38869163  0.11572082  1
  O  O376  1  0.62204018  0.37520047  0.63595225  1
  O  O377  1  0.63096027  0.88097536  0.12886887  1
  O  O378  1  0.61682606  0.88252542  0.63453503  1
  O  O379  1  0.11622660  0.25235353  0.26187782  1
  O  O380  1  0.11707521  0.25803533  0.75750439  1
  O  O381  1  0.12258263  0.76161541  0.25893508  1
  O  O382  1  0.11777258  0.76274570  0.74432642  1
  O  O383  1  0.61832826  0.24552550  0.25545470  1
  O  O384  1  0.62598658  0.25995992  0.76281223  1
  O  O385  1  0.61758563  0.76258783  0.23928057  1
  O  O386  1  0.62202892  0.75273153  0.75295263  1
  O  O387  1  0.38285685  0.23631352  0.24313948  1
  O  O388  1  0.35215386  0.24422900  0.73123141  1
  O  O389  1  0.38334457  0.75901303  0.23576620  1
  O  O390  1  0.38477932  0.74486948  0.74000753  1
  O  O391  1  0.88233618  0.24416814  0.24425005  1
  O  O392  1  0.88254823  0.25306355  0.75157901  1
  O  O393  1  0.87868793  0.74303573  0.24296155  1
  O  O394  1  0.88141218  0.74625945  0.74238199  1
  O  O395  1  0.37010288  0.50160073  0.50451125  1
  O  O396  1  0.38849384  0.50215800  1.00538923  1
  O  O397  1  0.37298292  0.99875362  0.48794485  1
  O  O398  1  0.38319780  0.99146856  0.99888594  1
  O  O399  1  0.87279641  0.49514041  0.49230058  1
  O  O400  1  0.88291905  0.49496874  0.99756576  1
  O  O401  1  0.88203410  0.99725073  0.49509314  1
  O  O402  1  0.87074947  0.98997675  0.98899551  1
  O  O403  1  0.12811591  -0.00217075  0.01689263  1
  O  O404  1  0.11665216  -0.00672484  0.50927986  1
  O  O405  1  0.11945242  0.51185063  0.00545791  1
  O  O406  1  0.12727018  0.49767512  0.51405428  1
  O  O407  1  0.61904957  0.00286962  0.00080713  1
  O  O408  1  0.63121795  0.00066062  0.51069092  1
  O  O409  1  0.61637699  0.50675655  0.00393783  1
  O  O410  1  0.63141309  0.51654941  0.49828869  1
  O  O411  1  0.36234959  0.36615330  0.12334346  1
  O  O412  1  0.37923604  0.36427080  0.62808935  1
  O  O413  1  0.36929398  0.87191132  0.11597421  1
  O  O414  1  0.36952143  0.86689921  0.62372913  1
  O  O415  1  0.88111225  0.36558576  0.11819221  1
  O  O416  1  0.88164819  0.37702476  0.61377081  1
  O  O417  1  0.87273629  0.87132805  0.11908560  1
  O  O418  1  0.88431604  0.85746084  0.62367766  1
  O  O419  1  0.13200959  0.13280362  0.36923461  1
  O  O420  1  0.13319228  0.12793551  0.87843354  1
  O  O421  1  0.12377542  0.63841976  0.37175173  1
  O  O422  1  0.12472600  0.63149951  0.88861672  1
  O  O423  1  0.63809266  0.12292655  0.37661852  1
  O  O424  1  0.62487309  0.13082163  0.88171665  1
  O  O425  1  0.62408253  0.62771340  0.38299093  1
  O  O426  1  0.62158037  0.63207883  0.88492402  1
