# generated using pymatgen
data_V85Zn86O256
_symmetry_space_group_name_H-M   'P 1'
_cell_length_a   16.97704945
_cell_length_b   16.98623436
_cell_length_c   16.98420196
_cell_angle_alpha   89.96031063
_cell_angle_beta   89.90624700
_cell_angle_gamma   90.04308401
_symmetry_Int_Tables_number   1
_chemical_formula_structural   V85Zn86O256
_chemical_formula_sum   'V85 Zn86 O256'
_cell_volume   4897.82949405
_cell_formula_units_Z   1
loop_
 _symmetry_equiv_pos_site_id
 _symmetry_equiv_pos_as_xyz
  1  'x, y, z'
loop_
 _atom_site_type_symbol
 _atom_site_label
 _atom_site_symmetry_multiplicity
 _atom_site_fract_x
 _atom_site_fract_y
 _atom_site_fract_z
 _atom_site_occupancy
  V  V0  1  0.62058519  0.12471291  0.00932610  1
  V  V1  1  0.12112407  0.38107609  0.74516839  1
  V  V2  1  -0.00743843  0.75037248  0.24697347  1
  V  V3  1  0.25064238  0.12390152  0.87357496  1
  V  V4  1  0.75185011  -0.00158313  0.75066558  1
  V  V5  1  0.61688151  0.75782827  0.87774067  1
  V  V6  1  0.12706757  0.87587280  0.25633088  1
  V  V7  1  0.50425631  0.24743472  0.24597689  1
  V  V8  1  0.62942745  0.49644164  0.12077740  1
  V  V9  1  0.00143000  0.25377676  0.74932601  1
  V  V10  1  0.00187669  0.12762024  0.62395044  1
  V  V11  1  0.12433688  0.13174971  0.49192968  1
  V  V12  1  0.37557171  0.37310480  0.00044831  1
  V  V13  1  0.12411167  0.00122775  0.62352377  1
  V  V14  1  0.16750420  0.41868060  0.29719700  1
  V  V15  1  0.87607613  0.13224244  0.25441468  1
  V  V16  1  0.87969938  0.51498820  0.88313405  1
  V  V17  1  0.75517219  0.25874124  -0.00280247  1
  V  V18  1  0.37433506  0.74425415  0.12911817  1
  V  V19  1  0.02140629  0.50507815  0.49956821  1
  V  V20  1  0.38073233  0.11672870  0.25141820  1
  V  V21  1  0.87251601  0.61931789  0.24228072  1
  V  V22  1  0.62593736  0.24920434  0.37389306  1
  V  V23  1  0.01468022  0.25332582  0.25610755  1
  V  V24  1  0.87375235  0.72851169  0.63442602  1
  V  V25  1  0.75414321  0.61580876  0.37374000  1
  V  V26  1  0.87256586  -0.00203496  0.38048950  1
  V  V27  1  0.24413177  0.74962662  -0.00309687  1
  V  V28  1  -0.00664913  0.38009098  0.88891116  1
  V  V29  1  0.74979763  0.12333546  0.87658339  1
  V  V30  1  0.37620151  0.25483431  0.61893751  1
  V  V31  1  0.49455811  0.38193541  0.38529941  1
  V  V32  1  0.49887093  -0.00375352  0.01103395  1
  V  V33  1  0.25643779  0.11804321  0.37532066  1
  V  V34  1  0.25047810  0.87559832  0.61964923  1
  V  V35  1  0.50030472  0.37410236  0.86740678  1
  V  V36  1  0.76212515  0.75441926  0.49484606  1
  V  V37  1  0.12522129  0.00062494  0.12609168  1
  V  V38  1  0.49850538  0.50010017  -0.00041501  1
  V  V39  1  0.24565041  0.87530032  0.12142570  1
  V  V40  1  0.87734195  0.12302879  0.75148479  1
  V  V41  1  0.24461452  0.73442625  0.50238470  1
  V  V42  1  0.87757892  -0.00369596  0.88994603  1
  V  V43  1  0.87697895  0.25384915  0.62558129  1
  V  V44  1  0.76332266  0.87639425  0.62035282  1
  V  V45  1  0.11761657  0.87129271  0.74608129  1
  V  V46  1  0.11722132  0.74926060  0.86898640  1
  V  V47  1  -0.00172115  0.87184878  0.38434153  1
  V  V48  1  0.37991095  0.62786082  0.74965648  1
  V  V49  1  0.00978898  0.61844171  0.63297587  1
  V  V50  1  -0.00193819  0.87864430  0.88239322  1
  V  V51  1  0.63523038  0.87373102  0.24585281  1
  V  V52  1  0.73406245  0.37211682  0.63960671  1
  V  V53  1  0.49307094  0.88082637  0.36703754  1
  V  V54  1  0.62571185  0.63025335  0.00057834  1
  V  V55  1  0.24893266  0.62470139  0.87091267  1
  V  V56  1  0.24934075  0.25552947  0.49191242  1
  V  V57  1  0.12360824  0.73335428  0.38095100  1
  V  V58  1  0.25238881  0.24770224  -0.00123096  1
  V  V59  1  0.38139450  0.24298552  0.12394682  1
  V  V60  1  -0.00915182  0.37535562  0.37328160  1
  V  V61  1  0.75319926  0.24993062  0.49870899  1
  V  V62  1  0.38587269  -0.00630281  0.87221776  1
  V  V63  1  0.37617663  0.12684119  0.74835554  1
  V  V64  1  0.62767839  0.75367983  0.37873853  1
  V  V65  1  0.62702886  -0.00144952  0.62210657  1
  V  V66  1  0.12512903  0.25081735  0.87339459  1
  V  V67  1  0.62303749  0.24948618  0.86973814  1
  V  V68  1  0.49343993  -0.00172502  0.49683992  1
  V  V69  1  0.25214467  0.37692621  0.62306500  1
  V  V70  1  0.61798491  0.87731240  0.75056531  1
  V  V71  1  0.12252458  0.11844795  -0.00125696  1
  V  V72  1  0.24651372  0.37509131  0.12556248  1
  V  V73  1  0.00108180  0.12561296  0.12379309  1
  V  V74  1  0.24972631  0.00038971  0.74954249  1
  V  V75  1  0.11481318  0.49573714  0.11647407  1
  V  V76  1  0.24834386  0.50219690  0.74334596  1
  V  V77  1  0.50151429  0.12517852  0.62265508  1
  V  V78  1  0.76179221  0.75447081  0.01411213  1
  V  V79  1  0.75264499  0.63339611  0.86629986  1
  V  V80  1  0.87240923  0.38948568  0.50365487  1
  V  V81  1  0.51233312  0.61661520  0.62240860  1
  V  V82  1  -0.00127781  -0.00098334  0.50028580  1
  V  V83  1  0.11532440  0.62041720  -0.00427802  1
  V  V84  1  0.75926429  0.37592568  0.12063731  1
  Zn  Zn85  1  0.49971863  0.75352959  0.74961840  1
  Zn  Zn86  1  0.62611246  0.12364778  0.49751623  1
  Zn  Zn87  1  0.37329747  0.49966269  0.87539602  1
  Zn  Zn88  1  0.75505158  0.49499901  0.24888536  1
  Zn  Zn89  1  0.37035127  0.87707844  0.49274100  1
  Zn  Zn90  1  -0.00808353  0.62499934  0.11593146  1
  Zn  Zn91  1  0.62848660  0.37326015  0.24736218  1
  Zn  Zn92  1  0.46627385  0.70529646  0.28671169  1
  Zn  Zn93  1  0.39251490  0.52751972  0.37117141  1
  Zn  Zn94  1  0.74741548  0.50315357  0.75333852  1
  Zn  Zn95  1  0.61809406  0.61054199  0.49137607  1
  Zn  Zn96  1  0.50441149  0.25501559  0.74405252  1
  Zn  Zn97  1  0.38165420  0.75388229  0.62358771  1
  Zn  Zn98  1  0.75536701  0.00010090  0.24259278  1
  Zn  Zn99  1  0.48822944  0.61789993  0.12875470  1
  Zn  Zn100  1  0.25572372  -0.00360818  0.25425860  1
  Zn  Zn101  1  0.88134660  0.25521391  0.12094919  1
  Zn  Zn102  1  0.74945682  0.12370215  0.37316523  1
  Zn  Zn103  1  -0.17959880  -0.09212509  0.07418287  1
  Zn  Zn104  1  0.28586362  0.54323636  0.22911383  1
  Zn  Zn105  1  0.63622347  -0.00545760  0.12353607  1
  Zn  Zn106  1  0.38007129  0.86916601  -0.00680802  1
  Zn  Zn107  1  0.19243046  0.18768234  0.18879290  1
  Zn  Zn108  1  0.18806612  0.19015144  0.68420547  1
  Zn  Zn109  1  0.16886890  0.69376648  0.17981050  1
  Zn  Zn110  1  0.18695456  0.68831905  0.68488421  1
  Zn  Zn111  1  0.69147346  0.18742765  0.18561057  1
  Zn  Zn112  1  0.68878276  0.18652572  0.68725823  1
  Zn  Zn113  1  0.67586575  0.68519364  0.19069127  1
  Zn  Zn114  1  0.68745191  0.69431837  0.68703318  1
  Zn  Zn115  1  0.32035927  0.30900544  0.31215861  1
  Zn  Zn116  1  0.31476515  0.31303795  0.80910555  1
  Zn  Zn117  1  0.30154757  0.69690039  0.31566281  1
  Zn  Zn118  1  0.30818744  0.81299162  0.80905257  1
  Zn  Zn119  1  0.81492297  0.31469805  0.31164664  1
  Zn  Zn120  1  0.81851426  0.31293600  0.81686665  1
  Zn  Zn121  1  0.81517048  0.81290136  0.31005223  1
  Zn  Zn122  1  0.81059899  0.81357448  0.81244670  1
  Zn  Zn123  1  0.23041345  0.47471125  0.46436343  1
  Zn  Zn124  1  0.18715547  0.43660726  0.93319637  1
  Zn  Zn125  1  0.18476020  0.93904998  0.43735488  1
  Zn  Zn126  1  0.18581873  0.93741006  0.93493158  1
  Zn  Zn127  1  0.68101323  0.43328913  0.43827399  1
  Zn  Zn128  1  0.67265196  0.45380052  0.90560712  1
  Zn  Zn129  1  0.68690062  0.93720385  0.43748744  1
  Zn  Zn130  1  0.68611400  0.93618542  0.93804681  1
  Zn  Zn131  1  0.31427040  0.06107780  0.06229083  1
  Zn  Zn132  1  0.31303119  0.06439873  0.56108992  1
  Zn  Zn133  1  0.30552454  0.56148696  0.05657879  1
  Zn  Zn134  1  0.33210504  0.56284867  0.56449066  1
  Zn  Zn135  1  0.81014313  0.07651543  0.06564822  1
  Zn  Zn136  1  0.81403755  0.06504603  0.56162575  1
  Zn  Zn137  1  0.81308452  0.56450056  0.05458938  1
  Zn  Zn138  1  0.76949528  0.54519305  0.55101528  1
  Zn  Zn139  1  0.43960781  0.43253356  0.19162485  1
  Zn  Zn140  1  0.43607186  0.44099463  0.68676150  1
  Zn  Zn141  1  0.43463767  0.92791118  0.18676957  1
  Zn  Zn142  1  0.43691779  0.93873794  0.68346057  1
  Zn  Zn143  1  0.93779456  0.43790208  0.18592034  1
  Zn  Zn144  1  0.92983144  0.44721783  0.69084166  1
  Zn  Zn145  1  0.94354307  0.94658428  0.20105628  1
  Zn  Zn146  1  0.93793122  0.93812119  0.69144097  1
  Zn  Zn147  1  0.06353797  0.06317489  0.31362644  1
  Zn  Zn148  1  0.06106870  0.06034438  0.81222638  1
  Zn  Zn149  1  0.05215838  0.56074345  0.31286522  1
  Zn  Zn150  1  0.06043273  0.55954984  0.80889110  1
  Zn  Zn151  1  0.56626050  0.06109640  0.30889649  1
  Zn  Zn152  1  0.56328741  0.06552785  0.81169566  1
  Zn  Zn153  1  0.56939030  0.56090993  0.30587858  1
  Zn  Zn154  1  0.56551666  0.56404609  0.81025250  1
  Zn  Zn155  1  0.43870228  0.18955682  0.43624179  1
  Zn  Zn156  1  0.44018973  0.18268425  0.93663258  1
  Zn  Zn157  1  0.43959390  0.69577136  0.45341345  1
  Zn  Zn158  1  0.43618902  0.68708058  0.93879495  1
  Zn  Zn159  1  0.93749255  0.19176415  0.43695587  1
  Zn  Zn160  1  0.93874993  0.18766984  0.93630769  1
  Zn  Zn161  1  0.93359571  0.68061756  0.43889582  1
  Zn  Zn162  1  0.93670128  0.69523493  0.93501721  1
  Zn  Zn163  1  0.06716558  0.30545499  0.06412198  1
  Zn  Zn164  1  0.06472752  0.31836903  0.55969842  1
  Zn  Zn165  1  0.01264163  0.83667927  0.08538784  1
  Zn  Zn166  1  0.05725778  0.80396088  0.56402801  1
  Zn  Zn167  1  0.56558523  0.31379466  0.05814534  1
  Zn  Zn168  1  0.56391739  0.31161063  0.55820293  1
  Zn  Zn169  1  0.55983725  0.81512706  0.06159237  1
  Zn  Zn170  1  0.56487185  0.81091201  0.56217929  1
  O  O171  1  0.12316987  0.12198116  0.11749700  1
  O  O172  1  0.12051182  0.12086642  0.61680520  1
  O  O173  1  0.12344195  0.61205715  0.11071393  1
  O  O174  1  0.10848235  0.62880996  0.62682144  1
  O  O175  1  0.63105714  0.12038362  0.11206810  1
  O  O176  1  0.61840201  0.11783370  0.62410019  1
  O  O177  1  0.63171992  0.61469561  0.10844116  1
  O  O178  1  0.61463366  0.62867970  0.62887719  1
  O  O179  1  0.39507827  0.36704338  0.37439815  1
  O  O180  1  0.38157154  0.37367277  0.88291040  1
  O  O181  1  0.39453871  0.87601353  0.37320334  1
  O  O182  1  0.36381844  0.88881259  0.87593232  1
  O  O183  1  0.88220214  0.37127611  0.38889337  1
  O  O184  1  0.89070548  0.37390204  0.88144912  1
  O  O185  1  0.88615984  0.88589497  0.36968308  1
  O  O186  1  0.88534850  0.88402162  0.86735405  1
  O  O187  1  0.24938384  0.01378829  0.37530127  1
  O  O188  1  0.25477946  0.00725494  0.86801896  1
  O  O189  1  0.22596027  0.48145659  0.34850891  1
  O  O190  1  0.25166387  0.50470488  0.86169043  1
  O  O191  1  0.76078446  0.00308705  0.37624204  1
  O  O192  1  0.75677414  0.00401684  0.87058791  1
  O  O193  1  0.74401369  0.51337419  0.36687988  1
  O  O194  1  0.76581731  0.52064828  0.88930478  1
  O  O195  1  0.24318474  0.49071484  0.12875028  1
  O  O196  1  0.25904443  0.49198686  0.63569092  1
  O  O197  1  0.24418815  0.99137564  0.12479602  1
  O  O198  1  0.24420696  0.99606887  0.62958924  1
  O  O199  1  0.74549128  0.49168086  0.11751229  1
  O  O200  1  0.75641849  0.47543639  0.64097375  1
  O  O201  1  0.75629869  0.99410754  0.12290703  1
  O  O202  1  0.74747406  0.99487677  0.62815916  1
  O  O203  1  -0.01194983  0.36646087  0.26154733  1
  O  O204  1  0.00690706  0.37289859  0.75465869  1
  O  O205  1  0.01002787  0.86863257  0.26381326  1
  O  O206  1  0.01386493  0.88003219  0.75524262  1
  O  O207  1  0.50655585  0.35932604  0.25551850  1
  O  O208  1  0.49259080  0.37456200  0.76396550  1
  O  O209  1  0.50947139  0.88058799  0.26183941  1
  O  O210  1  0.51418292  0.87738614  0.74405312  1
  O  O211  1  0.49432736  0.13636744  0.25567966  1
  O  O212  1  0.49308135  0.12617142  0.73976554  1
  O  O213  1  0.53328740  0.63746792  0.23088120  1
  O  O214  1  0.49471652  0.62766927  0.74664719  1
  O  O215  1  0.99626725  0.13437911  0.24755553  1
  O  O216  1  0.99769913  0.13205396  0.74390180  1
  O  O217  1  0.98607369  0.63094296  0.24964652  1
  O  O218  1  0.99570410  0.61407476  0.73243177  1
  O  O219  1  0.37241004  0.25084206  0.00608760  1
  O  O220  1  0.36630349  0.24431298  0.51257717  1
  O  O221  1  0.35840881  0.75111077  -0.00001422  1
  O  O222  1  0.35661997  0.75738884  0.50416067  1
  O  O223  1  0.85887106  0.24244422  -0.00005025  1
  O  O224  1  0.86976824  0.25630721  0.50773652  1
  O  O225  1  0.86210552  0.74936090  0.00282168  1
  O  O226  1  0.86651295  0.74916702  0.50955542  1
  O  O227  1  0.13572237  0.24151962  0.50766096  1
  O  O228  1  0.13364609  0.23920101  0.99271070  1
  O  O229  1  0.13569402  0.75520190  0.49502177  1
  O  O230  1  0.13586132  0.73937135  0.98761097  1
  O  O231  1  0.63476837  0.24735698  0.49109282  1
  O  O232  1  0.63159497  0.24012572  0.99354877  1
  O  O233  1  0.63737287  0.75227486  0.48856645  1
  O  O234  1  0.62639508  0.74595048  0.99520501  1
  O  O235  1  0.49209046  0.25547083  0.13090353  1
  O  O236  1  0.49337932  0.24509456  0.62379762  1
  O  O237  1  0.47539779  0.75108571  0.11017121  1
  O  O238  1  0.50010921  0.74312628  0.62950497  1
  O  O239  1  1.00083518  0.24283730  0.13384480  1
  O  O240  1  0.99671320  0.24729815  0.62962133  1
  O  O241  1  1.02188884  0.73889963  0.14387079  1
  O  O242  1  0.98395945  0.73060809  0.61617543  1
  O  O243  1  -0.00128878  0.26247073  0.36983167  1
  O  O244  1  0.00509141  0.25923857  0.86877885  1
  O  O245  1  0.00417880  0.75629333  0.37478180  1
  O  O246  1  0.01132071  0.75836090  0.87309471  1
  O  O247  1  0.51004191  0.25496325  0.36882083  1
  O  O248  1  0.50564487  0.25522897  0.87316365  1
  O  O249  1  0.51131420  0.76581509  0.38006919  1
  O  O250  1  0.51309794  0.74756002  0.87426502  1
  O  O251  1  0.24460507  0.13249908  0.49420803  1
  O  O252  1  0.24514932  0.12924408  0.99322567  1
  O  O253  1  0.24624333  0.63757396  0.51490401  1
  O  O254  1  0.24072682  0.63061084  0.98887063  1
  O  O255  1  0.75038060  0.13901934  0.49957658  1
  O  O256  1  0.74083795  0.13424233  0.99285058  1
  O  O257  1  0.75410451  0.63950565  0.48582013  1
  O  O258  1  0.74343001  0.63912244  0.99278566  1
  O  O259  1  0.25643513  0.36899770  0.00542829  1
  O  O260  1  0.24081813  0.36799378  0.51615528  1
  O  O261  1  0.24276336  0.86731650  0.00840334  1
  O  O262  1  0.24917439  0.88034942  0.51185952  1
  O  O263  1  0.74429614  0.35997881  0.00032611  1
  O  O264  1  0.75621450  0.36276700  0.51120629  1
  O  O265  1  0.74707104  0.86100863  0.00014328  1
  O  O266  1  0.74776400  0.86813187  0.50947899  1
  O  O267  1  0.11228881  0.48729400  0.24061280  1
  O  O268  1  0.13496986  0.49152412  0.75178551  1
  O  O269  1  0.12911136  0.99356215  0.24705078  1
  O  O270  1  0.13108437  0.99490033  0.74279598  1
  O  O271  1  0.63132063  0.49531129  0.22991373  1
  O  O272  1  0.64300759  0.48796914  0.79666572  1
  O  O273  1  0.63152982  0.98950380  0.24608685  1
  O  O274  1  0.63204659  0.99637340  0.74431370  1
  O  O275  1  0.37552961  0.01324373  0.24028697  1
  O  O276  1  0.37056896  0.00590843  0.75538032  1
  O  O277  1  0.37954982  0.49710732  0.25917781  1
  O  O278  1  0.36842224  0.51284305  0.75306869  1
  O  O279  1  0.87817135  0.01419166  0.26473844  1
  O  O280  1  0.86873490  0.00738098  0.75534444  1
  O  O281  1  0.87446577  0.51487243  0.24776225  1
  O  O282  1  0.86489587  0.48637441  0.77703772  1
  O  O283  1  0.11136214  0.37322783  0.36696100  1
  O  O284  1  0.11825017  0.37050354  0.86444007  1
  O  O285  1  0.11858397  0.87261285  0.36952405  1
  O  O286  1  0.12240216  0.86902074  0.86430833  1
  O  O287  1  0.62055277  0.36351158  0.37077677  1
  O  O288  1  0.60997283  0.35816351  0.88994228  1
  O  O289  1  0.62134495  0.87170838  0.36580854  1
  O  O290  1  0.63007045  0.86891565  0.86406962  1
  O  O291  1  0.36821699  0.13767364  0.13159255  1
  O  O292  1  0.38097699  0.13110251  0.63004329  1
  O  O293  1  0.36900789  0.63756407  0.11952009  1
  O  O294  1  0.38772463  0.63098968  0.63424144  1
  O  O295  1  0.88631474  0.13032010  0.13421170  1
  O  O296  1  0.88274747  0.13269266  0.63069817  1
  O  O297  1  0.87495125  0.62378713  0.13654832  1
  O  O298  1  0.86757111  0.62970345  0.62641819  1
  O  O299  1  0.25625144  0.25601783  0.11746869  1
  O  O300  1  0.25771869  0.25687004  0.61826966  1
  O  O301  1  0.25031226  0.75686509  0.11416486  1
  O  O302  1  0.24740324  0.76010508  0.61593726  1
  O  O303  1  0.75187072  0.25640069  0.11198006  1
  O  O304  1  0.75664314  0.25455288  0.61942397  1
  O  O305  1  0.74341866  0.74637667  0.11170362  1
  O  O306  1  0.75896591  0.75660397  0.61673574  1
  O  O307  1  0.25646183  0.24469609  0.38878269  1
  O  O308  1  0.24585177  0.24415845  0.87811345  1
  O  O309  1  0.23804770  0.75141983  0.39392807  1
  O  O310  1  0.23951741  0.74593978  0.87771949  1
  O  O311  1  0.74485165  0.25127409  0.38274822  1
  O  O312  1  0.74385257  0.24614416  0.88295613  1
  O  O313  1  0.74766890  0.74960287  0.38123584  1
  O  O314  1  0.74307623  0.74725756  0.88306203  1
  O  O315  1  0.01091608  0.13412629  0.01030097  1
  O  O316  1  0.00844356  0.12373743  0.50394623  1
  O  O317  1  0.01214355  0.63222575  -0.00277762  1
  O  O318  1  -0.00485165  0.60760474  0.50514516  1
  O  O319  1  0.50936150  0.11113423  -0.00502541  1
  O  O320  1  0.50169813  0.11883623  0.50642364  1
  O  O321  1  0.50609568  0.61649826  0.00281132  1
  O  O322  1  0.50493512  0.62677494  0.51592724  1
  O  O323  1  0.50458651  0.37338214  0.48432109  1
  O  O324  1  0.49252366  0.38064570  0.99426491  1
  O  O325  1  0.50079160  0.88322749  0.49192727  1
  O  O326  1  0.49845454  0.89090047  0.99680336  1
  O  O327  1  0.99360991  0.38707805  0.49786611  1
  O  O328  1  1.01107253  0.36887696  0.98538092  1
  O  O329  1  1.00605584  0.87974530  0.49060832  1
  O  O330  1  1.01395824  0.87736624  0.98043482  1
  O  O331  1  0.50811049  0.48640070  0.37017435  1
  O  O332  1  0.49646584  0.49200377  0.88700330  1
  O  O333  1  0.50967284  0.98918554  0.38338113  1
  O  O334  1  0.48882853  1.00510510  0.87829623  1
  O  O335  1  1.00191834  0.49041758  0.39095521  1
  O  O336  1  0.99332662  0.48874481  0.87302675  1
  O  O337  1  0.99636889  0.99299989  0.38179841  1
  O  O338  1  0.98869768  0.99309768  0.86999268  1
  O  O339  1  0.01041776  0.01944602  0.13430243  1
  O  O340  1  0.00379526  0.00664188  0.61956382  1
  O  O341  1  0.01155058  0.49945346  0.12127921  1
  O  O342  1  -0.00579651  0.50902298  0.61277988  1
  O  O343  1  0.49819180  -0.00326789  0.11204889  1
  O  O344  1  0.50673273  0.00570172  0.61746117  1
  O  O345  1  0.50777471  0.49539659  0.11303327  1
  O  O346  1  0.49859800  0.51708111  0.63059031  1
  O  O347  1  0.23954289  0.35996710  0.24360069  1
  O  O348  1  0.24439315  0.38167794  0.74326439  1
  O  O349  1  0.23454411  0.87552560  0.23500115  1
  O  O350  1  0.24010873  0.88075004  0.73788630  1
  O  O351  1  0.74974126  0.37527702  0.23738190  1
  O  O352  1  0.74991640  0.35818624  0.73920165  1
  O  O353  1  0.73946190  0.87929961  0.25290000  1
  O  O354  1  0.74241271  0.88238992  0.74162232  1
  O  O355  1  0.25952106  0.12568153  0.25978650  1
  O  O356  1  0.25542713  0.12040336  0.75269505  1
  O  O357  1  0.23467407  0.63654324  0.25033171  1
  O  O358  1  0.25590612  0.61894948  0.75030085  1
  O  O359  1  0.76241941  0.12370352  0.25086519  1
  O  O360  1  0.75649811  0.11936422  0.75708121  1
  O  O361  1  0.75978170  0.62700021  0.25304822  1
  O  O362  1  0.74476406  0.62796551  0.76368059  1
  O  O363  1  0.36796579  0.13055691  0.36484988  1
  O  O364  1  0.36952821  0.11859279  0.86668731  1
  O  O365  1  0.39448741  0.64610178  0.36127434  1
  O  O366  1  0.36732398  0.62424720  0.86786407  1
  O  O367  1  0.87557014  0.12083943  0.36893599  1
  O  O368  1  0.87155005  0.11689320  0.87088453  1
  O  O369  1  0.86436283  0.63192064  0.35940394  1
  O  O370  1  0.87213428  0.62220607  0.87396645  1
  O  O371  1  0.13807517  0.38010726  0.11590171  1
  O  O372  1  0.13340114  0.36892382  0.63928440  1
  O  O373  1  0.12085398  0.88492455  0.13249678  1
  O  O374  1  0.12693392  0.87943986  0.62945326  1
  O  O375  1  0.63780187  0.38140455  0.11979284  1
  O  O376  1  0.63545310  0.36447778  0.62977044  1
  O  O377  1  0.61639764  0.87304619  0.14311108  1
  O  O378  1  0.63512605  0.88163042  0.63138642  1
  O  O379  1  0.11389450  0.24684767  0.24803732  1
  O  O380  1  0.12090884  0.25614714  0.75597178  1
  O  O381  1  0.11621118  0.75957141  0.26464163  1
  O  O382  1  0.13079065  0.75978566  0.75690802  1
  O  O383  1  0.62053896  0.24822935  0.25446789  1
  O  O384  1  0.62259370  0.24026586  0.76569457  1
  O  O385  1  0.63389827  0.76488616  0.26386535  1
  O  O386  1  0.62640063  0.76190888  0.75960332  1
  O  O387  1  0.38446507  0.24106004  0.24133652  1
  O  O388  1  0.37594849  0.24251405  0.73824578  1
  O  O389  1  0.37258704  0.75532641  0.23151340  1
  O  O390  1  0.37486856  0.73914820  0.75017989  1
  O  O391  1  0.88292204  0.24069490  0.24981665  1
  O  O392  1  0.88324878  0.24290466  0.74651658  1
  O  O393  1  0.88735656  0.74440106  0.25157746  1
  O  O394  1  0.86817785  0.75167154  0.73183701  1
  O  O395  1  0.33835852  0.50874397  0.46996796  1
  O  O396  1  0.38169280  0.49376026  0.99980905  1
  O  O397  1  0.38933036  0.99869172  0.50449423  1
  O  O398  1  0.38615453  1.00110621  0.99219595  1
  O  O399  1  0.86684160  0.48898887  0.50495124  1
  O  O400  1  0.88200061  0.50326510  0.98405846  1
  O  O401  1  0.88402522  1.00824078  0.48878044  1
  O  O402  1  0.86764253  1.00191224  0.99077778  1
  O  O403  1  0.12991520  0.01348859  0.00385206  1
  O  O404  1  0.11871992  0.01027156  0.50608315  1
  O  O405  1  0.13208961  0.50834610  0.00445648  1
  O  O406  1  0.11940156  0.49806196  0.50110802  1
  O  O407  1  0.61467071  0.00444882  0.00161011  1
  O  O408  1  0.61801476  0.00263989  0.50739437  1
  O  O409  1  0.61785701  0.50791073  0.00162760  1
  O  O410  1  0.66357522  0.51044782  0.51278180  1
  O  O411  1  0.36465316  0.36446051  0.12174570  1
  O  O412  1  0.36631313  0.36606140  0.63102001  1
  O  O413  1  0.36120129  0.86590742  0.11778958  1
  O  O414  1  0.36336545  0.87383561  0.62444832  1
  O  O415  1  0.86431586  0.37394117  0.12250748  1
  O  O416  1  0.87455081  0.36682878  0.62032990  1
  O  O417  1  0.91120850  0.87346303  0.12508150  1
  O  O418  1  0.86508607  0.87588329  0.62800518  1
  O  O419  1  0.13230763  0.12351890  0.38719369  1
  O  O420  1  0.12857565  0.12909016  0.88061506  1
  O  O421  1  0.11325140  0.63487277  0.37627310  1
  O  O422  1  0.12718113  0.63092071  0.87491992  1
  O  O423  1  0.62835118  0.13692740  0.37513858  1
  O  O424  1  0.63072299  0.12972985  0.88402306  1
  O  O425  1  0.63434937  0.63681766  0.37438259  1
  O  O426  1  0.63275192  0.63693742  0.88599604  1
