# generated using pymatgen
data_V85Zn86O256
_symmetry_space_group_name_H-M   'P 1'
_cell_length_a   16.93078922
_cell_length_b   16.92539797
_cell_length_c   16.92901817
_cell_angle_alpha   90.02374707
_cell_angle_beta   90.06579598
_cell_angle_gamma   89.94786026
_symmetry_Int_Tables_number   1
_chemical_formula_structural   V85Zn86O256
_chemical_formula_sum   'V85 Zn86 O256'
_cell_volume   4851.17967374
_cell_formula_units_Z   1
loop_
 _symmetry_equiv_pos_site_id
 _symmetry_equiv_pos_as_xyz
  1  'x, y, z'
loop_
 _atom_site_type_symbol
 _atom_site_label
 _atom_site_symmetry_multiplicity
 _atom_site_fract_x
 _atom_site_fract_y
 _atom_site_fract_z
 _atom_site_occupancy
  V  V0  1  -0.00162367  0.00160611  0.00897571  1
  V  V1  1  0.62246902  0.88189932  0.24522419  1
  V  V2  1  -0.01203208  0.87737585  0.37802104  1
  V  V3  1  0.74756012  0.25173689  -0.00822152  1
  V  V4  1  0.87196228  0.62375307  0.25047295  1
  V  V5  1  0.00491671  0.24980401  0.75826353  1
  V  V6  1  0.74840910  0.37273022  0.13262104  1
  V  V7  1  0.88037916  0.74515948  0.62176094  1
  V  V8  1  0.25354324  -0.00138738  0.74650517  1
  V  V9  1  0.48815462  0.87845594  0.37275072  1
  V  V10  1  0.24799067  0.50416977  0.74956571  1
  V  V11  1  0.62523075  -0.00152797  0.61991278  1
  V  V12  1  0.24823962  0.87421760  0.11162607  1
  V  V13  1  -0.00064439  0.37943607  0.88008490  1
  V  V14  1  0.47193117  0.53178013  0.46094543  1
  V  V15  1  0.37973585  0.75700265  0.61942564  1
  V  V16  1  0.62726562  0.74630820  0.36919974  1
  V  V17  1  0.87796802  0.25046026  0.62554696  1
  V  V18  1  0.37681768  0.49979907  0.87423794  1
  V  V19  1  0.25820777  0.51529881  0.26973204  1
  V  V20  1  0.75660284  0.62273505  0.87532675  1
  V  V21  1  0.12167048  0.24855073  0.36955429  1
  V  V22  1  0.12784987  0.74223762  0.37503310  1
  V  V23  1  0.26284782  -0.00394221  0.25217258  1
  V  V24  1  0.74866602  0.37268911  0.62338565  1
  V  V25  1  0.12006857  0.51287049  0.13344013  1
  V  V26  1  0.62399150  0.12362539  -0.00051640  1
  V  V27  1  0.74096579  0.50390168  0.25706784  1
  V  V28  1  0.50280475  0.87376740  0.87676263  1
  V  V29  1  0.12521728  0.12333430  0.49893662  1
  V  V30  1  0.86885806  0.50436981  0.37647691  1
  V  V31  1  0.75264379  0.00340160  0.26806475  1
  V  V32  1  0.75299014  -0.00000671  0.74883286  1
  V  V33  1  0.87478740  0.37906609  -0.00045608  1
  V  V34  1  0.25478130  0.37014159  0.62816831  1
  V  V35  1  0.25317202  0.87516812  0.61258003  1
  V  V36  1  0.87315202  0.74478981  0.12540879  1
  V  V37  1  0.62295561  0.49904613  0.62135431  1
  V  V38  1  0.48724335  -0.00506341  0.49530192  1
  V  V39  1  0.75330834  0.50017451  0.75076329  1
  V  V40  1  0.75798737  0.87391672  0.61842432  1
  V  V41  1  0.12521340  0.87706948  0.25250459  1
  V  V42  1  0.88266248  0.61899749  0.75130768  1
  V  V43  1  0.62610220  0.62658111  0.00119845  1
  V  V44  1  0.37607232  0.62934499  0.74957722  1
  V  V45  1  0.12916116  0.37223000  0.75779963  1
  V  V46  1  0.36806823  0.73435494  0.11770846  1
  V  V47  1  0.61970700  0.50490317  0.13032484  1
  V  V48  1  0.56673736  0.31670181  0.20618360  1
  V  V49  1  -0.00229834  0.50772933  0.00542577  1
  V  V50  1  0.50182939  0.50490256  -0.00033676  1
  V  V51  1  0.50099376  0.36962921  0.87207588  1
  V  V52  1  -0.00051541  0.74501653  0.24749108  1
  V  V53  1  0.74761275  0.88539911  0.12466704  1
  V  V54  1  0.25841586  0.24887974  0.50279363  1
  V  V55  1  0.49525939  0.36299138  0.38300185  1
  V  V56  1  0.50355967  0.62329574  0.62820552  1
  V  V57  1  0.63372105  0.62290439  0.49718157  1
  V  V58  1  0.00244237  0.12514534  0.62545048  1
  V  V59  1  0.75028503  0.24131746  0.49665475  1
  V  V60  1  0.00504236  0.74585183  0.74754789  1
  V  V61  1  0.87258300  0.00386042  0.87609992  1
  V  V62  1  0.50126761  0.24845370  0.74729578  1
  V  V63  1  0.50086659  0.12787082  0.61946971  1
  V  V64  1  -0.01366810  -0.00273451  0.49633628  1
  V  V65  1  0.12442619  0.37583694  0.24883219  1
  V  V66  1  0.37756190  0.14248192  0.24200402  1
  V  V67  1  0.37568873  0.12835295  0.74590963  1
  V  V68  1  0.87391808  0.12800929  0.26364333  1
  V  V69  1  -0.00083133  0.50642004  0.50531572  1
  V  V70  1  0.37877887  0.00088892  0.87561875  1
  V  V71  1  0.87300511  0.87403543  0.00148596  1
  V  V72  1  0.49375115  0.73949609  0.24013407  1
  V  V73  1  0.62917371  0.24510117  0.37241390  1
  V  V74  1  0.62803350  0.87359155  0.74908363  1
  V  V75  1  0.62732337  0.37093759  0.75337891  1
  V  V76  1  0.25474226  0.74076382  0.49378203  1
  V  V77  1  -0.00111922  0.13526546  0.13217967  1
  V  V78  1  0.24946916  0.63149937  0.88809883  1
  V  V79  1  0.75681537  0.75107585  0.49191977  1
  V  V80  1  -0.00332615  0.37224201  0.37335435  1
  V  V81  1  0.25716695  0.12033857  0.37305567  1
  V  V82  1  0.12776184  0.87508432  0.74839083  1
  V  V83  1  0.50261112  -0.00050638  0.01287374  1
  V  V84  1  0.00032653  0.87520634  0.87504332  1
  Zn  Zn85  1  0.87346710  0.37467089  0.49867905  1
  Zn  Zn86  1  0.12412831  -0.00281489  0.62013705  1
  Zn  Zn87  1  0.37016188  0.87207204  -0.00173840  1
  Zn  Zn88  1  0.37579607  0.36461677  0.01227622  1
  Zn  Zn89  1  0.12554395  0.00314965  0.13151483  1
  Zn  Zn90  1  0.74510624  0.13172079  0.87085721  1
  Zn  Zn91  1  0.74914329  0.75101870  0.00029995  1
  Zn  Zn92  1  0.11788986  0.50681203  0.63024447  1
  Zn  Zn93  1  0.49997300  0.13702766  0.12751737  1
  Zn  Zn94  1  0.25748270  0.37324017  0.12900745  1
  Zn  Zn95  1  0.12267264  0.63195112  0.00686698  1
  Zn  Zn96  1  0.24862626  0.25242678  -0.00028278  1
  Zn  Zn97  1  0.87456887  0.12759913  0.75377405  1
  Zn  Zn98  1  0.13837254  0.76316024  0.88855368  1
  Zn  Zn99  1  0.37526071  0.37723641  0.50349914  1
  Zn  Zn100  1  0.24212489  0.13378173  0.87645942  1
  Zn  Zn101  1  0.87492639  0.25179300  0.13073792  1
  Zn  Zn102  1  0.50257897  0.75236189  0.74979539  1
  Zn  Zn103  1  0.12290547  0.13496892  -0.00813109  1
  Zn  Zn104  1  0.62749347  0.11632187  0.48766996  1
  Zn  Zn105  1  0.62770202  0.74956277  0.87565300  1
  Zn  Zn106  1  0.12446255  0.62556479  0.50637928  1
  Zn  Zn107  1  0.18907166  0.18975639  0.18278247  1
  Zn  Zn108  1  0.18824906  0.18785779  0.68908735  1
  Zn  Zn109  1  0.19044817  0.68702427  0.18848619  1
  Zn  Zn110  1  0.18748728  0.68757366  0.68531093  1
  Zn  Zn111  1  0.69301284  0.17718697  0.17896880  1
  Zn  Zn112  1  0.68549838  0.18538712  0.68585515  1
  Zn  Zn113  1  0.68815392  0.68816369  0.18620266  1
  Zn  Zn114  1  0.69223896  0.68887930  0.68656482  1
  Zn  Zn115  1  0.30668621  0.31715515  0.31371705  1
  Zn  Zn116  1  0.31579650  0.30853496  0.81992389  1
  Zn  Zn117  1  0.31139697  0.80584802  0.30582933  1
  Zn  Zn118  1  0.31536507  0.81323669  0.81025929  1
  Zn  Zn119  1  0.80991363  0.31378649  0.31316660  1
  Zn  Zn120  1  0.81911189  0.31577802  0.81406250  1
  Zn  Zn121  1  0.81072412  0.81461986  0.31035017  1
  Zn  Zn122  1  0.81472653  0.80892218  0.81177803  1
  Zn  Zn123  1  0.18428035  0.43574602  0.43958633  1
  Zn  Zn124  1  0.18591613  0.43662276  0.94221874  1
  Zn  Zn125  1  0.18395007  0.93685999  0.43359456  1
  Zn  Zn126  1  0.17854005  0.96826955  0.92965083  1
  Zn  Zn127  1  0.67956873  0.42997360  0.43506109  1
  Zn  Zn128  1  0.69009121  0.44023763  0.93587277  1
  Zn  Zn129  1  0.68170673  0.93140295  0.43652893  1
  Zn  Zn130  1  0.68616498  0.94116806  0.93911208  1
  Zn  Zn131  1  0.31203633  0.06617299  0.06371298  1
  Zn  Zn132  1  0.31442586  0.06321890  0.56254987  1
  Zn  Zn133  1  0.31997252  0.53097981  0.07684866  1
  Zn  Zn134  1  0.31016738  0.56485584  0.56717646  1
  Zn  Zn135  1  0.81341238  0.06598336  0.06593849  1
  Zn  Zn136  1  0.81417428  0.06483272  0.56361757  1
  Zn  Zn137  1  0.80967469  0.56021771  0.06523787  1
  Zn  Zn138  1  0.81408063  0.56366671  0.56421366  1
  Zn  Zn139  1  0.43437506  0.45213608  0.19597809  1
  Zn  Zn140  1  0.43645327  0.43844738  0.68552371  1
  Zn  Zn141  1  0.43174032  0.93196522  0.18587359  1
  Zn  Zn142  1  0.44017974  0.93837657  0.68563412  1
  Zn  Zn143  1  0.93681484  0.43731823  0.18935383  1
  Zn  Zn144  1  0.93796628  0.43386316  0.68889409  1
  Zn  Zn145  1  0.93258726  0.93766124  0.19248840  1
  Zn  Zn146  1  0.93866760  0.93631982  0.68488089  1
  Zn  Zn147  1  0.06158633  0.06075244  0.31247151  1
  Zn  Zn148  1  0.06017568  0.05932335  0.81005248  1
  Zn  Zn149  1  0.05813731  0.56286352  0.31693239  1
  Zn  Zn150  1  0.06494701  0.56152298  0.81881304  1
  Zn  Zn151  1  0.55929137  0.06191298  0.30735728  1
  Zn  Zn152  1  0.56520469  0.06189235  0.81455829  1
  Zn  Zn153  1  0.55065063  0.56505291  0.31410570  1
  Zn  Zn154  1  0.56749373  0.56143800  0.81263083  1
  Zn  Zn155  1  0.43769750  0.18451742  0.43343265  1
  Zn  Zn156  1  0.43300823  0.18729133  0.93770501  1
  Zn  Zn157  1  0.44147535  0.70042365  0.43633161  1
  Zn  Zn158  1  0.43764360  0.68801959  0.93886053  1
  Zn  Zn159  1  0.93898612  0.18827375  0.43918283  1
  Zn  Zn160  1  0.93759988  0.19101511  0.94196651  1
  Zn  Zn161  1  0.93721655  0.68664829  0.43228457  1
  Zn  Zn162  1  0.93946872  0.69097724  0.93421456  1
  Zn  Zn163  1  0.07104369  0.31133951  0.06409342  1
  Zn  Zn164  1  0.06709465  0.31656958  0.56244777  1
  Zn  Zn165  1  0.06152285  0.81197611  0.06545025  1
  Zn  Zn166  1  0.06426653  0.81180192  0.56050780  1
  Zn  Zn167  1  0.56490120  0.31266034  0.04255315  1
  Zn  Zn168  1  0.56484010  0.30794092  0.56028122  1
  Zn  Zn169  1  0.56152136  0.81099536  0.06368328  1
  Zn  Zn170  1  0.56564308  0.81307655  0.55779682  1
  O  O171  1  0.10659089  0.12087052  0.13556179  1
  O  O172  1  0.11988267  0.12393706  0.61592264  1
  O  O173  1  0.11868102  0.61630010  0.12884363  1
  O  O174  1  0.12878670  0.61997604  0.62062865  1
  O  O175  1  0.61851504  0.12695398  0.10810320  1
  O  O176  1  0.61610220  0.11476189  0.62233438  1
  O  O177  1  0.63293413  0.61777120  0.11058994  1
  O  O178  1  0.62167132  0.62220903  0.61960078  1
  O  O179  1  0.39062884  0.36730244  0.37836930  1
  O  O180  1  0.38672669  0.38694526  0.86857224  1
  O  O181  1  0.38993149  0.86895641  0.36747163  1
  O  O182  1  0.38586450  0.87950645  0.87653909  1
  O  O183  1  0.87980414  0.38430271  0.37584004  1
  O  O184  1  0.88472869  0.37715979  0.88640489  1
  O  O185  1  0.88851160  0.87041802  0.37248635  1
  O  O186  1  0.87951241  0.88033125  0.88065094  1
  O  O187  1  0.24451933  0.00980759  0.36726113  1
  O  O188  1  0.27101987  -0.00767547  0.86357028  1
  O  O189  1  0.24256901  0.50091928  0.36895659  1
  O  O190  1  0.25822528  0.50721889  0.86552069  1
  O  O191  1  0.74853805  -0.00393630  0.36656840  1
  O  O192  1  0.76152394  -0.00179120  0.86993956  1
  O  O193  1  0.75344081  0.49108339  0.36697448  1
  O  O194  1  0.74794326  0.51239522  0.86610640  1
  O  O195  1  0.22741810  0.50148382  0.14141853  1
  O  O196  1  0.25165600  0.49472712  0.63934857  1
  O  O197  1  0.24826498  0.99112097  0.13573782  1
  O  O198  1  0.25101398  0.99142734  0.62866429  1
  O  O199  1  0.73653266  0.49065681  0.13004415  1
  O  O200  1  0.74465748  0.49257615  0.62912877  1
  O  O201  1  0.75451890  0.98821047  0.13040688  1
  O  O202  1  0.74852887  0.99122960  0.62759268  1
  O  O203  1  0.00445070  0.38014834  0.26568944  1
  O  O204  1  0.00674522  0.37021843  0.75885074  1
  O  O205  1  0.00607335  0.87034042  0.25752774  1
  O  O206  1  0.00934948  0.86991554  0.75247464  1
  O  O207  1  0.49938685  0.37692917  0.25849869  1
  O  O208  1  0.50680681  0.36852866  0.75085113  1
  O  O209  1  0.50645514  0.87217434  0.25504512  1
  O  O210  1  0.51111753  0.87589072  0.75643722  1
  O  O211  1  0.48223184  0.12376271  0.24877569  1
  O  O212  1  0.49929264  0.13045543  0.74287940  1
  O  O213  1  0.50774468  0.64193769  0.23937315  1
  O  O214  1  0.49959806  0.62915488  0.74240178  1
  O  O215  1  0.98476437  0.11708584  0.24293595  1
  O  O216  1  1.00053593  0.13311805  0.74558594  1
  O  O217  1  0.98903382  0.63600787  0.25676041  1
  O  O218  1  0.99489506  0.63264209  0.75737429  1
  O  O219  1  0.37181149  0.25350053  -0.00088518  1
  O  O220  1  0.36103854  0.24758515  0.49759509  1
  O  O221  1  0.38017507  0.75307280  0.01389337  1
  O  O222  1  0.36956101  0.75055098  0.50642555  1
  O  O223  1  0.86847767  0.26244094  0.00587051  1
  O  O224  1  0.86911623  0.25144794  0.50795925  1
  O  O225  1  0.87477627  0.75547888  0.00876977  1
  O  O226  1  0.86665772  0.74222073  0.50621007  1
  O  O227  1  0.13075755  0.23964097  0.49311993  1
  O  O228  1  0.12653762  0.24790753  0.99491706  1
  O  O229  1  0.13503273  0.75019318  0.49185535  1
  O  O230  1  0.11417530  0.74390143  0.99686694  1
  O  O231  1  0.63353166  0.24360387  0.49181113  1
  O  O232  1  0.63414261  0.23902952  0.99457886  1
  O  O233  1  0.63414651  0.74473254  0.49036092  1
  O  O234  1  0.62726081  0.74063297  0.99906383  1
  O  O235  1  0.51329485  0.26242228  0.13580434  1
  O  O236  1  0.50440909  0.23572001  0.62908238  1
  O  O237  1  0.48628805  0.75657389  0.13381382  1
  O  O238  1  0.49585753  0.74556444  0.62392523  1
  O  O239  1  0.99672326  0.23800202  0.12712269  1
  O  O240  1  0.99471683  0.24820689  0.63051956  1
  O  O241  1  0.98799491  0.75832363  0.14035656  1
  O  O242  1  0.99348891  0.75626790  0.63616294  1
  O  O243  1  0.00921652  0.25879139  0.38175903  1
  O  O244  1  -0.00532456  0.26107350  0.86713877  1
  O  O245  1  0.00556454  0.75756702  0.36811847  1
  O  O246  1  0.00003390  0.75936885  0.86091164  1
  O  O247  1  0.50718042  0.25663444  0.37446684  1
  O  O248  1  0.50011399  0.26353968  0.86644955  1
  O  O249  1  0.50664704  0.76085359  0.36034125  1
  O  O250  1  0.50336310  0.76217910  0.87344470  1
  O  O251  1  0.24502380  0.12842154  0.49327269  1
  O  O252  1  0.24174286  0.11815418  0.99613618  1
  O  O253  1  0.25208822  0.63744976  0.49951059  1
  O  O254  1  0.25227715  0.61456206  0.98671102  1
  O  O255  1  0.74696393  0.13669951  0.50595278  1
  O  O256  1  0.74215371  0.13292187  1.00094531  1
  O  O257  1  0.74004232  0.63368059  0.50455929  1
  O  O258  1  0.74591903  0.62418746  0.99156245  1
  O  O259  1  0.25715238  0.38364613  0.00656062  1
  O  O260  1  0.24898814  0.36670080  0.50913284  1
  O  O261  1  0.24425062  0.88722345  0.01058027  1
  O  O262  1  0.24515074  0.86960391  0.50938594  1
  O  O263  1  0.75387584  0.37211146  0.00732285  1
  O  O264  1  0.74839112  0.36404485  0.50865723  1
  O  O265  1  0.75411121  0.87433372  0.00724898  1
  O  O266  1  0.74616269  0.86426068  0.50783360  1
  O  O267  1  0.11977474  0.49596660  0.24629799  1
  O  O268  1  0.13349148  0.49341654  0.75125447  1
  O  O269  1  0.13286295  0.99054556  0.25146042  1
  O  O270  1  0.13043375  0.98729885  0.74239194  1
  O  O271  1  0.62838458  0.50940022  0.24306845  1
  O  O272  1  0.63264340  0.49274504  0.74133619  1
  O  O273  1  0.63761619  0.99394933  0.25242750  1
  O  O274  1  0.63169356  0.98985058  0.74334325  1
  O  O275  1  0.36472207  0.00183360  0.25094391  1
  O  O276  1  0.37493268  0.00628633  0.75411246  1
  O  O277  1  0.35818487  0.50802498  0.25885169  1
  O  O278  1  0.37105545  0.50805485  0.75731729  1
  O  O279  1  0.86038908  0.00756508  0.25171417  1
  O  O280  1  0.87141357  0.00066627  0.75802157  1
  O  O281  1  0.86612180  0.50456247  0.25694276  1
  O  O282  1  0.87141324  0.51159643  0.74240480  1
  O  O283  1  0.11710581  0.36800636  0.36939841  1
  O  O284  1  0.11875165  0.38139509  0.86369201  1
  O  O285  1  0.11929468  0.86503668  0.36523708  1
  O  O286  1  0.11974772  0.88018807  0.86598763  1
  O  O287  1  0.61429158  0.35586539  0.37339707  1
  O  O288  1  0.61898700  0.38259980  0.86063708  1
  O  O289  1  0.61908455  0.86387066  0.36220551  1
  O  O290  1  0.62129407  0.87501036  0.86659990  1
  O  O291  1  0.37891895  0.12398178  0.13848809  1
  O  O292  1  0.38588299  0.11890926  0.63710072  1
  O  O293  1  0.36459581  0.63543416  0.11746946  1
  O  O294  1  0.38509776  0.63438687  0.62895594  1
  O  O295  1  0.88358564  0.12797237  0.13426027  1
  O  O296  1  0.88224615  0.13692575  0.62847655  1
  O  O297  1  0.86748660  0.63787773  0.13028737  1
  O  O298  1  0.87137745  0.63763461  0.63461379  1
  O  O299  1  0.24272797  0.26131213  0.12059038  1
  O  O300  1  0.24362288  0.25782605  0.61628788  1
  O  O301  1  0.26123694  0.75762913  0.13103984  1
  O  O302  1  0.26065233  0.75663534  0.61659817  1
  O  O303  1  0.74840859  0.26006026  0.11463173  1
  O  O304  1  0.75802916  0.25341467  0.62154768  1
  O  O305  1  0.75785817  0.76214711  0.12641468  1
  O  O306  1  0.75829999  0.75609278  0.61596155  1
  O  O307  1  0.24099736  0.24382819  0.38339495  1
  O  O308  1  0.24828826  0.24614911  0.87751366  1
  O  O309  1  0.24233686  0.75631427  0.38247625  1
  O  O310  1  0.25479474  0.73666246  0.87392137  1
  O  O311  1  0.74322967  0.25444278  0.38536235  1
  O  O312  1  0.75707499  0.25180101  0.88722358  1
  O  O313  1  0.74248137  0.75443032  0.38181755  1
  O  O314  1  0.74929982  0.73763473  0.87625413  1
  O  O315  1  -0.00181638  0.11939514  0.01431747  1
  O  O316  1  0.00777612  0.11893123  0.50408949  1
  O  O317  1  -0.00451187  0.60997001  -0.00709933  1
  O  O318  1  -0.00389360  0.60930009  0.49682055  1
  O  O319  1  0.50798491  0.11857913  0.00103857  1
  O  O320  1  0.50011185  0.11605341  0.50499779  1
  O  O321  1  0.51101136  0.61303379  -0.00931092  1
  O  O322  1  0.51301850  0.62773691  0.51395546  1
  O  O323  1  0.49604562  0.36995774  0.49104261  1
  O  O324  1  0.49931154  0.38782419  0.98767964  1
  O  O325  1  0.50498326  0.87773428  0.48192323  1
  O  O326  1  0.50342306  0.88306628  0.99193886  1
  O  O327  1  0.99846234  0.38267586  0.48989558  1
  O  O328  1  0.99333920  0.38081211  0.99667567  1
  O  O329  1  1.00731156  0.88528152  0.49115467  1
  O  O330  1  0.99000735  0.88259004  0.99784626  1
  O  O331  1  0.51961427  0.47373513  0.38104058  1
  O  O332  1  0.49621531  0.49308602  0.87621071  1
  O  O333  1  0.50457959  0.98580556  0.37903284  1
  O  O334  1  0.49455372  0.99014148  0.87820234  1
  O  O335  1  0.98931782  0.49374833  0.38529129  1
  O  O336  1  1.00505694  0.48757242  0.88654366  1
  O  O337  1  1.00518340  0.98984370  0.38387727  1
  O  O338  1  0.98653055  0.99455649  0.88282737  1
  O  O339  1  -0.00728538  0.00808362  0.12139552  1
  O  O340  1  0.00170157  0.00631973  0.61706239  1
  O  O341  1  0.00854545  0.49683239  0.11973397  1
  O  O342  1  -0.00308271  0.49128816  0.60883838  1
  O  O343  1  0.49536864  -0.00202987  0.11410975  1
  O  O344  1  0.50566845  0.00407373  0.61552356  1
  O  O345  1  0.51271879  0.49854251  0.11572793  1
  O  O346  1  0.50620388  0.51140353  0.62671456  1
  O  O347  1  0.23850328  0.38798683  0.25332408  1
  O  O348  1  0.24529241  0.38061007  0.74776477  1
  O  O349  1  0.24308238  0.88037927  0.24665602  1
  O  O350  1  0.24526388  0.87774539  0.74012875  1
  O  O351  1  0.75242115  0.38642244  0.23958035  1
  O  O352  1  0.74472644  0.37702886  0.74534349  1
  O  O353  1  0.74400088  0.88583050  0.24595629  1
  O  O354  1  0.74613013  0.87880800  0.74228731  1
  O  O355  1  0.25802566  0.11769356  0.25458422  1
  O  O356  1  0.25993404  0.11794765  0.74886390  1
  O  O357  1  0.24063825  0.61496987  0.25938881  1
  O  O358  1  0.25696890  0.61881512  0.75522205  1
  O  O359  1  0.75893370  0.11089790  0.24687045  1
  O  O360  1  0.75161440  0.11573842  0.75092206  1
  O  O361  1  0.75438391  0.61160469  0.24589430  1
  O  O362  1  0.75860885  0.62136411  0.75543003  1
  O  O363  1  0.36283574  0.12881800  0.36417074  1
  O  O364  1  0.38257850  0.11493669  0.86003874  1
  O  O365  1  0.44167797  0.59975685  0.38467889  1
  O  O366  1  0.36856811  0.62217108  0.86830823  1
  O  O367  1  0.87982595  0.12575005  0.36282011  1
  O  O368  1  0.87221909  0.11710435  0.87558654  1
  O  O369  1  0.87288650  0.61113007  0.37007215  1
  O  O370  1  0.86856650  0.62916535  0.86352091  1
  O  O371  1  0.11608881  0.38399019  0.14240406  1
  O  O372  1  0.13461340  0.38055263  0.63771645  1
  O  O373  1  0.13031938  0.87317086  0.13950617  1
  O  O374  1  0.13580520  0.87368698  0.63078042  1
  O  O375  1  0.62515378  0.37774148  0.13292347  1
  O  O376  1  0.62822500  0.37797527  0.63305118  1
  O  O377  1  0.63196888  0.86946068  0.13737429  1
  O  O378  1  0.63509891  0.87788896  0.63010006  1
  O  O379  1  0.12927790  0.25787397  0.26317834  1
  O  O380  1  0.11343799  0.25715972  0.74665675  1
  O  O381  1  0.11660855  0.75450923  0.25525495  1
  O  O382  1  0.12140483  0.76066121  0.75300246  1
  O  O383  1  0.63338087  0.24975700  0.25208337  1
  O  O384  1  0.61460535  0.25770719  0.74569359  1
  O  O385  1  0.61751019  0.75583552  0.25252231  1
  O  O386  1  0.62685400  0.76270519  0.74984539  1
  O  O387  1  0.36809488  0.24079565  0.24986233  1
  O  O388  1  0.39083589  0.24231566  0.75122843  1
  O  O389  1  0.38653228  0.74838728  0.23915985  1
  O  O390  1  0.37963399  0.74542983  0.73945623  1
  O  O391  1  0.86333456  0.23268992  0.24926603  1
  O  O392  1  0.88704840  0.25078476  0.74338883  1
  O  O393  1  0.87841690  0.74470355  0.24554429  1
  O  O394  1  0.88433450  0.74197869  0.74223230  1
  O  O395  1  0.38327377  0.49905504  0.50482622  1
  O  O396  1  0.38666425  0.50966014  0.98205790  1
  O  O397  1  0.38751968  0.99907580  0.50172551  1
  O  O398  1  0.38518796  0.99871885  0.99076071  1
  O  O399  1  0.87961048  0.49753428  0.49442684  1
  O  O400  1  0.88094002  0.48737632  1.01092899  1
  O  O401  1  0.88686277  1.00334790  0.50186071  1
  O  O402  1  0.87928613  0.99619978  0.99479244  1
  O  O403  1  0.10411003  -0.00597134  0.01451856  1
  O  O404  1  0.12209620  0.01306467  0.49913391  1
  O  O405  1  0.11610621  0.50510029  0.01571216  1
  O  O406  1  0.10893530  0.50054119  0.50019034  1
  O  O407  1  0.61608429  0.01003918  -0.00165079  1
  O  O408  1  0.61691354  -0.00133960  0.50420656  1
  O  O409  1  0.62047863  0.50477440  0.00623853  1
  O  O410  1  0.62271790  0.51010380  0.50313623  1
  O  O411  1  0.36556300  0.42185094  0.11341220  1
  O  O412  1  0.36013971  0.37699235  0.62576046  1
  O  O413  1  0.36269131  0.86640002  0.12088806  1
  O  O414  1  0.36978416  0.86464763  0.62908047  1
  O  O415  1  0.86479239  0.37295309  0.12214356  1
  O  O416  1  0.86948453  0.36332106  0.62447329  1
  O  O417  1  0.86707347  0.86697885  0.12221728  1
  O  O418  1  0.86502292  0.86289526  0.63011949  1
  O  O419  1  0.13146086  0.13163821  0.37872229  1
  O  O420  1  0.13727497  0.08024816  0.88623657  1
  O  O421  1  0.11564353  0.63964259  0.38209325  1
  O  O422  1  0.14258278  0.62614023  0.87590917  1
  O  O423  1  0.61708735  0.13844968  0.37167638  1
  O  O424  1  0.62887980  0.11960198  0.88960899  1
  O  O425  1  0.61891388  0.63801565  0.38279754  1
  O  O426  1  0.63401087  0.62562432  0.88410610  1
