# generated using pymatgen
data_V85Zn86O256
_symmetry_space_group_name_H-M   'P 1'
_cell_length_a   16.92741438
_cell_length_b   16.94192356
_cell_length_c   16.94906435
_cell_angle_alpha   90.05671309
_cell_angle_beta   89.94574468
_cell_angle_gamma   90.02189942
_symmetry_Int_Tables_number   1
_chemical_formula_structural   V85Zn86O256
_chemical_formula_sum   'V85 Zn86 O256'
_cell_volume   4860.69793904
_cell_formula_units_Z   1
loop_
 _symmetry_equiv_pos_site_id
 _symmetry_equiv_pos_as_xyz
  1  'x, y, z'
loop_
 _atom_site_type_symbol
 _atom_site_label
 _atom_site_symmetry_multiplicity
 _atom_site_fract_x
 _atom_site_fract_y
 _atom_site_fract_z
 _atom_site_occupancy
  V  V0  1  0.87034322  0.01243148  0.38342634  1
  V  V1  1  0.25041466  0.86634795  0.62098181  1
  V  V2  1  0.12435659  0.37527137  0.25049629  1
  V  V3  1  0.49337969  0.87372908  0.88136975  1
  V  V4  1  0.25160528  0.12308659  0.87615025  1
  V  V5  1  -0.00224028  0.49251768  -0.00306046  1
  V  V6  1  0.24920729  0.37659411  0.12461504  1
  V  V7  1  0.86617769  0.12530121  0.25056107  1
  V  V8  1  0.00264752  0.87401894  0.37964566  1
  V  V9  1  0.38257979  0.61858843  0.74567959  1
  V  V10  1  -0.00085846  0.37271008  0.85978798  1
  V  V11  1  0.86892958  0.50180603  0.37682447  1
  V  V12  1  0.74242620  0.86421670  0.12287456  1
  V  V13  1  0.11988769  0.50429156  0.12600280  1
  V  V14  1  0.37958413  0.49045749  0.87403580  1
  V  V15  1  0.49775553  0.49530247  0.00046576  1
  V  V16  1  0.13263112  0.74998101  0.37310754  1
  V  V17  1  0.61355452  0.24863803  0.87504576  1
  V  V18  1  0.88446361  0.74734489  0.11517103  1
  V  V19  1  0.87194341  0.12877139  0.74680385  1
  V  V20  1  0.87005438  0.75270806  0.62921377  1
  V  V21  1  0.62918864  0.88054842  0.75232875  1
  V  V22  1  0.88063098  0.62603199  0.24702797  1
  V  V23  1  0.62739716  -0.00103046  0.13390937  1
  V  V24  1  0.62910447  0.12497569  0.00130105  1
  V  V25  1  0.26624842  0.87435028  0.12092478  1
  V  V26  1  0.62477027  0.12807814  0.50086681  1
  V  V27  1  0.25012407  0.62246986  0.87420355  1
  V  V28  1  0.26378032  0.25555851  0.49776509  1
  V  V29  1  -0.00022275  0.50019285  0.50071236  1
  V  V30  1  0.12517864  0.74843616  0.87643159  1
  V  V31  1  0.75127631  0.24816202  0.50119539  1
  V  V32  1  0.86877841  0.61236310  0.75319845  1
  V  V33  1  0.37629479  -0.00102118  0.37623349  1
  V  V34  1  0.37364392  0.12642341  0.25159297  1
  V  V35  1  -0.00063830  0.74799206  0.75118131  1
  V  V36  1  0.50949945  0.74830017  0.24204565  1
  V  V37  1  0.49954694  0.00232245  0.50604630  1
  V  V38  1  -0.00189647  0.62534611  0.62658209  1
  V  V39  1  0.62464149  0.00806010  0.63165974  1
  V  V40  1  0.12014777  0.62689136  0.00353493  1
  V  V41  1  0.49741225  0.24234921  0.73178676  1
  V  V42  1  -0.00450434  0.12525486  0.12374076  1
  V  V43  1  0.12273137  -0.00280872  0.12434798  1
  V  V44  1  0.00005661  0.37508512  0.37735169  1
  V  V45  1  0.25594830  0.62599946  0.37631297  1
  V  V46  1  0.75144760  0.60625778  0.87342580  1
  V  V47  1  -0.00406843  -0.00000598  -0.00388083  1
  V  V48  1  0.26278086  0.37488835  0.61714944  1
  V  V49  1  0.63706114  0.74976871  0.87724858  1
  V  V50  1  0.86789823  0.26199279  0.11552753  1
  V  V51  1  0.13001226  0.63137692  0.50142499  1
  V  V52  1  0.62913289  0.62779659  0.00401010  1
  V  V53  1  0.12492968  0.49393791  0.62624157  1
  V  V54  1  0.24786173  -0.00055139  0.24934216  1
  V  V55  1  0.12575949  -0.00132188  0.61625702  1
  V  V56  1  0.50062019  0.25824451  0.25138402  1
  V  V57  1  0.49949532  0.12511881  0.12417011  1
  V  V58  1  0.74841439  0.38363470  0.63349027  1
  V  V59  1  0.62650397  0.63976281  0.50065138  1
  V  V60  1  0.51937922  0.86896184  0.37060920  1
  V  V61  1  0.62915257  0.24999722  0.37555590  1
  V  V62  1  0.01210798  0.13357420  0.62697962  1
  V  V63  1  0.75058639  0.49575608  0.24579806  1
  V  V64  1  0.12325257  0.24643436  0.38238588  1
  V  V65  1  0.12536055  0.25288571  0.85128139  1
  V  V66  1  0.24741272  0.49201221  0.75011444  1
  V  V67  1  -0.00119591  0.87590690  0.87458523  1
  V  V68  1  0.75596912  0.88290843  0.63145018  1
  V  V69  1  0.37357349  0.25212169  0.12463217  1
  V  V70  1  0.50362762  0.74860804  0.74598386  1
  V  V71  1  0.24350471  0.25044276  0.00021213  1
  V  V72  1  0.82086103  0.81835639  0.45176791  1
  V  V73  1  -0.00232168  0.24931333  0.25049426  1
  V  V74  1  0.86443669  0.00130016  0.86918558  1
  V  V75  1  0.61868743  0.38108937  0.75302376  1
  V  V76  1  0.25223782  -0.00285596  0.75151227  1
  V  V77  1  0.24405320  0.12366676  0.38162205  1
  V  V78  1  0.37719602  0.74437110  0.62264976  1
  V  V79  1  0.26491644  0.75122965  0.00312498  1
  V  V80  1  0.12545545  0.87202624  0.74937465  1
  V  V81  1  0.87282040  0.37505419  0.50302655  1
  V  V82  1  0.38283461  0.49469851  0.37703550  1
  V  V83  1  0.62557525  0.49523062  0.12679706  1
  V  V84  1  0.37531221  0.86592542  0.49555478  1
  Zn  Zn85  1  0.37534242  0.63348943  0.24586025  1
  Zn  Zn86  1  0.48725388  0.63034260  0.11970855  1
  Zn  Zn87  1  0.86809444  0.87119742  -0.00392711  1
  Zn  Zn88  1  0.74623350  -0.00010953  0.25375140  1
  Zn  Zn89  1  0.74872529  0.63869433  0.37842838  1
  Zn  Zn90  1  0.50147022  0.50412308  0.51537040  1
  Zn  Zn91  1  0.49326280  -0.00758775  0.00728632  1
  Zn  Zn92  1  0.12369177  0.87248316  0.24745643  1
  Zn  Zn93  1  0.38016596  0.12482474  0.73694921  1
  Zn  Zn94  1  0.37260757  -0.00350066  0.88013745  1
  Zn  Zn95  1  -0.00163444  0.00098930  0.50291337  1
  Zn  Zn96  1  0.61702892  0.51314305  0.62867663  1
  Zn  Zn97  1  0.00387354  0.74817472  0.24677684  1
  Zn  Zn98  1  0.62948535  0.37656852  0.25120509  1
  Zn  Zn99  1  0.37872251  0.37113444  -0.00470206  1
  Zn  Zn100  1  0.74865747  0.26307039  -0.00433168  1
  Zn  Zn101  1  0.25241004  0.50519529  0.24880330  1
  Zn  Zn102  1  0.88060557  0.25235163  0.62972405  1
  Zn  Zn103  1  0.74417594  0.12330938  0.86738399  1
  Zn  Zn104  1  0.83901366  0.42616162  0.94776364  1
  Zn  Zn105  1  0.49871440  0.37423796  0.38801888  1
  Zn  Zn106  1  0.11997562  0.12723049  -0.00345681  1
  Zn  Zn107  1  0.18368324  0.18587423  0.18963026  1
  Zn  Zn108  1  0.21685206  0.17516041  0.67174926  1
  Zn  Zn109  1  0.19188864  0.68954330  0.18615116  1
  Zn  Zn110  1  0.19071119  0.68283993  0.68833584  1
  Zn  Zn111  1  0.68824555  0.18973928  0.18632450  1
  Zn  Zn112  1  0.68913868  0.19095915  0.68779934  1
  Zn  Zn113  1  0.68559118  0.68415129  0.19314636  1
  Zn  Zn114  1  0.69070523  0.68911853  0.68685674  1
  Zn  Zn115  1  0.31202946  0.31501405  0.31229651  1
  Zn  Zn116  1  0.31274470  0.31110776  0.80602613  1
  Zn  Zn117  1  0.31608967  0.81164556  0.30709917  1
  Zn  Zn118  1  0.31267769  0.80682423  0.81156450  1
  Zn  Zn119  1  0.81194845  0.31279580  0.31339379  1
  Zn  Zn120  1  0.80720785  0.30340487  0.81220924  1
  Zn  Zn121  1  0.81352233  0.81676655  0.28813593  1
  Zn  Zn122  1  0.81288023  0.81196085  0.81122751  1
  Zn  Zn123  1  0.19039134  0.44159155  0.43756787  1
  Zn  Zn124  1  0.18321173  0.43435611  0.93613804  1
  Zn  Zn125  1  0.19061443  0.93307695  0.43817345  1
  Zn  Zn126  1  0.18699577  0.93503303  0.94098490  1
  Zn  Zn127  1  0.68028315  0.43931162  0.44321909  1
  Zn  Zn128  1  0.67322267  0.43371963  0.93795398  1
  Zn  Zn129  1  0.68866565  0.94720096  0.44062026  1
  Zn  Zn130  1  0.68332647  0.93846872  0.94516919  1
  Zn  Zn131  1  0.31321078  0.06062278  0.05983213  1
  Zn  Zn132  1  0.31316583  0.05964473  0.56151441  1
  Zn  Zn133  1  0.31106390  0.56437084  0.06248567  1
  Zn  Zn134  1  0.31461434  0.56242111  0.55851890  1
  Zn  Zn135  1  0.81070987  0.06163111  0.06208178  1
  Zn  Zn136  1  0.81063375  0.06622384  0.56640242  1
  Zn  Zn137  1  0.80932702  0.56743634  0.06367988  1
  Zn  Zn138  1  0.80263479  0.56740281  0.56149471  1
  Zn  Zn139  1  0.43506407  0.44543700  0.18927946  1
  Zn  Zn140  1  0.44276392  0.43316908  0.68301075  1
  Zn  Zn141  1  0.44120351  0.93689939  0.19373465  1
  Zn  Zn142  1  0.43835313  0.93439554  0.68932325  1
  Zn  Zn143  1  0.93931162  0.43934284  0.18797681  1
  Zn  Zn144  1  0.93796823  0.43536614  0.68839520  1
  Zn  Zn145  1  0.93388974  0.93462161  0.19036590  1
  Zn  Zn146  1  0.93941181  0.94169958  0.69016229  1
  Zn  Zn147  1  0.05772590  0.06098912  0.31197501  1
  Zn  Zn148  1  0.06435634  0.06526113  0.80728015  1
  Zn  Zn149  1  0.06248085  0.56321307  0.31300681  1
  Zn  Zn150  1  0.06130507  0.55927677  0.81258218  1
  Zn  Zn151  1  0.56128596  0.06701814  0.31597672  1
  Zn  Zn152  1  0.55759097  0.06311753  0.81324154  1
  Zn  Zn153  1  0.56675212  0.57180459  0.31861391  1
  Zn  Zn154  1  0.56163284  0.56178964  0.81380372  1
  Zn  Zn155  1  0.44150695  0.18559537  0.43777624  1
  Zn  Zn156  1  0.43369789  0.18336276  0.93739641  1
  Zn  Zn157  1  0.44636334  0.68523675  0.43486604  1
  Zn  Zn158  1  0.44311643  0.68152248  0.93156393  1
  Zn  Zn159  1  0.94087837  0.18556376  0.44580242  1
  Zn  Zn160  1  0.93930810  0.19101303  0.93201980  1
  Zn  Zn161  1  0.94533902  0.68229913  0.43263349  1
  Zn  Zn162  1  0.93669484  0.68132995  0.93640471  1
  Zn  Zn163  1  0.05865398  0.31460787  0.06026426  1
  Zn  Zn164  1  0.06825927  0.31163724  0.56312006  1
  Zn  Zn165  1  0.06357725  0.81498372  0.05916028  1
  Zn  Zn166  1  0.05844688  0.81224981  0.55983052  1
  Zn  Zn167  1  0.56414479  0.31478283  0.06263432  1
  Zn  Zn168  1  0.56040102  0.32045360  0.56273264  1
  Zn  Zn169  1  0.56505758  0.81033016  0.06211000  1
  Zn  Zn170  1  0.56385324  0.81582259  0.56403107  1
  O  O171  1  0.11228878  0.11510466  0.12534636  1
  O  O172  1  0.11836105  0.11491334  0.63221483  1
  O  O173  1  0.13004470  0.61607703  0.11657834  1
  O  O174  1  0.12189235  0.61947355  0.61756851  1
  O  O175  1  0.61775358  0.12196583  0.12087922  1
  O  O176  1  0.62947589  0.11350485  0.62132256  1
  O  O177  1  0.62378956  0.61796791  0.11642172  1
  O  O178  1  0.63751727  0.62681095  0.61199552  1
  O  O179  1  0.37485942  0.39072195  0.37027483  1
  O  O180  1  0.36612044  0.38694221  0.87577650  1
  O  O181  1  0.37627613  0.88163974  0.38429614  1
  O  O182  1  0.39096858  0.87092592  0.86739940  1
  O  O183  1  0.88206855  0.38130071  0.38124876  1
  O  O184  1  0.89231344  0.36489461  0.86656240  1
  O  O185  1  0.87764931  0.87673847  0.38225098  1
  O  O186  1  0.87973351  0.88333984  0.87441277  1
  O  O187  1  0.25342928  0.00677381  0.37131170  1
  O  O188  1  0.24786869  0.00411323  0.86990694  1
  O  O189  1  0.25794667  0.50947342  0.37270525  1
  O  O190  1  0.25215996  0.50220153  0.86621845  1
  O  O191  1  0.76626304  -0.00312691  0.37222049  1
  O  O192  1  0.76121879  0.00261789  0.88285825  1
  O  O193  1  0.76314423  0.49554351  0.37166052  1
  O  O194  1  0.75191087  0.50513414  0.87969730  1
  O  O195  1  0.23796932  0.49081587  0.12384728  1
  O  O196  1  0.24649393  0.49254818  0.62721937  1
  O  O197  1  0.23960024  0.99663369  0.12701740  1
  O  O198  1  0.24414203  0.98457928  0.63312340  1
  O  O199  1  0.74107797  0.50752031  0.13481581  1
  O  O200  1  0.75129816  0.48508470  0.62668630  1
  O  O201  1  0.74205717  0.99417684  0.12615873  1
  O  O202  1  0.74145744  0.98982732  0.62092164  1
  O  O203  1  0.00386010  0.36883908  0.25789172  1
  O  O204  1  0.00749392  0.37918100  0.76067297  1
  O  O205  1  0.00049640  0.87378078  0.26442189  1
  O  O206  1  0.00654614  0.86843257  0.75504263  1
  O  O207  1  0.49994193  0.36374771  0.24926913  1
  O  O208  1  0.51350512  0.36149251  0.74449125  1
  O  O209  1  0.50220389  0.87138382  0.26470125  1
  O  O210  1  0.51052389  0.86803060  0.75739678  1
  O  O211  1  0.49579485  0.13614457  0.24150382  1
  O  O212  1  0.49739732  0.13598718  0.74809645  1
  O  O213  1  0.50172635  0.63912887  0.24935899  1
  O  O214  1  0.48960507  0.63355357  0.75663853  1
  O  O215  1  0.99123537  0.13063019  0.24188062  1
  O  O216  1  0.99192226  0.11924410  0.73488679  1
  O  O217  1  0.98574651  0.62451196  0.25359540  1
  O  O218  1  0.99392404  0.62972769  0.74525075  1
  O  O219  1  0.36174879  0.25058341  0.00432853  1
  O  O220  1  0.36311808  0.24854884  0.49187092  1
  O  O221  1  0.36322242  0.74083763  -0.00938923  1
  O  O222  1  0.38470514  0.75834262  0.50775496  1
  O  O223  1  0.87373337  0.24414653  0.01232180  1
  O  O224  1  0.86793234  0.25626517  0.50354522  1
  O  O225  1  0.87798687  0.74866244  0.01164237  1
  O  O226  1  0.88046969  0.75341959  0.50566543  1
  O  O227  1  0.13343851  0.25497301  0.48508004  1
  O  O228  1  0.13604137  0.24825445  1.00184430  1
  O  O229  1  0.12050178  0.73728138  0.49433354  1
  O  O230  1  0.12843810  0.74203858  0.99525200  1
  O  O231  1  0.62979265  0.24509278  0.49622844  1
  O  O232  1  0.62433191  0.24376927  0.99436617  1
  O  O233  1  0.62301585  0.74113404  0.50518895  1
  O  O234  1  0.61931435  0.73944354  0.98894985  1
  O  O235  1  0.49485102  0.24569613  0.13129501  1
  O  O236  1  0.50547529  0.24541939  0.63320864  1
  O  O237  1  0.50302712  0.75171573  0.13695921  1
  O  O238  1  0.49217494  0.75815324  0.63859843  1
  O  O239  1  0.99339423  0.24135950  0.12806809  1
  O  O240  1  1.00409811  0.23765354  0.62383333  1
  O  O241  1  0.98798131  0.75505991  0.12491630  1
  O  O242  1  0.98971490  0.74574105  0.62927524  1
  O  O243  1  0.00601907  0.25330157  0.37327801  1
  O  O244  1  0.01587249  0.25891366  0.87443559  1
  O  O245  1  0.01280402  0.75611073  0.37431511  1
  O  O246  1  0.00468864  0.75461645  0.87075446  1
  O  O247  1  0.50675735  0.25203726  0.36687109  1
  O  O248  1  0.51017643  0.24332956  0.87363037  1
  O  O249  1  0.50409660  0.76704338  0.37384791  1
  O  O250  1  0.50802103  0.75758772  0.86461494  1
  O  O251  1  0.24943157  0.13218375  0.48520271  1
  O  O252  1  0.24440378  0.13156900  0.99170559  1
  O  O253  1  0.24172276  0.62350697  0.48863098  1
  O  O254  1  0.23887583  0.62968925  0.99296799  1
  O  O255  1  0.73653086  0.13364976  0.50543286  1
  O  O256  1  0.73562071  0.12701677  1.00191267  1
  O  O257  1  0.74142845  0.63007773  0.49351088  1
  O  O258  1  0.73702816  0.62101357  0.99034008  1
  O  O259  1  0.24898037  0.36844800  0.01023902  1
  O  O260  1  0.25124661  0.37246087  0.50768240  1
  O  O261  1  0.24677438  0.86394079  0.00816451  1
  O  O262  1  0.26281410  0.87636575  0.50941965  1
  O  O263  1  0.75154355  0.37681750  -0.00637924  1
  O  O264  1  0.75427842  0.36992816  0.51224787  1
  O  O265  1  0.75273362  0.87959397  0.01625142  1
  O  O266  1  0.75505867  0.87528588  0.50757727  1
  O  O267  1  0.12566982  0.49494985  0.24250572  1
  O  O268  1  0.13715862  0.51089821  0.73831040  1
  O  O269  1  0.12954868  0.99925614  0.24137703  1
  O  O270  1  0.13392542  0.99011405  0.74311802  1
  O  O271  1  0.63321804  0.50327769  0.24449150  1
  O  O272  1  0.62246864  0.48434310  0.75235976  1
  O  O273  1  0.62555087  1.01112158  0.23811856  1
  O  O274  1  0.61928061  0.99302722  0.74303391  1
  O  O275  1  0.36857143  0.00666423  0.25643121  1
  O  O276  1  0.36281565  -0.00110122  0.75197396  1
  O  O277  1  0.37039906  0.50714185  0.26158042  1
  O  O278  1  0.36977151  0.50333039  0.75510753  1
  O  O279  1  0.87616812  0.00961283  0.26066499  1
  O  O280  1  0.87915825  0.01080972  0.76012576  1
  O  O281  1  0.87135310  0.50594613  0.25500256  1
  O  O282  1  0.87902240  0.51351425  0.74716411  1
  O  O283  1  0.12034868  0.37069711  0.36986927  1
  O  O284  1  0.12203501  0.35920512  0.87244656  1
  O  O285  1  0.12086737  0.86745953  0.37383736  1
  O  O286  1  0.11926156  0.86812388  0.87002480  1
  O  O287  1  0.62365389  0.36310246  0.37264344  1
  O  O288  1  0.62393178  0.36536124  0.85943746  1
  O  O289  1  0.61710780  0.88232762  0.37893379  1
  O  O290  1  0.62061070  0.86903801  0.87015860  1
  O  O291  1  0.38055884  0.13236307  0.13141863  1
  O  O292  1  0.32389429  0.13572637  0.63915447  1
  O  O293  1  0.37330263  0.62314662  0.13101738  1
  O  O294  1  0.36800803  0.63673394  0.63075754  1
  O  O295  1  0.88280092  0.12847322  0.13156165  1
  O  O296  1  0.88443396  0.12518346  0.63433376  1
  O  O297  1  0.86940834  0.64025904  0.13080872  1
  O  O298  1  0.87600166  0.63387711  0.63169104  1
  O  O299  1  0.25209735  0.25436488  0.11932877  1
  O  O300  1  0.23454975  0.27064955  0.60987988  1
  O  O301  1  0.24612031  0.76285485  0.11537815  1
  O  O302  1  0.25828006  0.75964779  0.63140328  1
  O  O303  1  0.76482863  0.24927815  0.12360265  1
  O  O304  1  0.75152882  0.25886913  0.61489225  1
  O  O305  1  0.75570302  0.76023932  0.13066271  1
  O  O306  1  0.76358482  0.76382161  0.63000369  1
  O  O307  1  0.24331862  0.24509000  0.37785336  1
  O  O308  1  0.24139158  0.24530967  0.87927476  1
  O  O309  1  0.23941517  0.74666020  0.37323807  1
  O  O310  1  0.24350825  0.74404476  0.88051975  1
  O  O311  1  0.74433315  0.25605247  0.39007855  1
  O  O312  1  0.73361248  0.24156950  0.87570258  1
  O  O313  1  0.76813985  0.76438164  0.38362351  1
  O  O314  1  0.73904588  0.74763248  0.87257785  1
  O  O315  1  -0.00067496  0.11907248  0.00709472  1
  O  O316  1  -0.00100519  0.12005174  0.52085764  1
  O  O317  1  0.01499174  0.61514000  -0.00977991  1
  O  O318  1  0.00639930  0.61827014  0.50765538  1
  O  O319  1  0.50647738  0.12922476  0.01466566  1
  O  O320  1  0.51038681  0.11485856  0.49791377  1
  O  O321  1  0.51087268  0.61618505  -0.00138737  1
  O  O322  1  0.51788238  0.62158514  0.49414374  1
  O  O323  1  0.50286583  0.38830157  0.50000621  1
  O  O324  1  0.49744294  0.38938939  1.00365517  1
  O  O325  1  0.49528498  0.88259193  0.49058384  1
  O  O326  1  0.50438739  0.87156981  0.98416522  1
  O  O327  1  0.99400505  0.38033789  0.49784504  1
  O  O328  1  1.00355889  0.38298827  0.98710882  1
  O  O329  1  1.00256641  0.87991816  0.48648823  1
  O  O330  1  0.99517276  0.88376247  0.99237565  1
  O  O331  1  0.48819910  0.49896700  0.36687788  1
  O  O332  1  0.48962870  0.50360300  0.88355961  1
  O  O333  1  0.49553246  0.99282637  0.38267345  1
  O  O334  1  0.49964555  0.98205428  0.87316385  1
  O  O335  1  0.99037476  0.49605086  0.38077790  1
  O  O336  1  1.00973932  0.48231386  0.88081622  1
  O  O337  1  0.98855405  0.99360885  0.37836247  1
  O  O338  1  0.99623028  0.99703991  0.88072361  1
  O  O339  1  0.00144305  0.00456321  0.11819120  1
  O  O340  1  0.01137547  0.00410993  0.62418447  1
  O  O341  1  0.01306443  0.49261408  0.11586369  1
  O  O342  1  0.00714247  0.50598041  0.62152897  1
  O  O343  1  0.50584878  0.00918918  0.12861673  1
  O  O344  1  0.50780583  -0.00836706  0.61419185  1
  O  O345  1  0.50614758  0.50596311  0.11861327  1
  O  O346  1  0.50118604  0.50985311  0.63233224  1
  O  O347  1  0.24336671  0.37474188  0.23763041  1
  O  O348  1  0.25115063  0.38516093  0.73700372  1
  O  O349  1  0.24791022  0.88211547  0.24032718  1
  O  O350  1  0.24544731  0.87767126  0.74526333  1
  O  O351  1  0.75166789  0.39077502  0.25326306  1
  O  O352  1  0.73874024  0.36509622  0.73974324  1
  O  O353  1  0.74991796  0.88481994  0.22953272  1
  O  O354  1  0.73817407  0.87429570  0.74531294  1
  O  O355  1  0.25379388  0.12032415  0.25802672  1
  O  O356  1  0.23825172  0.10917614  0.76565746  1
  O  O357  1  0.24773804  0.62630989  0.26480011  1
  O  O358  1  0.26208184  0.61479337  0.75292504  1
  O  O359  1  0.76301347  0.12411940  0.24707372  1
  O  O360  1  0.76604357  0.12402125  0.74652551  1
  O  O361  1  0.76154899  0.61742131  0.25759560  1
  O  O362  1  0.75753466  0.62764244  0.76007408  1
  O  O363  1  0.36816877  0.11867012  0.36982556  1
  O  O364  1  0.36046150  0.12552437  0.86723312  1
  O  O365  1  0.36837860  0.62167087  0.37316629  1
  O  O366  1  0.36903556  0.61443250  0.86493332  1
  O  O367  1  0.88216200  0.11794072  0.36827077  1
  O  O368  1  0.87636145  0.11972359  0.86321573  1
  O  O369  1  0.87305240  0.61756997  0.36904978  1
  O  O370  1  0.86289360  0.63036268  0.86569569  1
  O  O371  1  0.12990693  0.37973089  0.13036608  1
  O  O372  1  0.13026621  0.39136913  0.61826937  1
  O  O373  1  0.12568877  0.88829635  0.12496979  1
  O  O374  1  0.13178775  0.87640422  0.62814168  1
  O  O375  1  0.62120429  0.39054229  0.12970461  1
  O  O376  1  0.63611494  0.37500081  0.63680072  1
  O  O377  1  0.63442804  0.88266759  0.12010367  1
  O  O378  1  0.63219142  0.88421796  0.63344240  1
  O  O379  1  0.11754868  0.25572937  0.25797235  1
  O  O380  1  0.13665352  0.24512155  0.75520454  1
  O  O381  1  0.12207498  0.75103600  0.25796664  1
  O  O382  1  0.12024008  0.75189013  0.75472527  1
  O  O383  1  0.61977210  0.25085625  0.25745563  1
  O  O384  1  0.61468215  0.25246984  0.75497682  1
  O  O385  1  0.61177999  0.74989883  0.25291869  1
  O  O386  1  0.61924023  0.75693089  0.75525887  1
  O  O387  1  0.38138628  0.24554933  0.24637427  1
  O  O388  1  0.39465860  0.25192204  0.75309987  1
  O  O389  1  0.39787492  0.75117393  0.26041996  1
  O  O390  1  0.38242711  0.74077039  0.74334646  1
  O  O391  1  0.87934125  0.24402243  0.24327192  1
  O  O392  1  0.87760160  0.23369278  0.74886692  1
  O  O393  1  0.88151356  0.74232853  0.23830383  1
  O  O394  1  0.88148910  0.74411981  0.74341211  1
  O  O395  1  0.37852567  0.50946857  0.48093601  1
  O  O396  1  0.37971386  0.49938644  0.99034953  1
  O  O397  1  0.38267409  0.99243274  0.49828617  1
  O  O398  1  0.38227121  1.00720175  0.99290916  1
  O  O399  1  0.87851140  0.49615411  0.49440890  1
  O  O400  1  0.89259056  0.51050321  1.00324473  1
  O  O401  1  0.87471843  1.00787495  0.48725470  1
  O  O402  1  0.88476520  1.00188722  0.99180811  1
  O  O403  1  0.11242872  0.00256580  0.00571750  1
  O  O404  1  0.12849803  -0.00410254  0.51348129  1
  O  O405  1  0.11942504  0.50575747  0.00604956  1
  O  O406  1  0.12008066  0.51125697  0.50469006  1
  O  O407  1  0.61625398  0.00878860  0.01224103  1
  O  O408  1  0.61886737  0.00908236  0.50719860  1
  O  O409  1  0.61567440  0.50674231  0.00687566  1
  O  O410  1  0.62676176  0.51189512  0.50826343  1
  O  O411  1  0.36521533  0.37045998  0.12393470  1
  O  O412  1  0.36092285  0.37461940  0.62607841  1
  O  O413  1  0.36519095  0.88439207  0.12531805  1
  O  O414  1  0.36978107  0.86481115  0.61987004  1
  O  O415  1  0.88311809  0.35968740  0.12631681  1
  O  O416  1  0.86595932  0.37189470  0.62449367  1
  O  O417  1  0.86756700  0.86215992  0.12296282  1
  O  O418  1  0.86773162  0.87038796  0.63313290  1
  O  O419  1  0.13141686  0.13407862  0.36675818  1
  O  O420  1  0.12865809  0.13782620  0.87612683  1
  O  O421  1  0.13025270  0.63087652  0.38218889  1
  O  O422  1  0.13157180  0.62915904  0.87932004  1
  O  O423  1  0.62216962  0.13900321  0.38469836  1
  O  O424  1  0.62302497  0.12680915  0.88493621  1
  O  O425  1  0.63482333  0.62655008  0.38918322  1
  O  O426  1  0.63339723  0.63057225  0.87795770  1
