# generated using pymatgen
data_V85Zn86O256
_symmetry_space_group_name_H-M   'P 1'
_cell_length_a   16.94147571
_cell_length_b   16.94474151
_cell_length_c   16.94053065
_cell_angle_alpha   90.01367684
_cell_angle_beta   90.03279796
_cell_angle_gamma   89.94398004
_symmetry_Int_Tables_number   1
_chemical_formula_structural   V85Zn86O256
_chemical_formula_sum   'V85 Zn86 O256'
_cell_volume   4863.09669120
_cell_formula_units_Z   1
loop_
 _symmetry_equiv_pos_site_id
 _symmetry_equiv_pos_as_xyz
  1  'x, y, z'
loop_
 _atom_site_type_symbol
 _atom_site_label
 _atom_site_symmetry_multiplicity
 _atom_site_fract_x
 _atom_site_fract_y
 _atom_site_fract_z
 _atom_site_occupancy
  V  V0  1  0.74735163  0.49780280  0.24914578  1
  V  V1  1  0.62348026  0.50132658  0.62471313  1
  V  V2  1  -0.00597939  0.00612981  0.00469363  1
  V  V3  1  0.12360373  0.49820660  0.63105671  1
  V  V4  1  0.63021175  0.88102524  0.75374275  1
  V  V5  1  0.11252358  0.61271224  0.00214050  1
  V  V6  1  -0.00022635  0.12683615  0.62816565  1
  V  V7  1  0.88609826  0.49144703  0.87448626  1
  V  V8  1  0.74749020  0.37452921  0.12633175  1
  V  V9  1  0.49835875  0.87103584  0.86804193  1
  V  V10  1  0.75155398  0.50669656  0.75196601  1
  V  V11  1  0.88592039  0.37408579  -0.00252492  1
  V  V12  1  -0.00130202  0.74567049  0.23820426  1
  V  V13  1  0.38085962  0.75277843  0.63530808  1
  V  V14  1  0.23685010  0.75138914  -0.00188107  1
  V  V15  1  0.86843298  0.12438165  0.74972004  1
  V  V16  1  0.62052383  0.12567460  0.00567250  1
  V  V17  1  0.74960185  0.62045489  0.87966766  1
  V  V18  1  0.24531301  0.63088434  0.87378036  1
  V  V19  1  0.25085598  0.24280879  -0.00182653  1
  V  V20  1  0.37700909  0.12768112  0.74881889  1
  V  V21  1  0.61753715  0.75346244  0.37582963  1
  V  V22  1  0.12379361  0.62631985  0.50473401  1
  V  V23  1  0.50192239  0.62885913  0.63412462  1
  V  V24  1  0.62447169  0.62882322  0.49993047  1
  V  V25  1  0.00476507  0.87146265  0.87101985  1
  V  V26  1  0.62234096  0.74560125  0.87482876  1
  V  V27  1  0.37501636  0.50117791  0.87177539  1
  V  V28  1  0.74778954  0.12661137  0.38203673  1
  V  V29  1  0.12605379  -0.00029825  0.62624938  1
  V  V30  1  0.38474211  0.24566422  0.12776296  1
  V  V31  1  0.62101444  0.00139112  0.12622214  1
  V  V32  1  0.24804487  0.00568428  0.75508275  1
  V  V33  1  0.86895285  0.50433003  0.37596548  1
  V  V34  1  0.62380566  0.37506930  0.74950316  1
  V  V35  1  0.87750439  0.12329430  0.24626782  1
  V  V36  1  0.87624636  0.73939841  0.63633266  1
  V  V37  1  0.12307771  0.12383580  -0.01159847  1
  V  V38  1  0.37658699  0.86560114  0.00264659  1
  V  V39  1  0.74863471  0.73859573  0.00305458  1
  V  V40  1  0.00049353  0.26324807  0.75355598  1
  V  V41  1  0.37824287  0.38303142  0.48588595  1
  V  V42  1  0.25258539  0.87303654  0.12520614  1
  V  V43  1  0.87600601  0.86365286  0.00233721  1
  V  V44  1  0.38981989  0.12587112  0.24604792  1
  V  V45  1  0.37826347  0.62031577  0.23398893  1
  V  V46  1  0.60534855  0.36662567  0.24859228  1
  V  V47  1  0.74893777  -0.00093812  0.25045504  1
  V  V48  1  0.61918352  0.87386074  0.25335331  1
  V  V49  1  0.24396970  0.38011939  0.12553640  1
  V  V50  1  0.12593255  0.26778172  0.87111560  1
  V  V51  1  0.12684553  0.75015955  0.37476417  1
  V  V52  1  0.25004735  0.37614117  0.63263783  1
  V  V53  1  0.49374724  0.75033446  0.23679619  1
  V  V54  1  0.87548707  0.24405363  0.12431662  1
  V  V55  1  0.38422798  0.87406654  0.49637086  1
  V  V56  1  0.62107504  0.51057649  0.12330705  1
  V  V57  1  0.37133348  0.00640246  0.87771059  1
  V  V58  1  0.12654598  0.12699174  0.50052146  1
  V  V59  1  -0.00015617  0.37599251  0.37614319  1
  V  V60  1  0.49726506  0.00204513  0.00449688  1
  V  V61  1  0.74621277  0.26148738  0.49629634  1
  V  V62  1  0.12547194  0.25114222  0.37231386  1
  V  V63  1  0.25448758  0.75137157  0.49873984  1
  V  V64  1  0.25129937  0.87690467  0.62448110  1
  V  V65  1  0.75319343  0.86960407  0.12546073  1
  V  V66  1  -0.00195313  0.50494203  0.50544507  1
  V  V67  1  0.00166371  0.87210656  0.37515490  1
  V  V68  1  0.12122699  0.00848197  0.12592489  1
  V  V69  1  0.75009086  0.24699694  -0.00010811  1
  V  V70  1  0.62335119  0.24995008  0.87407022  1
  V  V71  1  0.87601947  -0.00122940  0.37513165  1
  V  V72  1  0.87668595  0.62588126  0.23262843  1
  V  V73  1  0.25110276  0.25323934  0.50033128  1
  V  V74  1  0.86822016  -0.00037910  0.87221356  1
  V  V75  1  0.87530293  0.87218698  0.50224267  1
  V  V76  1  0.50801801  0.00604344  0.50166520  1
  V  V77  1  0.25075978  0.00260773  0.25058977  1
  V  V78  1  0.37993117  -0.00319308  0.37480772  1
  V  V79  1  0.26379141  0.61806000  0.37720406  1
  V  V80  1  0.37783878  0.37502740  0.00051114  1
  V  V81  1  0.75344915  0.88231488  0.63143704  1
  V  V82  1  0.00271539  0.24529381  0.24605911  1
  V  V83  1  0.61018796  0.24640836  0.37432193  1
  V  V84  1  0.50201563  0.51603902  0.00373816  1
  Zn  Zn85  1  0.12048708  0.38631925  0.24549591  1
  Zn  Zn86  1  0.12731581  0.86816836  0.75717866  1
  Zn  Zn87  1  0.37826544  0.25307617  0.62439197  1
  Zn  Zn88  1  0.74886367  0.62942737  0.37291599  1
  Zn  Zn89  1  0.06587756  0.55210110  0.16164800  1
  Zn  Zn90  1  0.63119302  0.00525913  0.63060955  1
  Zn  Zn91  1  0.74874187  0.75240687  0.50001234  1
  Zn  Zn92  1  0.74511631  0.11925299  0.87031631  1
  Zn  Zn93  1  0.49088791  0.50288768  0.48779044  1
  Zn  Zn94  1  0.01988384  0.71793212  0.72950512  1
  Zn  Zn95  1  0.37727992  0.62804554  0.75337156  1
  Zn  Zn96  1  0.00153694  0.00130372  0.50011257  1
  Zn  Zn97  1  0.25105388  0.12644435  0.37359974  1
  Zn  Zn98  1  0.50700449  0.13205671  0.62030490  1
  Zn  Zn99  1  0.50043931  0.37803407  0.87501067  1
  Zn  Zn100  1  0.87260857  0.37685634  0.50124638  1
  Zn  Zn101  1  0.24727280  0.49793853  0.75322814  1
  Zn  Zn102  1  0.49932652  0.25104601  0.74765151  1
  Zn  Zn103  1  0.75028663  0.37606435  0.62414588  1
  Zn  Zn104  1  0.12459521  0.87449574  0.24777199  1
  Zn  Zn105  1  0.87268550  0.25283914  0.62211867  1
  Zn  Zn106  1  0.24613790  0.50305081  0.24849018  1
  Zn  Zn107  1  0.19087517  0.18712910  0.18346201  1
  Zn  Zn108  1  0.18925750  0.18897693  0.69080973  1
  Zn  Zn109  1  0.19132337  0.69131380  0.18705878  1
  Zn  Zn110  1  0.19521655  0.68642985  0.68651393  1
  Zn  Zn111  1  0.68560369  0.18675902  0.19012434  1
  Zn  Zn112  1  0.68498613  0.18753413  0.68143088  1
  Zn  Zn113  1  0.68972907  0.68766415  0.18976429  1
  Zn  Zn114  1  0.69126687  0.69358093  0.69219792  1
  Zn  Zn115  1  0.31233866  0.31161362  0.30840526  1
  Zn  Zn116  1  0.31007451  0.31188520  0.81497757  1
  Zn  Zn117  1  0.31544053  0.81181445  0.31169359  1
  Zn  Zn118  1  0.30876409  0.81697959  0.81457154  1
  Zn  Zn119  1  0.81157436  0.31262832  0.31416135  1
  Zn  Zn120  1  0.80873682  0.31230734  0.81068564  1
  Zn  Zn121  1  0.81204497  0.80793621  0.31273961  1
  Zn  Zn122  1  0.81322888  0.81130734  0.81494875  1
  Zn  Zn123  1  0.18741706  0.43788707  0.43886293  1
  Zn  Zn124  1  0.19105609  0.44041770  0.94221731  1
  Zn  Zn125  1  0.19008249  0.93853039  0.43815096  1
  Zn  Zn126  1  0.18697485  0.93996757  0.93937759  1
  Zn  Zn127  1  0.65596311  0.44929257  0.42121399  1
  Zn  Zn128  1  0.68767403  0.43634397  0.94198195  1
  Zn  Zn129  1  0.68983333  0.93403699  0.43692540  1
  Zn  Zn130  1  0.68728323  0.93513561  0.93955751  1
  Zn  Zn131  1  0.31154688  0.06289870  0.06411850  1
  Zn  Zn132  1  0.31536570  0.06507620  0.56362731  1
  Zn  Zn133  1  0.31023433  0.56311194  0.05733556  1
  Zn  Zn134  1  0.31386411  0.56185954  0.56450472  1
  Zn  Zn135  1  0.80874411  0.05979091  0.06225100  1
  Zn  Zn136  1  0.81306639  0.06334492  0.56111915  1
  Zn  Zn137  1  0.92152102  0.56578742  0.05060176  1
  Zn  Zn138  1  0.80681049  0.56366412  0.56171840  1
  Zn  Zn139  1  0.43296693  0.44091453  0.18408980  1
  Zn  Zn140  1  0.43821913  0.43687639  0.68263562  1
  Zn  Zn141  1  0.43737706  0.93523297  0.18721678  1
  Zn  Zn142  1  0.43831217  0.94009187  0.68760662  1
  Zn  Zn143  1  0.92986924  0.43078343  0.19015237  1
  Zn  Zn144  1  0.93241991  0.43940200  0.68534309  1
  Zn  Zn145  1  0.93843968  0.93440361  0.18708457  1
  Zn  Zn146  1  0.93719919  0.93914524  0.68923358  1
  Zn  Zn147  1  0.06286330  0.06259494  0.31373375  1
  Zn  Zn148  1  0.05635270  0.06051137  0.81266699  1
  Zn  Zn149  1  0.06320657  0.56568740  0.32457506  1
  Zn  Zn150  1  0.06613689  0.55652677  0.81687418  1
  Zn  Zn151  1  0.56192204  0.06099899  0.31793031  1
  Zn  Zn152  1  0.55956162  0.06193627  0.81544399  1
  Zn  Zn153  1  0.55738180  0.56352831  0.31083954  1
  Zn  Zn154  1  0.56363879  0.56361093  0.81548395  1
  Zn  Zn155  1  0.43105606  0.18528490  0.43669983  1
  Zn  Zn156  1  0.43927214  0.18709203  0.93673738  1
  Zn  Zn157  1  0.44363559  0.69042494  0.43825387  1
  Zn  Zn158  1  0.43434715  0.68936674  0.93827762  1
  Zn  Zn159  1  0.93491236  0.18880440  0.43752365  1
  Zn  Zn160  1  0.93965812  0.18750693  0.93390372  1
  Zn  Zn161  1  0.93733005  0.68820597  0.43751308  1
  Zn  Zn162  1  0.95479136  0.66728819  0.89370287  1
  Zn  Zn163  1  0.06301803  0.30889527  0.06378468  1
  Zn  Zn164  1  0.06273046  0.31504586  0.56403878  1
  Zn  Zn165  1  0.06451570  0.81896245  0.06000887  1
  Zn  Zn166  1  0.06158679  0.81133276  0.56570546  1
  Zn  Zn167  1  0.56066783  0.31502736  0.06145027  1
  Zn  Zn168  1  0.56049245  0.31212091  0.55998230  1
  Zn  Zn169  1  0.56585009  0.81160850  0.06016554  1
  Zn  Zn170  1  0.56267454  0.81682798  0.56683028  1
  O  O171  1  0.13031318  0.11390927  0.11392110  1
  O  O172  1  0.12008599  0.11770417  0.62293012  1
  O  O173  1  0.12900326  0.63100653  0.10763037  1
  O  O174  1  0.13460738  0.61648757  0.61060406  1
  O  O175  1  0.62922100  0.11860248  0.11361037  1
  O  O176  1  0.61924927  0.11610052  0.63074913  1
  O  O177  1  0.62878107  0.60923004  0.13285333  1
  O  O178  1  0.62015707  0.62534948  0.62259658  1
  O  O179  1  0.36811234  0.37387267  0.38691970  1
  O  O180  1  0.37415885  0.38213010  0.88379143  1
  O  O181  1  0.36994826  0.88393630  0.38422869  1
  O  O182  1  0.38112016  0.88355764  0.88165134  1
  O  O183  1  0.88179757  0.38765575  0.37478471  1
  O  O184  1  0.86535295  0.38258224  0.88362924  1
  O  O185  1  0.88115899  0.87722709  0.38193445  1
  O  O186  1  0.88090910  0.88265464  0.88248702  1
  O  O187  1  0.25870260  0.00095589  0.36650539  1
  O  O188  1  0.25884829  -0.00490460  0.86758832  1
  O  O189  1  0.24457869  0.51609069  0.37259590  1
  O  O190  1  0.25812939  0.50745366  0.87550831  1
  O  O191  1  0.75513450  0.00614109  0.37027309  1
  O  O192  1  0.76349433  0.00051597  0.88228866  1
  O  O193  1  0.75383441  0.50071859  0.36856123  1
  O  O194  1  0.74438131  0.50534508  0.86907275  1
  O  O195  1  0.25515944  0.48333485  0.12211940  1
  O  O196  1  0.24246980  0.49362670  0.62617422  1
  O  O197  1  0.24397347  0.99306535  0.13084522  1
  O  O198  1  0.24411003  0.99745168  0.63113560  1
  O  O199  1  0.73858535  0.48272781  0.13048617  1
  O  O200  1  0.74393629  0.50071232  0.63662125  1
  O  O201  1  0.74157663  0.99035358  0.13087466  1
  O  O202  1  0.75126460  0.98703345  0.62030312  1
  O  O203  1  -0.00052892  0.36641598  0.26080650  1
  O  O204  1  -0.00153519  0.36142959  0.74513513  1
  O  O205  1  -0.00070459  0.86873959  0.26283335  1
  O  O206  1  0.00099123  0.88095215  0.76587820  1
  O  O207  1  0.50726310  0.37392116  0.24526602  1
  O  O208  1  0.51254339  0.37736121  0.75209603  1
  O  O209  1  0.50579989  0.86292934  0.24700671  1
  O  O210  1  0.50328852  0.87829614  0.76345617  1
  O  O211  1  0.48890560  0.11581177  0.24821185  1
  O  O212  1  0.48613867  0.12403660  0.75262239  1
  O  O213  1  0.48654469  0.63317615  0.25157881  1
  O  O214  1  0.49866753  0.62313293  0.73840463  1
  O  O215  1  0.98967561  0.13300086  0.25690725  1
  O  O216  1  0.99364581  0.13117874  0.74092523  1
  O  O217  1  0.99556898  0.63007180  0.24814014  1
  O  O218  1  0.98962380  0.63221936  0.78983010  1
  O  O219  1  0.36698733  0.25488401  0.00138167  1
  O  O220  1  0.36245918  0.25689722  0.49862853  1
  O  O221  1  0.36498131  0.76273401  -0.00279581  1
  O  O222  1  0.37409724  0.75867612  0.50468294  1
  O  O223  1  0.86794379  0.24977553  0.00302979  1
  O  O224  1  0.86313374  0.25453905  0.49758741  1
  O  O225  1  0.86623620  0.76299569  -0.00484363  1
  O  O226  1  0.87431823  0.76143182  0.50435725  1
  O  O227  1  0.13361650  0.24761105  0.49509212  1
  O  O228  1  0.12790051  0.24361315  0.98953375  1
  O  O229  1  0.13220008  0.74426092  0.49789528  1
  O  O230  1  0.13395928  0.74752018  1.00009901  1
  O  O231  1  0.62928233  0.25599778  0.48173691  1
  O  O232  1  0.62776936  0.24302602  0.99563553  1
  O  O233  1  0.62233801  0.74758845  0.49340582  1
  O  O234  1  0.63625812  0.75889346  0.98644596  1
  O  O235  1  0.48374695  0.25141416  0.11703264  1
  O  O236  1  0.49634589  0.24940576  0.62910166  1
  O  O237  1  0.50570954  0.75039715  0.13777085  1
  O  O238  1  0.49179777  0.74342616  0.62103477  1
  O  O239  1  0.99339872  0.25224224  0.13880978  1
  O  O240  1  1.00283536  0.24375722  0.63627247  1
  O  O241  1  1.00354943  0.76336975  0.14004052  1
  O  O242  1  0.98280584  0.75291488  0.62369209  1
  O  O243  1  0.00347783  0.25744631  0.36835524  1
  O  O244  1  0.01200981  0.24705197  0.86334630  1
  O  O245  1  0.00783315  0.75606508  0.37074941  1
  O  O246  1  -0.00304732  0.77360044  0.88602265  1
  O  O247  1  0.51157683  0.24247461  0.37676898  1
  O  O248  1  0.51227156  0.25301581  0.87364036  1
  O  O249  1  0.51174663  0.74858366  0.36397203  1
  O  O250  1  0.50810592  0.75885088  0.88236379  1
  O  O251  1  0.24581298  0.13556937  0.49974462  1
  O  O252  1  0.24234620  0.13645517  1.00299660  1
  O  O253  1  0.24851509  0.63033559  0.49163123  1
  O  O254  1  0.24452629  0.63479936  0.99454616  1
  O  O255  1  0.75512876  0.13149265  0.48612999  1
  O  O256  1  0.74121773  0.13145143  0.99782014  1
  O  O257  1  0.73632882  0.63227563  0.49908896  1
  O  O258  1  0.74945948  0.63800795  0.99655050  1
  O  O259  1  0.25795327  0.36727748  0.00721647  1
  O  O260  1  0.25662387  0.36990323  0.50538035  1
  O  O261  1  0.25492478  0.87074663  0.00490361  1
  O  O262  1  0.26033653  0.87217311  0.50625500  1
  O  O263  1  0.75156403  0.36300744  0.00955225  1
  O  O264  1  0.74522712  0.36619118  0.49263072  1
  O  O265  1  0.75659046  0.86986847  0.00812550  1
  O  O266  1  0.75923497  0.87279369  0.50694698  1
  O  O267  1  0.12561365  0.50517842  0.24790238  1
  O  O268  1  0.12470850  0.50350138  0.73500354  1
  O  O269  1  0.13211417  0.99979098  0.24368570  1
  O  O270  1  0.13174822  1.00090696  0.74348813  1
  O  O271  1  0.62765104  0.48453936  0.24180623  1
  O  O272  1  0.62959991  0.49620613  0.74236282  1
  O  O273  1  0.62720831  0.99236855  0.24770781  1
  O  O274  1  0.62174330  0.98554783  0.75589167  1
  O  O275  1  0.37011590  0.00286304  0.25633008  1
  O  O276  1  0.36865431  0.00483803  0.75813365  1
  O  O277  1  0.37190934  0.51602795  0.24778749  1
  O  O278  1  0.37691940  0.49939077  0.76335718  1
  O  O279  1  0.87089852  0.00497661  0.25516493  1
  O  O280  1  0.88000567  0.01088149  0.75981881  1
  O  O281  1  0.86730764  0.50669932  0.25766649  1
  O  O282  1  0.86362211  0.49086492  0.76403329  1
  O  O283  1  0.11678711  0.37083190  0.37088987  1
  O  O284  1  0.12588546  0.36598657  0.87970651  1
  O  O285  1  0.11826375  0.87021631  0.37463355  1
  O  O286  1  0.10958199  0.88469899  0.87592050  1
  O  O287  1  0.63126209  0.35665818  0.35454481  1
  O  O288  1  0.62375222  0.36727795  0.86897585  1
  O  O289  1  0.62889436  0.87096395  0.36039133  1
  O  O290  1  0.61752084  0.87051993  0.87228072  1
  O  O291  1  0.36968029  0.13271548  0.13331062  1
  O  O292  1  0.37877386  0.12862484  0.63548551  1
  O  O293  1  0.36806126  0.62718484  0.13590121  1
  O  O294  1  0.38340970  0.63433537  0.62564160  1
  O  O295  1  0.86802197  0.12676766  0.13851987  1
  O  O296  1  0.88321478  0.12807414  0.63064583  1
  O  O297  1  0.86853515  0.62832105  0.13372152  1
  O  O298  1  0.86820750  0.64118856  0.62138611  1
  O  O299  1  0.25592571  0.25865215  0.11519961  1
  O  O300  1  0.24889112  0.25827755  0.61719720  1
  O  O301  1  0.24608272  0.76624795  0.11793298  1
  O  O302  1  0.26194416  0.75596668  0.61559022  1
  O  O303  1  0.75476819  0.25315269  0.12041144  1
  O  O304  1  0.74830477  0.25348603  0.61010576  1
  O  O305  1  0.74184440  0.76197649  0.11843021  1
  O  O306  1  0.76050715  0.76209716  0.62403164  1
  O  O307  1  0.24181466  0.24969010  0.38109048  1
  O  O308  1  0.23520697  0.25287021  0.88258541  1
  O  O309  1  0.24613107  0.74380425  0.37993279  1
  O  O310  1  0.25343947  0.74267539  0.88354699  1
  O  O311  1  0.74441619  0.24235666  0.37818792  1
  O  O312  1  0.73804887  0.24803894  0.88203393  1
  O  O313  1  0.73499249  0.75013409  0.37575879  1
  O  O314  1  0.74667358  0.74116823  0.88183033  1
  O  O315  1  0.00554291  0.11435552  -0.00148939  1
  O  O316  1  0.00465524  0.12776715  0.51273088  1
  O  O317  1  0.00815784  0.62599314  -0.00727129  1
  O  O318  1  0.01089195  0.61643508  0.49346708  1
  O  O319  1  0.50785168  0.11446374  -0.00377720  1
  O  O320  1  0.49257331  0.10925699  0.49965753  1
  O  O321  1  0.49439810  0.61535806  0.00153874  1
  O  O322  1  0.51100444  0.62371577  0.50894635  1
  O  O323  1  0.48051011  0.37566471  0.50302132  1
  O  O324  1  0.48608985  0.37900295  0.99852115  1
  O  O325  1  0.48880035  0.88363046  0.50240646  1
  O  O326  1  0.49244009  0.87967852  0.99360779  1
  O  O327  1  0.99919775  0.38123896  0.48859011  1
  O  O328  1  0.98471905  0.36274770  1.00128495  1
  O  O329  1  0.99481568  0.87537909  0.48959884  1
  O  O330  1  0.99268669  0.88720875  0.99590653  1
  O  O331  1  0.54800104  0.49005853  0.39187706  1
  O  O332  1  0.49349094  0.50020118  0.88409606  1
  O  O333  1  0.48835740  1.00057889  0.38542519  1
  O  O334  1  0.49251890  0.99136990  0.88654074  1
  O  O335  1  0.99240139  0.49374463  0.38450092  1
  O  O336  1  0.98457555  0.49164985  0.87430684  1
  O  O337  1  0.99474037  0.99072608  0.37649896  1
  O  O338  1  0.98861294  0.99448505  0.88461260  1
  O  O339  1  0.00867915  -0.00425513  0.11800168  1
  O  O340  1  0.00845308  0.00818800  0.62415923  1
  O  O341  1  -0.01807302  0.49727949  0.11820702  1
  O  O342  1  0.00567303  0.49520049  0.61282902  1
  O  O343  1  0.50476908  -0.00690873  0.11190532  1
  O  O344  1  0.49952530  -0.00158397  0.60952022  1
  O  O345  1  0.50831298  0.49477746  0.11602314  1
  O  O346  1  0.50795655  0.50969184  0.61967304  1
  O  O347  1  0.24721807  0.37790944  0.23690974  1
  O  O348  1  0.25296176  0.37643513  0.73681861  1
  O  O349  1  0.25113723  0.88487134  0.24282499  1
  O  O350  1  0.24888829  0.88850218  0.74325238  1
  O  O351  1  0.74932111  0.37747072  0.24049396  1
  O  O352  1  0.73697552  0.38414436  0.75005957  1
  O  O353  1  0.74502538  0.87854601  0.24327893  1
  O  O354  1  0.74374925  0.87363817  0.74442745  1
  O  O355  1  0.25426996  0.11144425  0.24841960  1
  O  O356  1  0.25966470  0.11333517  0.74638670  1
  O  O357  1  0.26368675  0.62992658  0.25895431  1
  O  O358  1  0.25527266  0.62086088  0.76001696  1
  O  O359  1  0.75640848  0.11836122  0.25901455  1
  O  O360  1  0.76518807  0.13502272  0.75098389  1
  O  O361  1  0.75812137  0.61770647  0.25220707  1
  O  O362  1  0.74606102  0.61394068  0.76002316  1
  O  O363  1  0.37067787  0.11624213  0.36487820  1
  O  O364  1  0.37748199  0.11228853  0.87111155  1
  O  O365  1  0.36613768  0.63028646  0.37396396  1
  O  O366  1  0.36531819  0.61867479  0.87578105  1
  O  O367  1  0.86885588  0.11946298  0.36635361  1
  O  O368  1  0.87425745  0.11763319  0.86716133  1
  O  O369  1  0.87379297  0.61308055  0.37291029  1
  O  O370  1  0.85787606  0.60345052  0.88595435  1
  O  O371  1  0.13948002  0.36898031  0.12457260  1
  O  O372  1  0.13635853  0.38705704  0.61479156  1
  O  O373  1  0.13345208  0.88941972  0.12534360  1
  O  O374  1  0.12955501  0.89025260  0.61997311  1
  O  O375  1  0.62972361  0.37101751  0.13580234  1
  O  O376  1  0.62567941  0.38494708  0.63087099  1
  O  O377  1  0.63094708  0.88046622  0.13491676  1
  O  O378  1  0.63383387  0.87769350  0.63579216  1
  O  O379  1  0.11713980  0.24748453  0.25364171  1
  O  O380  1  0.11806357  0.24670053  0.76377553  1
  O  O381  1  0.11904978  0.75165880  0.25733530  1
  O  O382  1  0.12390496  0.75833079  0.73152924  1
  O  O383  1  0.62254069  0.25776908  0.25495395  1
  O  O384  1  0.62637792  0.25876223  0.75809065  1
  O  O385  1  0.61557029  0.75498478  0.25432320  1
  O  O386  1  0.63031479  0.76215688  0.76635905  1
  O  O387  1  0.36894419  0.23776265  0.24066301  1
  O  O388  1  0.37456224  0.24063820  0.75255325  1
  O  O389  1  0.38779384  0.74351113  0.25193889  1
  O  O390  1  0.37079306  0.75266508  0.73831432  1
  O  O391  1  0.88126861  0.24136518  0.24756504  1
  O  O392  1  0.88714545  0.24465703  0.75159041  1
  O  O393  1  0.88610883  0.73632786  0.25962317  1
  O  O394  1  0.87549371  0.75248470  0.73755676  1
  O  O395  1  0.37355482  0.48872028  0.49740044  1
  O  O396  1  0.38003929  0.49350387  0.99210885  1
  O  O397  1  0.37918308  0.99389914  0.49259085  1
  O  O398  1  0.37893412  0.99490005  0.99463252  1
  O  O399  1  0.88034499  0.50147602  0.49444296  1
  O  O400  1  0.86705632  0.48626708  0.98519846  1
  O  O401  1  0.87866113  0.98891129  0.49423147  1
  O  O402  1  0.88023411  0.99487301  0.99623516  1
  O  O403  1  0.11776851  0.00725580  0.00594610  1
  O  O404  1  0.12539051  0.00927640  0.50722266  1
  O  O405  1  0.12539206  0.51386714  0.00302942  1
  O  O406  1  0.11700731  0.50763222  0.50454234  1
  O  O407  1  0.61685548  0.00588680  0.00343597  1
  O  O408  1  0.60929442  -0.00764192  0.49570043  1
  O  O409  1  0.61330135  0.49086133  0.01136503  1
  O  O410  1  0.63732684  0.51199810  0.51875683  1
  O  O411  1  0.36544410  0.36776361  0.11861087  1
  O  O412  1  0.36432142  0.37497754  0.61582428  1
  O  O413  1  0.36526116  0.88350182  0.11376326  1
  O  O414  1  0.37185687  0.87015649  0.61892472  1
  O  O415  1  0.86348647  0.36354596  0.11785806  1
  O  O416  1  0.86849645  0.37180229  0.61940104  1
  O  O417  1  0.86380664  0.88063258  0.11697595  1
  O  O418  1  0.87147559  0.87239491  0.61903646  1
  O  O419  1  0.12655969  0.13159577  0.38306870  1
  O  O420  1  0.12207785  0.12531463  0.88589797  1
  O  O421  1  0.13583070  0.63273802  0.38671328  1
  O  O422  1  0.13683728  0.62002343  0.88950096  1
  O  O423  1  0.63347134  0.13789882  0.36628382  1
  O  O424  1  0.62578792  0.13076547  0.88422963  1
  O  O425  1  0.62577267  0.63574099  0.38410004  1
  O  O426  1  0.63496636  0.63322979  0.87378574  1
