# generated using pymatgen
data_V85Zn86O256
_symmetry_space_group_name_H-M   'P 1'
_cell_length_a   16.92779544
_cell_length_b   16.92684029
_cell_length_c   16.92574056
_cell_angle_alpha   89.97672488
_cell_angle_beta   90.00614109
_cell_angle_gamma   90.05061694
_symmetry_Int_Tables_number   1
_chemical_formula_structural   V85Zn86O256
_chemical_formula_sum   'V85 Zn86 O256'
_cell_volume   4849.79934770
_cell_formula_units_Z   1
loop_
 _symmetry_equiv_pos_site_id
 _symmetry_equiv_pos_as_xyz
  1  'x, y, z'
loop_
 _atom_site_type_symbol
 _atom_site_label
 _atom_site_symmetry_multiplicity
 _atom_site_fract_x
 _atom_site_fract_y
 _atom_site_fract_z
 _atom_site_occupancy
  V  V0  1  0.51495693  0.50658916  0.49517558  1
  V  V1  1  0.49713058  0.87521772  0.87608308  1
  V  V2  1  0.75111923  0.14096521  0.37256384  1
  V  V3  1  0.24926532  0.75066277  0.50153064  1
  V  V4  1  0.75092149  0.62229864  0.37943367  1
  V  V5  1  0.12753953  0.49876417  0.12221807  1
  V  V6  1  -0.00657691  0.87005650  0.87657959  1
  V  V7  1  0.62160098  0.62736527  0.00103889  1
  V  V8  1  0.12758092  0.87970218  0.75497421  1
  V  V9  1  0.50273998  0.87501171  0.37678665  1
  V  V10  1  0.36706367  0.86977676  0.01544100  1
  V  V11  1  0.25544571  0.62053532  0.37843627  1
  V  V12  1  0.50884388  0.36504981  0.37951901  1
  V  V13  1  0.37730009  0.87613732  0.50162885  1
  V  V14  1  0.12960560  0.87524036  0.24719091  1
  V  V15  1  0.37278562  0.63016627  0.24583393  1
  V  V16  1  0.62877920  0.12854876  -0.00034016  1
  V  V17  1  0.88166234  0.87845770  0.50309450  1
  V  V18  1  0.62533348  0.74693857  0.37713165  1
  V  V19  1  -0.01000441  -0.00540253  -0.00216064  1
  V  V20  1  0.75108864  0.61538349  0.87625836  1
  V  V21  1  0.38855447  0.13100266  0.24281335  1
  V  V22  1  -0.01360476  0.49760408  -0.00665624  1
  V  V23  1  0.25107886  0.88245636  0.63117910  1
  V  V24  1  0.74552241  0.49444037  0.25286169  1
  V  V25  1  0.25310812  -0.00205357  0.24368453  1
  V  V26  1  0.75263522  -0.00050259  0.25080092  1
  V  V27  1  0.62578840  0.13210075  0.49480614  1
  V  V28  1  0.88040218  0.12663463  0.24362818  1
  V  V29  1  -0.00150878  0.62121411  0.62589118  1
  V  V30  1  0.49854785  0.74770759  0.74975602  1
  V  V31  1  -0.00681684  0.11888652  0.61746697  1
  V  V32  1  0.87606828  0.75036025  0.62647177  1
  V  V33  1  0.24335383  0.37870564  0.62897143  1
  V  V34  1  0.49706634  0.75236022  0.24245764  1
  V  V35  1  0.00079045  0.87674789  0.37718935  1
  V  V36  1  0.74666754  0.49397124  0.73382514  1
  V  V37  1  0.12278791  0.25197758  0.37274996  1
  V  V38  1  0.62856249  0.88153034  0.75175731  1
  V  V39  1  0.62502637  0.75020754  0.87531138  1
  V  V40  1  -0.00521402  0.49982595  0.49430500  1
  V  V41  1  0.36985818  0.12157935  0.74752026  1
  V  V42  1  0.74663151  0.11538821  0.86562636  1
  V  V43  1  0.24449859  0.12702546  0.87021528  1
  V  V44  1  0.36213978  0.49438344  0.87792200  1
  V  V45  1  0.12570657  0.74945092  0.37483655  1
  V  V46  1  0.12843258  -0.00411864  0.11936936  1
  V  V47  1  0.87390358  0.62058879  0.25381187  1
  V  V48  1  0.00099847  0.75015446  0.24919239  1
  V  V49  1  0.63089574  0.25755689  0.87310339  1
  V  V50  1  0.62130503  0.50431011  0.13194025  1
  V  V51  1  0.00342940  0.62376631  0.12500758  1
  V  V52  1  0.75304134  0.75076555  -0.00016537  1
  V  V53  1  0.56848783  0.31684870  0.20533096  1
  V  V54  1  0.37231642  0.38976375  0.49467134  1
  V  V55  1  0.36413705  0.62371451  0.75352103  1
  V  V56  1  0.25250446  0.12466731  0.37124671  1
  V  V57  1  0.74610134  0.74902896  0.50194267  1
  V  V58  1  -0.01227753  0.24471409  0.74170531  1
  V  V59  1  0.87744523  0.75318080  0.11976491  1
  V  V60  1  0.12717547  0.12902231  -0.00291169  1
  V  V61  1  -0.02642022  0.33874503  0.90625088  1
  V  V62  1  0.75412682  0.25311587  0.51264939  1
  V  V63  1  0.25023757  0.25190303  0.49912381  1
  V  V64  1  0.26303000  0.25029875  -0.00215641  1
  V  V65  1  0.75546038  0.87799453  0.11963444  1
  V  V66  1  0.87209014  0.37300070  0.51617005  1
  V  V67  1  0.36877162  -0.00216031  0.87146130  1
  V  V68  1  0.62914173  0.00457534  0.62761413  1
  V  V69  1  0.62192005  0.38269355  0.73337825  1
  V  V70  1  0.87900295  0.00124707  0.37863351  1
  V  V71  1  0.49408098  0.49779891  -0.00223375  1
  V  V72  1  0.24820496  0.74050003  0.00754840  1
  V  V73  1  0.87303090  0.62116646  0.75561171  1
  V  V74  1  0.37450301  0.25350820  0.62464145  1
  V  V75  1  0.75173033  0.87885342  0.62937483  1
  V  V76  1  -0.01099384  0.37693476  0.37057488  1
  V  V77  1  0.11712667  0.36393094  0.76374894  1
  V  V78  1  0.25397959  0.49770310  0.25496532  1
  V  V79  1  0.49715399  0.00554509  0.00361942  1
  V  V80  1  0.49900957  0.12626937  0.62364307  1
  V  V81  1  0.25900311  0.37120548  0.12224970  1
  V  V82  1  0.50918997  0.61868185  0.62538973  1
  V  V83  1  0.12351472  0.11508331  0.49833105  1
  V  V84  1  0.62308864  0.00506534  0.12604621  1
  Zn  Zn85  1  0.23370278  0.50698011  0.75896398  1
  Zn  Zn86  1  0.37962154  0.00205321  0.37348747  1
  Zn  Zn87  1  0.12664651  0.00086368  0.62704878  1
  Zn  Zn88  1  0.11722772  0.49438754  0.62787627  1
  Zn  Zn89  1  0.13012607  0.61752228  -0.01491833  1
  Zn  Zn90  1  0.13384082  0.74125378  0.87090047  1
  Zn  Zn91  1  0.49605340  0.37512081  0.87237249  1
  Zn  Zn92  1  0.88219704  0.26412397  0.09845745  1
  Zn  Zn93  1  0.50319675  0.00059448  0.49918164  1
  Zn  Zn94  1  0.12780753  0.37423880  0.25207755  1
  Zn  Zn95  1  0.00345196  0.74665580  0.75325266  1
  Zn  Zn96  1  0.00261507  0.25067223  0.24280073  1
  Zn  Zn97  1  0.38991642  0.25185524  0.12498186  1
  Zn  Zn98  1  0.86187998  0.11936620  0.73751034  1
  Zn  Zn99  1  0.00085597  0.12709634  0.12142890  1
  Zn  Zn100  1  0.75533268  0.36846018  0.10582613  1
  Zn  Zn101  1  0.86731060  -0.00784670  0.86605776  1
  Zn  Zn102  1  0.12430449  0.62207924  0.50229014  1
  Zn  Zn103  1  0.49405220  0.63063220  0.12198679  1
  Zn  Zn104  1  0.62735466  0.87557912  0.25007950  1
  Zn  Zn105  1  0.49872440  0.25409261  0.75073832  1
  Zn  Zn106  1  0.37510340  0.74743840  0.62666327  1
  Zn  Zn107  1  0.19004379  0.18491459  0.18485896  1
  Zn  Zn108  1  0.18507670  0.18857957  0.68541955  1
  Zn  Zn109  1  0.19139059  0.68928918  0.18125801  1
  Zn  Zn110  1  0.18336375  0.69160242  0.68647095  1
  Zn  Zn111  1  0.70464209  0.18824015  0.17558108  1
  Zn  Zn112  1  0.68465849  0.19481673  0.68876928  1
  Zn  Zn113  1  0.68631800  0.68859438  0.19022826  1
  Zn  Zn114  1  0.68737246  0.68865340  0.68924239  1
  Zn  Zn115  1  0.31862483  0.31292101  0.31326174  1
  Zn  Zn116  1  0.30942757  0.31229454  0.81079156  1
  Zn  Zn117  1  0.31464771  0.81343509  0.31363489  1
  Zn  Zn118  1  0.31063124  0.80998750  0.81732252  1
  Zn  Zn119  1  0.82762797  0.32751263  0.27635242  1
  Zn  Zn120  1  0.80699358  0.31377688  0.92836396  1
  Zn  Zn121  1  0.81355854  0.81207382  0.31017454  1
  Zn  Zn122  1  0.81295833  0.80905592  0.81248639  1
  Zn  Zn123  1  0.18135287  0.43872269  0.44035995  1
  Zn  Zn124  1  0.17919724  0.42787741  0.93875565  1
  Zn  Zn125  1  0.19174372  0.93714637  0.43430849  1
  Zn  Zn126  1  0.18834205  0.93511779  0.93579677  1
  Zn  Zn127  1  0.69110681  0.43490512  0.43692930  1
  Zn  Zn128  1  0.67866383  0.44374716  0.93385929  1
  Zn  Zn129  1  0.69071720  0.94002371  0.43993621  1
  Zn  Zn130  1  0.68669891  0.93775143  0.94067724  1
  Zn  Zn131  1  0.31457815  0.06444686  0.06325200  1
  Zn  Zn132  1  0.31240198  0.06136343  0.55916927  1
  Zn  Zn133  1  0.31377663  0.56088183  0.06511002  1
  Zn  Zn134  1  0.31298362  0.56315906  0.57013826  1
  Zn  Zn135  1  0.81078225  0.06712007  0.05848339  1
  Zn  Zn136  1  0.80968516  0.06148288  0.55955191  1
  Zn  Zn137  1  0.80920569  0.56082863  0.06809966  1
  Zn  Zn138  1  0.81553254  0.56059999  0.56010732  1
  Zn  Zn139  1  0.43289056  0.44456956  0.19126623  1
  Zn  Zn140  1  0.43434522  0.44207568  0.68771561  1
  Zn  Zn141  1  0.44047102  0.94204110  0.19025177  1
  Zn  Zn142  1  0.44012382  0.93875564  0.68741004  1
  Zn  Zn143  1  0.93950250  0.43970852  0.18721017  1
  Zn  Zn144  1  0.93402732  0.43719699  0.69613142  1
  Zn  Zn145  1  0.94089869  0.93903486  0.18660444  1
  Zn  Zn146  1  0.94149950  0.94249720  0.69195020  1
  Zn  Zn147  1  0.06318055  0.06087980  0.31185500  1
  Zn  Zn148  1  0.05971281  0.05883395  0.80957690  1
  Zn  Zn149  1  0.06726092  0.56165268  0.31283228  1
  Zn  Zn150  1  0.06039036  0.55826211  0.81400025  1
  Zn  Zn151  1  0.56701264  0.06347239  0.31401155  1
  Zn  Zn152  1  0.55726144  0.06442770  0.81286974  1
  Zn  Zn153  1  0.55973941  0.56533377  0.31758075  1
  Zn  Zn154  1  0.55973035  0.56083386  0.81254267  1
  Zn  Zn155  1  0.43502403  0.18954774  0.43805167  1
  Zn  Zn156  1  0.44103669  0.18704282  0.93336606  1
  Zn  Zn157  1  0.43648704  0.68671369  0.43749988  1
  Zn  Zn158  1  0.43099213  0.68558973  0.93596422  1
  Zn  Zn159  1  0.93641261  0.19124252  0.43655356  1
  Zn  Zn160  1  0.94116059  0.17158184  0.92738733  1
  Zn  Zn161  1  0.93515725  0.68925386  0.43860749  1
  Zn  Zn162  1  0.94186771  0.68394952  0.93786596  1
  Zn  Zn163  1  0.07057348  0.31023851  0.06719942  1
  Zn  Zn164  1  0.06004888  0.30813567  0.56068777  1
  Zn  Zn165  1  0.06808489  0.81306424  0.05967669  1
  Zn  Zn166  1  0.06412578  0.81159453  0.56637947  1
  Zn  Zn167  1  0.56925804  0.31975799  0.04434938  1
  Zn  Zn168  1  0.56086421  0.31134860  0.55728100  1
  Zn  Zn169  1  0.56364965  0.81969880  0.06202503  1
  Zn  Zn170  1  0.56295994  0.80942576  0.56613085  1
  O  O171  1  0.12545286  0.11350013  0.11587035  1
  O  O172  1  0.12209353  0.12281455  0.61354249  1
  O  O173  1  0.11854017  0.61580727  0.12504361  1
  O  O174  1  0.10971682  0.62302851  0.62506934  1
  O  O175  1  0.63364372  0.11325054  0.11544449  1
  O  O176  1  0.62061789  0.12029376  0.62074169  1
  O  O177  1  0.62261932  0.62024066  0.11859604  1
  O  O178  1  0.60828237  0.62987197  0.62915109  1
  O  O179  1  0.38453885  0.37297654  0.38628992  1
  O  O180  1  0.37670474  0.39050242  0.86700456  1
  O  O181  1  0.38506205  0.87661060  0.38385972  1
  O  O182  1  0.38043652  0.88319009  0.88050553  1
  O  O183  1  0.88785275  0.37266260  0.37161844  1
  O  O184  1  0.89354266  0.37562615  0.86128256  1
  O  O185  1  0.87907444  0.87973182  0.38222675  1
  O  O186  1  0.88779288  0.87315330  0.87154407  1
  O  O187  1  0.25213021  0.01244459  0.36772658  1
  O  O188  1  0.26322095  0.00759324  0.87953711  1
  O  O189  1  0.24124334  0.50949634  0.36869240  1
  O  O190  1  0.25777590  0.49248849  0.87727846  1
  O  O191  1  0.76167219  0.00291717  0.36921707  1
  O  O192  1  0.74511529  0.01062299  0.87447481  1
  O  O193  1  0.74136778  0.51802277  0.37320308  1
  O  O194  1  0.74280767  0.51392710  0.86381167  1
  O  O195  1  0.24631819  0.49290918  0.13152817  1
  O  O196  1  0.24505395  0.48770584  0.62891758  1
  O  O197  1  0.24343047  1.00438471  0.13360333  1
  O  O198  1  0.24935367  0.98612583  0.61936835  1
  O  O199  1  0.73822363  0.49560295  0.13460749  1
  O  O200  1  0.74499561  0.50919774  0.63542454  1
  O  O201  1  0.74755436  0.99360754  0.12803196  1
  O  O202  1  0.73710191  0.99533292  0.62278860  1
  O  O203  1  0.00799757  0.37475490  0.25829891  1
  O  O204  1  0.00675349  0.35815751  0.73937521  1
  O  O205  1  0.00703586  0.86876633  0.25596748  1
  O  O206  1  0.00870502  0.87177773  0.75863745  1
  O  O207  1  0.50151006  0.37735331  0.26306991  1
  O  O208  1  0.51017138  0.37889869  0.74895768  1
  O  O209  1  0.50150468  0.86949900  0.25977747  1
  O  O210  1  0.50728120  0.86852117  0.75498407  1
  O  O211  1  0.48662248  0.12102847  0.25708618  1
  O  O212  1  0.48743124  0.12823805  0.74234083  1
  O  O213  1  0.49014677  0.63493281  0.25304746  1
  O  O214  1  0.49312088  0.62657400  0.74075158  1
  O  O215  1  0.99397592  0.12253706  0.24541607  1
  O  O216  1  1.00667593  0.13190177  0.73482413  1
  O  O217  1  0.99353532  0.62945482  0.24671256  1
  O  O218  1  0.98832655  0.62133598  0.74328711  1
  O  O219  1  0.36813487  0.24144310  0.00617635  1
  O  O220  1  0.36770937  0.25831596  0.50754401  1
  O  O221  1  0.36961009  0.76281996  -0.00052940  1
  O  O222  1  0.36842724  0.76028743  0.50052509  1
  O  O223  1  0.90603939  0.27047316  -0.02416954  1
  O  O224  1  0.87043645  0.26521415  0.49677443  1
  O  O225  1  0.87076115  0.74194503  0.01324829  1
  O  O226  1  0.86589861  0.75897824  0.50564448  1
  O  O227  1  0.13155775  0.24234566  0.48857206  1
  O  O228  1  0.13532395  0.23325377  1.00374883  1
  O  O229  1  0.13307066  0.74779524  0.49451344  1
  O  O230  1  0.13712106  0.74444513  1.00049324  1
  O  O231  1  0.63383778  0.23932279  0.50286418  1
  O  O232  1  0.61986937  0.23830244  0.98858989  1
  O  O233  1  0.63842419  0.75636081  0.49489373  1
  O  O234  1  0.63016781  0.74691107  0.99576196  1
  O  O235  1  0.50984886  0.26830491  0.13584614  1
  O  O236  1  0.49119821  0.24389606  0.62394195  1
  O  O237  1  0.50784132  0.75201359  0.13910052  1
  O  O238  1  0.49687149  0.73938486  0.63064293  1
  O  O239  1  0.99580217  0.24683694  0.12507503  1
  O  O240  1  1.00600832  0.23488259  0.63236771  1
  O  O241  1  0.99506733  0.74619098  0.12848932  1
  O  O242  1  0.99252081  0.74012769  0.62575962  1
  O  O243  1  0.00893673  0.25818013  0.37392336  1
  O  O244  1  0.00296982  0.24267871  0.85491515  1
  O  O245  1  0.00531325  0.75504844  0.36913207  1
  O  O246  1  0.00397815  0.75754341  0.87544031  1
  O  O247  1  0.50113398  0.26541830  0.38304841  1
  O  O248  1  0.51142804  0.25241998  0.87046730  1
  O  O249  1  0.50737952  0.75778443  0.37211582  1
  O  O250  1  0.50494949  0.75456027  0.87071537  1
  O  O251  1  0.24541151  0.13044623  0.49086938  1
  O  O252  1  0.24705346  0.12926010  0.99137256  1
  O  O253  1  0.25042266  0.63140341  0.49620632  1
  O  O254  1  0.25182134  0.63632588  1.00542227  1
  O  O255  1  0.74585606  0.13282957  0.49254150  1
  O  O256  1  0.73487758  0.11767919  0.98689169  1
  O  O257  1  0.75946571  0.63699082  0.49249349  1
  O  O258  1  0.74484478  0.62811238  0.99345690  1
  O  O259  1  0.24465382  0.36094431  0.00745277  1
  O  O260  1  0.25485082  0.37275324  0.50600832  1
  O  O261  1  0.26499215  0.87779340  0.00296937  1
  O  O262  1  0.25764314  0.86851535  0.50351017  1
  O  O263  1  0.74863952  0.38265209  -0.00657058  1
  O  O264  1  0.76436978  0.36978037  0.49530777  1
  O  O265  1  0.74831976  0.86931730  0.01164946  1
  O  O266  1  0.75960374  0.86914007  0.50765652  1
  O  O267  1  0.13759310  0.50141162  0.23992578  1
  O  O268  1  0.11795353  0.48095727  0.74738800  1
  O  O269  1  0.13333564  0.99663833  0.24196010  1
  O  O270  1  0.12504299  0.98544371  0.74755871  1
  O  O271  1  0.62860432  0.51392644  0.23910408  1
  O  O272  1  0.63056350  0.49198861  0.75035841  1
  O  O273  1  0.63305555  0.99939209  0.24207897  1
  O  O274  1  0.61700672  0.99027483  0.74339835  1
  O  O275  1  0.36916432  0.00931996  0.25179652  1
  O  O276  1  0.37944079  0.00880314  0.75830063  1
  O  O277  1  0.36136244  0.51064614  0.25272022  1
  O  O278  1  0.36816489  0.50681219  0.76071919  1
  O  O279  1  0.87220263  0.00648160  0.25680948  1
  O  O280  1  0.87758629  0.00851786  0.75330506  1
  O  O281  1  0.86435744  0.51509330  0.24644803  1
  O  O282  1  0.85810009  0.50795006  0.74640759  1
  O  O283  1  0.11851108  0.36533708  0.37578089  1
  O  O284  1  0.10377583  0.37175212  0.86602976  1
  O  O285  1  0.12053071  0.87024097  0.36962101  1
  O  O286  1  0.11823870  0.87292984  0.86839296  1
  O  O287  1  0.60819755  0.37724749  0.38200696  1
  O  O288  1  0.62011719  0.36955002  0.86523072  1
  O  O289  1  0.62066007  0.86679708  0.37611873  1
  O  O290  1  0.61914635  0.87220040  0.86909119  1
  O  O291  1  0.37826885  0.12692906  0.13819511  1
  O  O292  1  0.37631944  0.12992368  0.62910261  1
  O  O293  1  0.37520192  0.62412938  0.14083314  1
  O  O294  1  0.38360127  0.62670420  0.63605614  1
  O  O295  1  0.87863221  0.12094380  0.13329059  1
  O  O296  1  0.88923311  0.12144705  0.61763122  1
  O  O297  1  0.88089169  0.63230093  0.13372160  1
  O  O298  1  0.88169364  0.62925886  0.63162559  1
  O  O299  1  0.25304934  0.25574249  0.11763391  1
  O  O300  1  0.25410754  0.26075179  0.61965930  1
  O  O301  1  0.24923232  0.75713850  0.10921860  1
  O  O302  1  0.25096043  0.75742316  0.61269150  1
  O  O303  1  0.76775536  0.25137043  0.11108827  1
  O  O304  1  0.75288869  0.24402786  0.61199205  1
  O  O305  1  0.75691019  0.75703966  0.12142387  1
  O  O306  1  0.75447359  0.75598647  0.61863100  1
  O  O307  1  0.24555820  0.24103876  0.37771980  1
  O  O308  1  0.25639486  0.23909911  0.88354723  1
  O  O309  1  0.24646536  0.74613478  0.38585652  1
  O  O310  1  0.24937041  0.76132215  0.89882089  1
  O  O311  1  0.75746083  0.24016967  0.38118498  1
  O  O312  1  0.73582856  0.23746920  0.87507171  1
  O  O313  1  0.74385755  0.74699952  0.38120043  1
  O  O314  1  0.74413046  0.74276061  0.88173137  1
  O  O315  1  0.01184518  0.11248167  -0.00369798  1
  O  O316  1  0.00902786  0.13190955  0.50892841  1
  O  O317  1  0.00264750  0.61230199  0.00826978  1
  O  O318  1  -0.00445182  0.61663196  0.50582964  1
  O  O319  1  0.50948449  0.11196941  -0.00615284  1
  O  O320  1  0.50798087  0.12471177  0.50369681  1
  O  O321  1  0.50242997  0.61892580  0.00210744  1
  O  O322  1  0.49484796  0.61506005  0.50889705  1
  O  O323  1  0.49357318  0.38650917  0.49514067  1
  O  O324  1  0.49980885  0.39279411  0.99478361  1
  O  O325  1  0.49399996  0.87347903  0.49548043  1
  O  O326  1  0.49192128  0.88392980  0.99451032  1
  O  O327  1  0.98960605  0.37906619  0.49486680  1
  O  O328  1  1.01069302  0.38790689  1.00105529  1
  O  O329  1  0.98891316  0.86824806  0.49552939  1
  O  O330  1  1.00693609  0.88351772  0.99026319  1
  O  O331  1  0.50001607  0.49793147  0.39047452  1
  O  O332  1  0.48902721  0.50119280  0.88243892  1
  O  O333  1  0.50325206  0.98630222  0.37743279  1
  O  O334  1  0.48979628  0.99581640  0.88255292  1
  O  O335  1  1.00634208  0.49139501  0.38286522  1
  O  O336  1  0.99492730  0.50123377  0.89312624  1
  O  O337  1  0.98774584  0.99289658  0.37122209  1
  O  O338  1  0.99997887  0.99040280  0.88280948  1
  O  O339  1  0.00869724  -0.00025411  0.11385258  1
  O  O340  1  0.00693933  0.01476601  0.62329844  1
  O  O341  1  0.01006821  0.50343809  0.12194172  1
  O  O342  1  -0.00537685  0.50669349  0.61826597  1
  O  O343  1  0.51112644  -0.00340955  0.11702645  1
  O  O344  1  0.51086087  0.00695208  0.62168429  1
  O  O345  1  0.50437901  0.50354784  0.12022565  1
  O  O346  1  0.49571251  0.51147128  0.61452379  1
  O  O347  1  0.25055182  0.38288324  0.24714720  1
  O  O348  1  0.23344461  0.37401557  0.74613212  1
  O  O349  1  0.24647314  0.88931193  0.25881781  1
  O  O350  1  0.24463468  0.86847515  0.74079970  1
  O  O351  1  0.73695775  0.39662300  0.27370487  1
  O  O352  1  0.73611498  0.39193857  0.74720965  1
  O  O353  1  0.75026080  0.88076051  0.23942060  1
  O  O354  1  0.73733691  0.86773427  0.74443874  1
  O  O355  1  0.25680787  0.11654465  0.25554857  1
  O  O356  1  0.26022235  0.13006613  0.75477939  1
  O  O357  1  0.25467718  0.62212491  0.25753517  1
  O  O358  1  0.25959578  0.62341168  0.74037424  1
  O  O359  1  0.75900721  0.11799967  0.25613510  1
  O  O360  1  0.74307280  0.12716566  0.76175147  1
  O  O361  1  0.75613507  0.62256352  0.25795936  1
  O  O362  1  0.75362824  0.62021493  0.75607222  1
  O  O363  1  0.36763505  0.12413647  0.36824700  1
  O  O364  1  0.36873505  0.11859974  0.86609326  1
  O  O365  1  0.36113387  0.63105373  0.36784021  1
  O  O366  1  0.37642019  0.61267525  0.86332771  1
  O  O367  1  0.87044471  0.11551688  0.37333354  1
  O  O368  1  0.85317944  0.12248939  0.87474494  1
  O  O369  1  0.86459132  0.63549939  0.36466651  1
  O  O370  1  0.86624589  0.63105146  0.86394954  1
  O  O371  1  0.13889679  0.38167641  0.13033240  1
  O  O372  1  0.13080462  0.37195774  0.62849785  1
  O  O373  1  0.12225198  0.88774901  0.13176616  1
  O  O374  1  0.13386792  0.87692704  0.63097678  1
  O  O375  1  0.62292679  0.37965188  0.13657226  1
  O  O376  1  0.62086724  0.37379851  0.63464468  1
  O  O377  1  0.63479775  0.88742121  0.12622376  1
  O  O378  1  0.62821542  0.88336605  0.63247483  1
  O  O379  1  0.12653082  0.24702485  0.26226613  1
  O  O380  1  0.12047867  0.26080411  0.74791763  1
  O  O381  1  0.12232152  0.75540237  0.25363058  1
  O  O382  1  0.12260500  0.76296736  0.75050983  1
  O  O383  1  0.62857720  0.24964112  0.24622166  1
  O  O384  1  0.62314318  0.26661814  0.75365803  1
  O  O385  1  0.61808236  0.75401667  0.25969758  1
  O  O386  1  0.61832001  0.75838709  0.75610611  1
  O  O387  1  0.37289759  0.23508418  0.24699824  1
  O  O388  1  0.37549326  0.24449347  0.74043955  1
  O  O389  1  0.38473673  0.74451393  0.25546267  1
  O  O390  1  0.38126537  0.74139273  0.75272363  1
  O  O391  1  0.88247732  0.22941867  0.26254347  1
  O  O392  1  0.88954729  0.23843213  0.74470959  1
  O  O393  1  0.87994503  0.74276169  0.24009651  1
  O  O394  1  0.87545438  0.73932769  0.74200597  1
  O  O395  1  0.37863933  0.49147355  0.50484034  1
  O  O396  1  0.37831497  0.50675788  0.98637151  1
  O  O397  1  0.37830659  0.98792240  0.49681011  1
  O  O398  1  0.38125918  0.99411407  0.99533348  1
  O  O399  1  0.88297802  0.48669531  0.49912938  1
  O  O400  1  0.88817340  0.49884016  1.01190027  1
  O  O401  1  0.87032556  0.98918071  0.49166471  1
  O  O402  1  0.88746640  1.00350494  0.99524784  1
  O  O403  1  0.12387302  0.00576593  0.00553614  1
  O  O404  1  0.12941031  0.01240724  0.49631055  1
  O  O405  1  0.12387560  0.50015106  0.01237961  1
  O  O406  1  0.10922339  0.50151162  0.50607290  1
  O  O407  1  0.61616338  0.00441125  0.00621762  1
  O  O408  1  0.62645828  0.01176124  0.50835903  1
  O  O409  1  0.61488641  0.50849443  0.01062378  1
  O  O410  1  0.61310890  0.50022620  0.50079262  1
  O  O411  1  0.36371205  0.37304420  0.13124455  1
  O  O412  1  0.36651543  0.37127778  0.62000032  1
  O  O413  1  0.38078610  0.87939732  0.11294033  1
  O  O414  1  0.36996898  0.87232925  0.61934356  1
  O  O415  1  0.85943052  0.36533492  0.16352845  1
  O  O416  1  0.87659592  0.37530761  0.61428146  1
  O  O417  1  0.86856202  0.86571539  0.12998285  1
  O  O418  1  0.87352294  0.87217779  0.61995310  1
  O  O419  1  0.13152446  0.12999410  0.37937926  1
  O  O420  1  0.13883998  0.11519130  0.87889412  1
  O  O421  1  0.13647222  0.63297194  0.37711167  1
  O  O422  1  0.12587054  0.62637717  0.87171520  1
  O  O423  1  0.63817857  0.11886325  0.38426975  1
  O  O424  1  0.62999475  0.12942683  0.87764734  1
  O  O425  1  0.63210075  0.64043586  0.37405203  1
  O  O426  1  0.63041442  0.63080682  0.88016671  1
