# generated using pymatgen
data_V85Zn86O256
_symmetry_space_group_name_H-M   'P 1'
_cell_length_a   16.93940385
_cell_length_b   16.94867707
_cell_length_c   16.94521637
_cell_angle_alpha   89.92238126
_cell_angle_beta   89.95370178
_cell_angle_gamma   89.94056478
_symmetry_Int_Tables_number   1
_chemical_formula_structural   V85Zn86O256
_chemical_formula_sum   'V85 Zn86 O256'
_cell_volume   4864.97118428
_cell_formula_units_Z   1
loop_
 _symmetry_equiv_pos_site_id
 _symmetry_equiv_pos_as_xyz
  1  'x, y, z'
loop_
 _atom_site_type_symbol
 _atom_site_label
 _atom_site_symmetry_multiplicity
 _atom_site_fract_x
 _atom_site_fract_y
 _atom_site_fract_z
 _atom_site_occupancy
  V  V0  1  0.86757202  0.87723768  0.51045450  1
  V  V1  1  0.87353437  0.63187623  0.25046632  1
  V  V2  1  0.37310939  0.38140576  -0.00281513  1
  V  V3  1  0.63042250  0.87442145  0.74601999  1
  V  V4  1  0.50222840  0.12123900  0.62665247  1
  V  V5  1  0.48991439  0.87503087  0.87185286  1
  V  V6  1  0.37723948  0.75037822  0.12502076  1
  V  V7  1  0.37616239  0.62547688  0.25859952  1
  V  V8  1  0.50194573  0.24944605  0.75126407  1
  V  V9  1  0.25915673  0.49992959  0.75343670  1
  V  V10  1  0.23957478  0.73853839  -0.00118653  1
  V  V11  1  0.12750374  0.74401966  0.37598484  1
  V  V12  1  0.25130762  0.12216226  0.37609038  1
  V  V13  1  0.48870200  -0.00003207  0.00192271  1
  V  V14  1  0.12296096  0.00520737  0.12489052  1
  V  V15  1  0.74568889  0.62620855  0.38128705  1
  V  V16  1  0.86926496  0.49987183  0.87651091  1
  V  V17  1  0.24925840  0.87552771  0.12371298  1
  V  V18  1  0.62052837  0.87570681  0.24266120  1
  V  V19  1  0.74362215  -0.00001005  0.24300134  1
  V  V20  1  0.37636175  0.24801608  0.62496452  1
  V  V21  1  0.62302527  0.74920050  0.36984376  1
  V  V22  1  0.49683083  0.38518490  0.37114246  1
  V  V23  1  0.62974970  0.37631675  0.73596071  1
  V  V24  1  0.37430242  0.38710245  0.49754099  1
  V  V25  1  0.37498786  -0.00382179  0.37798994  1
  V  V26  1  -0.00050988  -0.00118650  0.50199226  1
  V  V27  1  0.12534468  0.49529407  0.62508703  1
  V  V28  1  0.87245748  0.75617965  0.10746518  1
  V  V29  1  0.12708309  -0.01195398  0.63245837  1
  V  V30  1  0.87172162  0.62839860  0.75964575  1
  V  V31  1  0.25030420  0.00038439  0.24987973  1
  V  V32  1  0.12689373  0.37010737  0.75809354  1
  V  V33  1  0.87386101  0.12495626  0.24965275  1
  V  V34  1  0.87229497  0.24918447  0.12563858  1
  V  V35  1  0.12815411  0.62422922  0.49893537  1
  V  V36  1  0.50115480  0.37904068  0.87305135  1
  V  V37  1  0.75094152  0.49650079  0.73513811  1
  V  V38  1  0.63887129  0.75215310  0.88108577  1
  V  V39  1  0.74622835  0.24753084  -0.00913295  1
  V  V40  1  -0.00321081  -0.00755609  -0.00432620  1
  V  V41  1  0.25803246  0.75148327  0.49734700  1
  V  V42  1  0.49926514  0.25173679  0.24668730  1
  V  V43  1  0.07214493  0.81857233  0.80742625  1
  V  V44  1  0.49773425  0.50742942  -0.00774831  1
  V  V45  1  0.62723618  0.50371777  0.12079387  1
  V  V46  1  0.74486390  0.75175490  0.50530789  1
  V  V47  1  -0.00444526  0.75334409  0.25178222  1
  V  V48  1  0.50063367  0.63130335  0.12472509  1
  V  V49  1  0.87501665  0.74681400  0.62827871  1
  V  V50  1  0.75105220  -0.00002502  0.74556169  1
  V  V51  1  0.12657378  0.12190853  0.50386524  1
  V  V52  1  0.75100212  0.50220865  0.24720343  1
  V  V53  1  0.87239122  0.00003274  0.37659651  1
  V  V54  1  0.87689224  0.37458552  -0.00040691  1
  V  V55  1  0.49761672  -0.00853724  0.50137456  1
  V  V56  1  0.52299927  0.50344999  0.50488263  1
  V  V57  1  0.64100092  0.63080675  -0.00263435  1
  V  V58  1  0.87006182  0.25295310  0.62489499  1
  V  V59  1  -0.00355721  0.62572789  0.63039589  1
  V  V60  1  0.00001274  0.37667596  0.37512158  1
  V  V61  1  0.74992448  0.87486636  0.11279709  1
  V  V62  1  0.37461346  0.12579534  0.24836343  1
  V  V63  1  0.49544905  0.87112898  0.37104903  1
  V  V64  1  0.12369041  0.87705580  0.25328549  1
  V  V65  1  0.26089976  0.12122376  0.87469474  1
  V  V66  1  0.62329263  0.24947976  0.37180158  1
  V  V67  1  0.74979288  0.37586161  0.12443124  1
  V  V68  1  0.74781121  0.12532326  0.37353755  1
  V  V69  1  0.62443584  0.12289973  0.50012010  1
  V  V70  1  0.13484733  0.37293808  0.24661990  1
  V  V71  1  0.63010315  0.11363723  -0.00077364  1
  V  V72  1  0.00457342  0.24672275  0.75461495  1
  V  V73  1  0.12410484  0.24896591  0.37887713  1
  V  V74  1  0.25796253  0.50124168  0.25479396  1
  V  V75  1  -0.00232995  0.87521065  0.37772310  1
  V  V76  1  0.37087805  0.25687047  0.12326478  1
  V  V77  1  0.87798903  0.50097793  0.37787261  1
  V  V78  1  0.24823197  0.25522993  -0.00485972  1
  V  V79  1  0.00033119  0.13131003  0.12323553  1
  V  V80  1  0.25294106  0.24891730  0.50094842  1
  V  V81  1  0.87140755  0.12602140  0.75960035  1
  V  V82  1  0.12180022  0.13288805  -0.01194773  1
  V  V83  1  0.87280803  -0.01295532  0.87829309  1
  V  V84  1  0.26371530  0.87144034  0.62735585  1
  Zn  Zn85  1  0.38210590  0.74120688  0.62511579  1
  Zn  Zn86  1  0.62652818  0.24709488  0.87340222  1
  Zn  Zn87  1  0.50325535  0.11884467  0.12586474  1
  Zn  Zn88  1  0.38390697  0.62457739  0.75552834  1
  Zn  Zn89  1  0.24594601  0.62104433  0.87782588  1
  Zn  Zn90  1  0.62405908  0.37710198  0.24611350  1
  Zn  Zn91  1  -0.00045078  0.12288091  0.62814879  1
  Zn  Zn92  1  0.12779147  0.50786634  0.12089931  1
  Zn  Zn93  1  0.74321291  0.25511340  0.50897389  1
  Zn  Zn94  1  -0.00121001  0.37290636  0.87342255  1
  Zn  Zn95  1  0.51332006  0.62492886  0.62934120  1
  Zn  Zn96  1  0.01027816  0.51236516  -0.00572947  1
  Zn  Zn97  1  0.00536190  0.62569257  0.11891468  1
  Zn  Zn98  1  0.36724026  0.87631161  -0.00567538  1
  Zn  Zn99  1  0.00229547  0.50072658  0.49696524  1
  Zn  Zn100  1  0.86865753  0.38296360  0.50984784  1
  Zn  Zn101  1  0.00046048  0.25087304  0.25074093  1
  Zn  Zn102  1  0.24792763  0.37179966  0.62416892  1
  Zn  Zn103  1  0.50117791  0.74504523  0.74830642  1
  Zn  Zn104  1  0.25296823  -0.01823867  0.76858659  1
  Zn  Zn105  1  0.38016763  0.11606190  0.75525512  1
  Zn  Zn106  1  0.63073419  -0.00583656  0.62317707  1
  Zn  Zn107  1  0.18790723  0.19253485  0.18416645  1
  Zn  Zn108  1  0.18824939  0.18486645  0.68855344  1
  Zn  Zn109  1  0.19140051  0.68684385  0.19029815  1
  Zn  Zn110  1  0.18790475  0.68599474  0.68642501  1
  Zn  Zn111  1  0.68390640  0.18592428  0.18088065  1
  Zn  Zn112  1  0.68829729  0.18440934  0.69117132  1
  Zn  Zn113  1  0.68957030  0.69250837  0.18610309  1
  Zn  Zn114  1  0.68865354  0.69021599  0.69325604  1
  Zn  Zn115  1  0.31340725  0.31292235  0.31629915  1
  Zn  Zn116  1  0.31514117  0.31291356  0.81387809  1
  Zn  Zn117  1  0.31341537  0.80765827  0.31071131  1
  Zn  Zn118  1  0.31011392  0.80052921  0.81133608  1
  Zn  Zn119  1  0.81052551  0.31361721  0.31458680  1
  Zn  Zn120  1  0.81258957  0.31425867  0.81017632  1
  Zn  Zn121  1  0.80848849  0.81670084  0.31358539  1
  Zn  Zn122  1  0.81584682  0.81306780  0.81362825  1
  Zn  Zn123  1  0.19098426  0.43964036  0.43491456  1
  Zn  Zn124  1  0.18770684  0.44441617  0.93373736  1
  Zn  Zn125  1  0.18865474  0.93267762  0.44171125  1
  Zn  Zn126  1  0.18106005  0.93827739  0.94147459  1
  Zn  Zn127  1  0.69253312  0.42951275  0.42926521  1
  Zn  Zn128  1  0.68766654  0.43923652  0.93212070  1
  Zn  Zn129  1  0.68484456  0.93566471  0.43399461  1
  Zn  Zn130  1  0.68646575  0.94073886  0.92901318  1
  Zn  Zn131  1  0.31243188  0.06788998  0.06230966  1
  Zn  Zn132  1  0.31583286  0.05736425  0.56875165  1
  Zn  Zn133  1  0.31095818  0.55857681  0.07145148  1
  Zn  Zn134  1  0.31227395  0.56667486  0.56981843  1
  Zn  Zn135  1  0.81127257  0.06059844  0.05997770  1
  Zn  Zn136  1  0.81165310  0.06863463  0.56809720  1
  Zn  Zn137  1  0.82486290  0.56647741  0.06173924  1
  Zn  Zn138  1  0.69770998  0.56367870  0.56571233  1
  Zn  Zn139  1  0.43698528  0.44184032  0.18137008  1
  Zn  Zn140  1  0.44126103  0.43609024  0.68103520  1
  Zn  Zn141  1  0.43742312  0.93691731  0.18540799  1
  Zn  Zn142  1  0.43462447  0.93695989  0.69148588  1
  Zn  Zn143  1  0.94264138  0.43973298  0.18811457  1
  Zn  Zn144  1  0.93990316  0.43753624  0.68868621  1
  Zn  Zn145  1  0.93403461  0.93913638  0.18442737  1
  Zn  Zn146  1  0.93956269  0.93672688  0.69136198  1
  Zn  Zn147  1  0.06055145  0.06385604  0.31371388  1
  Zn  Zn148  1  0.06232720  0.05669439  0.81228598  1
  Zn  Zn149  1  0.06763414  0.56642820  0.29628330  1
  Zn  Zn150  1  0.06139645  0.55824603  0.81157987  1
  Zn  Zn151  1  0.56089185  0.06031085  0.31077757  1
  Zn  Zn152  1  0.56429106  0.06010749  0.81843881  1
  Zn  Zn153  1  0.56229828  0.56517121  0.30890705  1
  Zn  Zn154  1  0.57245765  0.56518872  0.81180952  1
  Zn  Zn155  1  0.43873091  0.18693270  0.43714464  1
  Zn  Zn156  1  0.44094004  0.18962653  0.93865576  1
  Zn  Zn157  1  0.44408305  0.68545938  0.44100112  1
  Zn  Zn158  1  0.43104468  0.68869910  0.93137941  1
  Zn  Zn159  1  0.93851379  0.18747492  0.43989811  1
  Zn  Zn160  1  0.93540680  0.18786478  0.93638546  1
  Zn  Zn161  1  0.93719020  0.68649049  0.44172488  1
  Zn  Zn162  1  1.06228497  0.68061888  0.93670370  1
  Zn  Zn163  1  0.08250718  0.34225416  0.04368862  1
  Zn  Zn164  1  0.05555390  0.31175150  0.56531729  1
  Zn  Zn165  1  0.06009408  0.81280319  0.06711338  1
  Zn  Zn166  1  0.06075026  0.81031150  0.56666871  1
  Zn  Zn167  1  0.56301406  0.31366636  0.06067255  1
  Zn  Zn168  1  0.55934561  0.31236405  0.55939398  1
  Zn  Zn169  1  0.56175919  0.81485516  0.05896943  1
  Zn  Zn170  1  0.56420059  0.80951717  0.56270375  1
  O  O171  1  0.11727039  0.12344181  0.11898888  1
  O  O172  1  0.12947134  0.11441804  0.61391264  1
  O  O173  1  0.11161981  0.61603641  0.16382021  1
  O  O174  1  0.11687621  0.61741127  0.61914902  1
  O  O175  1  0.61804215  0.12966420  0.10630925  1
  O  O176  1  0.61956579  0.12269721  0.61608637  1
  O  O177  1  0.61876234  0.62576103  0.11902820  1
  O  O178  1  0.62954645  0.62994339  0.62182532  1
  O  O179  1  0.38817268  0.36744524  0.38442053  1
  O  O180  1  0.39088476  0.37223543  0.88257666  1
  O  O181  1  0.38787814  0.87757356  0.36686878  1
  O  O182  1  0.38641991  0.87162956  0.87504653  1
  O  O183  1  0.88577627  0.38461934  0.36583368  1
  O  O184  1  0.87304805  0.38009449  0.88335385  1
  O  O185  1  0.87867676  0.88277275  0.38417545  1
  O  O186  1  0.87768162  0.88850418  0.87375109  1
  O  O187  1  0.25529297  0.00180036  0.37157588  1
  O  O188  1  0.24723845  0.01709842  0.88159651  1
  O  O189  1  0.24931392  0.49767716  0.35679891  1
  O  O190  1  0.25245508  0.49366153  0.85636830  1
  O  O191  1  0.75309148  0.00592617  0.36549077  1
  O  O192  1  0.76562650  -0.00033940  0.86723818  1
  O  O193  1  0.75562339  0.50901575  0.36614053  1
  O  O194  1  0.76355376  0.49649979  0.86620068  1
  O  O195  1  0.24444739  0.50008886  0.14394648  1
  O  O196  1  0.23744242  0.49478647  0.62969628  1
  O  O197  1  0.24529248  0.99557484  0.12894002  1
  O  O198  1  0.24080771  0.98279708  0.61383706  1
  O  O199  1  0.74896729  0.49670823  0.12892848  1
  O  O200  1  0.75956870  0.49470802  0.63603202  1
  O  O201  1  0.75738538  0.99281863  0.13708421  1
  O  O202  1  0.75042305  1.00153976  0.63941986  1
  O  O203  1  0.01118264  0.37167525  0.26085258  1
  O  O204  1  0.00910273  0.36568671  0.74905093  1
  O  O205  1  0.00318121  0.87380677  0.25682984  1
  O  O206  1  0.00634565  0.86613671  0.74474857  1
  O  O207  1  0.49839279  0.37069993  0.25513946  1
  O  O208  1  0.50739560  0.37266666  0.75532108  1
  O  O209  1  0.50956031  0.88159376  0.25692315  1
  O  O210  1  0.50797863  0.87879735  0.76242570  1
  O  O211  1  0.49346673  0.13305619  0.24826410  1
  O  O212  1  0.50153901  0.12951249  0.74557922  1
  O  O213  1  0.49139687  0.61818434  0.23342666  1
  O  O214  1  0.50294989  0.62472307  0.74932884  1
  O  O215  1  0.99341991  0.12633177  0.24242176  1
  O  O216  1  0.99501731  0.12968838  0.74862091  1
  O  O217  1  0.98222155  0.63479766  0.25654350  1
  O  O218  1  0.98661469  0.61486027  0.73844254  1
  O  O219  1  0.37265388  0.25756266  0.00689283  1
  O  O220  1  0.37320339  0.25533858  0.50564805  1
  O  O221  1  0.36190910  0.75464563  0.01246171  1
  O  O222  1  0.36032363  0.74008518  0.49756688  1
  O  O223  1  0.86380966  0.25032456  0.00728702  1
  O  O224  1  0.87581824  0.24302361  0.51800961  1
  O  O225  1  0.87616710  0.75350242  0.01311859  1
  O  O226  1  0.86539195  0.75780558  0.50462113  1
  O  O227  1  0.12918110  0.24070822  0.49834390  1
  O  O228  1  0.13636863  0.24628893  1.00524887  1
  O  O229  1  0.12915891  0.74339677  0.49377463  1
  O  O230  1  0.13607600  0.74832693  1.01182702  1
  O  O231  1  0.62146204  0.24075579  0.49110569  1
  O  O232  1  0.63188472  0.24383752  0.99833195  1
  O  O233  1  0.63938525  0.76267719  0.48673467  1
  O  O234  1  0.62357233  0.74532792  0.98996299  1
  O  O235  1  0.49427756  0.25223142  0.13608364  1
  O  O236  1  0.49495382  0.24306116  0.63003272  1
  O  O237  1  0.49029816  0.74348195  0.11869622  1
  O  O238  1  0.49940453  0.74684812  0.62556127  1
  O  O239  1  0.99247590  0.23833640  0.12705080  1
  O  O240  1  0.99032215  0.24408952  0.63512670  1
  O  O241  1  0.98651029  0.75474031  0.13611755  1
  O  O242  1  0.98570547  0.74023344  0.61743246  1
  O  O243  1  0.00590049  0.25598095  0.37420566  1
  O  O244  1  -0.00632631  0.25104148  0.85898331  1
  O  O245  1  0.00513786  0.75683448  0.37211791  1
  O  O246  1  0.01886570  0.76655037  0.87682529  1
  O  O247  1  0.50412164  0.25509723  0.36348072  1
  O  O248  1  0.50077407  0.25814933  0.86599522  1
  O  O249  1  0.51045860  0.75962924  0.38245999  1
  O  O250  1  0.50716107  0.76602537  0.87890086  1
  O  O251  1  0.24470841  0.12690452  0.49573390  1
  O  O252  1  0.24329044  0.13275958  0.99213054  1
  O  O253  1  0.23473546  0.63343622  0.50692950  1
  O  O254  1  0.25064713  0.63661561  1.00821238  1
  O  O255  1  0.73778497  0.12709830  0.49495465  1
  O  O256  1  0.73755091  0.13072579  1.00461686  1
  O  O257  1  0.75069159  0.63423269  0.48719096  1
  O  O258  1  0.73936768  0.62217807  1.00710112  1
  O  O259  1  0.26508809  0.36936736  -0.00972859  1
  O  O260  1  0.25821020  0.36675448  0.49916799  1
  O  O261  1  0.24670680  0.87256220  0.01324749  1
  O  O262  1  0.24573746  0.86093904  0.50981097  1
  O  O263  1  0.75663830  0.36767039  0.00502541  1
  O  O264  1  0.76097305  0.36303784  0.48371867  1
  O  O265  1  0.74171160  0.88672810  0.01449155  1
  O  O266  1  0.75932046  0.86860785  0.49358265  1
  O  O267  1  0.13337480  0.48162134  0.25478436  1
  O  O268  1  0.13066743  0.48780602  0.74074820  1
  O  O269  1  0.13063112  0.99769308  0.24604708  1
  O  O270  1  0.13570846  1.00939231  0.73361113  1
  O  O271  1  0.63340154  0.50153271  0.24006379  1
  O  O272  1  0.64359008  0.49266123  0.75419708  1
  O  O273  1  0.63344469  0.99231165  0.25161256  1
  O  O274  1  0.63512442  0.99388383  0.75301336  1
  O  O275  1  0.36927293  0.00548050  0.25547351  1
  O  O276  1  0.35997686  0.00701103  0.73547571  1
  O  O277  1  0.37065304  0.51144039  0.24522806  1
  O  O278  1  0.36007836  0.49117353  0.74036102  1
  O  O279  1  0.86733464  0.00619859  0.25686630  1
  O  O280  1  0.87189400  0.00528117  0.75797239  1
  O  O281  1  0.86949436  0.51057636  0.25574891  1
  O  O282  1  0.86721314  0.50247763  0.75411374  1
  O  O283  1  0.11930132  0.36710162  0.37205330  1
  O  O284  1  0.12312161  0.37380678  0.86062567  1
  O  O285  1  0.11711358  0.86905686  0.37205086  1
  O  O286  1  0.13105901  0.88932322  0.85573296  1
  O  O287  1  0.61454935  0.36506444  0.36843872  1
  O  O288  1  0.61409239  0.37226813  0.86945281  1
  O  O289  1  0.61668744  0.87074098  0.36365729  1
  O  O290  1  0.61774879  0.86748257  0.87018156  1
  O  O291  1  0.37941127  0.13632652  0.13044659  1
  O  O292  1  0.38363583  0.13594047  0.62093210  1
  O  O293  1  0.38328605  0.63265213  0.12923183  1
  O  O294  1  0.38585859  0.62243391  0.63149941  1
  O  O295  1  0.88009013  0.12917180  0.12902188  1
  O  O296  1  0.87838406  0.13221730  0.63824579  1
  O  O297  1  0.87234983  0.64175208  0.13537091  1
  O  O298  1  0.88344297  0.63380228  0.63226524  1
  O  O299  1  0.26142712  0.24560268  0.11181262  1
  O  O300  1  0.25958895  0.24831423  0.61883342  1
  O  O301  1  0.25347744  0.75844879  0.12123627  1
  O  O302  1  0.24960668  0.75914760  0.61557079  1
  O  O303  1  0.75364537  0.25707040  0.11790816  1
  O  O304  1  0.76526058  0.24403965  0.62718128  1
  O  O305  1  0.76271494  0.76118607  0.12907019  1
  O  O306  1  0.76222757  0.74789040  0.61491010  1
  O  O307  1  0.24547023  0.24110715  0.38238539  1
  O  O308  1  0.25655887  0.24111576  0.88845548  1
  O  O309  1  0.23781732  0.75720917  0.38284591  1
  O  O310  1  0.24779285  0.75312708  0.89714356  1
  O  O311  1  0.73760802  0.24010096  0.36832246  1
  O  O312  1  0.74989118  0.25296206  0.88782450  1
  O  O313  1  0.74443919  0.74411914  0.38085267  1
  O  O314  1  0.73765906  0.75788667  0.87886914  1
  O  O315  1  0.00642213  0.12463109  0.00577764  1
  O  O316  1  0.00947106  0.11658705  0.50258879  1
  O  O317  1  -0.00584151  0.62423320  0.00585082  1
  O  O318  1  0.00984512  0.62346791  0.50890340  1
  O  O319  1  0.50403326  0.11246854  -0.00014173  1
  O  O320  1  0.51000484  0.11589819  0.50189038  1
  O  O321  1  0.50313390  0.62067087  0.00719436  1
  O  O322  1  0.50154045  0.60296611  0.49531267  1
  O  O323  1  0.49602904  0.38561215  0.49144151  1
  O  O324  1  0.49531202  0.38322968  0.99255812  1
  O  O325  1  0.50834986  0.88658806  0.48941097  1
  O  O326  1  0.49622608  0.88505997  0.99230828  1
  O  O327  1  0.99468523  0.37658355  0.48696519  1
  O  O328  1  0.97999814  0.35885832  0.99543441  1
  O  O329  1  0.99132612  0.88062799  0.49634847  1
  O  O330  1  1.00479587  0.89432644  1.01014917  1
  O  O331  1  0.50976248  0.48936575  0.38249778  1
  O  O332  1  0.50738988  0.49558117  0.88648403  1
  O  O333  1  0.49458157  0.99247062  0.38027384  1
  O  O334  1  0.50429969  0.98606900  0.88751244  1
  O  O335  1  0.99512308  0.49407728  0.36992097  1
  O  O336  1  0.98486051  0.49150385  0.87564834  1
  O  O337  1  0.99302787  0.99623891  0.38269710  1
  O  O338  1  0.98718300  1.00662603  0.88334253  1
  O  O339  1  0.00051702  0.01374311  0.11971738  1
  O  O340  1  0.01245405  0.00043871  0.62074649  1
  O  O341  1  0.00379529  0.50282495  0.12060864  1
  O  O342  1  0.00898615  0.50531983  0.62112438  1
  O  O343  1  0.49863065  -0.00206016  0.10774430  1
  O  O344  1  0.50275872  0.00346529  0.61596657  1
  O  O345  1  0.50852370  0.50750922  0.11288895  1
  O  O346  1  0.50634292  0.49456767  0.60624862  1
  O  O347  1  0.24220341  0.37856500  0.25576005  1
  O  O348  1  0.24399366  0.37802005  0.74578464  1
  O  O349  1  0.24520278  0.87979516  0.24121348  1
  O  O350  1  0.25261904  0.87018699  0.73207928  1
  O  O351  1  0.74835121  0.38293991  0.24230473  1
  O  O352  1  0.74370023  0.38516571  0.75121315  1
  O  O353  1  0.74112609  0.88403922  0.24564697  1
  O  O354  1  0.74179460  0.88478669  0.75692745  1
  O  O355  1  0.25401753  0.12008765  0.25526398  1
  O  O356  1  0.24977461  0.13307270  0.77078568  1
  O  O357  1  0.26795235  0.61771516  0.25074522  1
  O  O358  1  0.24790734  0.60520006  0.74490436  1
  O  O359  1  0.75157055  0.11753586  0.25140987  1
  O  O360  1  0.75822815  0.11516693  0.75131188  1
  O  O361  1  0.75824585  0.62431641  0.25780562  1
  O  O362  1  0.76380541  0.61123190  0.74604988  1
  O  O363  1  0.37037456  0.11917729  0.36809518  1
  O  O364  1  0.36428449  0.12661379  0.87730703  1
  O  O365  1  0.38841895  0.63090628  0.35615259  1
  O  O366  1  0.36144283  0.62859696  0.86980231  1
  O  O367  1  0.86826331  0.12046441  0.37103479  1
  O  O368  1  0.87672296  0.12046462  0.86279631  1
  O  O369  1  0.86683788  0.62125576  0.37025036  1
  O  O370  1  0.87810620  0.61724984  0.85892787  1
  O  O371  1  0.12613106  0.36019908  0.14840987  1
  O  O372  1  0.12438529  0.38176808  0.62776525  1
  O  O373  1  0.13011992  0.88408254  0.13399521  1
  O  O374  1  0.13034522  0.88524171  0.61966698  1
  O  O375  1  0.63337034  0.38338133  0.12334995  1
  O  O376  1  0.62189011  0.36932568  0.63659082  1
  O  O377  1  0.63190717  0.86631053  0.13630335  1
  O  O378  1  0.62173508  0.87567427  0.64204582  1
  O  O379  1  0.12782499  0.25516267  0.26274703  1
  O  O380  1  0.11610723  0.25731131  0.74009171  1
  O  O381  1  0.11907140  0.75856935  0.25993725  1
  O  O382  1  0.12744831  0.75037206  0.75453849  1
  O  O383  1  0.61462953  0.25057433  0.25212855  1
  O  O384  1  0.62014419  0.25683172  0.75216164  1
  O  O385  1  0.63030141  0.76017698  0.26157788  1
  O  O386  1  0.62627885  0.75865154  0.76443265  1
  O  O387  1  0.37949475  0.24768037  0.24304558  1
  O  O388  1  0.38315856  0.24773311  0.74033817  1
  O  O389  1  0.36962503  0.73788877  0.23690919  1
  O  O390  1  0.38116262  0.74737501  0.74436041  1
  O  O391  1  0.87397112  0.24254315  0.24285359  1
  O  O392  1  0.87889212  0.24357032  0.74358397  1
  O  O393  1  0.87863254  0.74622569  0.25482936  1
  O  O394  1  0.86668343  0.73701680  0.74366861  1
  O  O395  1  0.37225208  0.48788366  0.50293439  1
  O  O396  1  0.38419659  0.49153295  1.00804864  1
  O  O397  1  0.38621807  1.00545621  0.49023799  1
  O  O398  1  0.38480655  0.99875493  1.00105893  1
  O  O399  1  0.87931617  0.50058531  0.48086249  1
  O  O400  1  0.87310216  0.48895660  0.99298123  1
  O  O401  1  0.87705219  0.99516665  0.49910968  1
  O  O402  1  0.88100287  1.00750867  0.98590840  1
  O  O403  1  0.11664795  0.01328099  0.00715253  1
  O  O404  1  0.12017209  0.00520550  0.50570622  1
  O  O405  1  0.11279004  0.45590596  0.01463252  1
  O  O406  1  0.12534171  0.50661773  0.50506926  1
  O  O407  1  0.61837512  0.01039218  -0.00326841  1
  O  O408  1  0.61925300  0.00633805  0.50019935  1
  O  O409  1  0.61979821  0.50989025  0.00215065  1
  O  O410  1  0.62626080  0.49744535  0.49694561  1
  O  O411  1  0.38130842  0.36457959  0.11433291  1
  O  O412  1  0.37692165  0.36203736  0.61440665  1
  O  O413  1  0.36496460  0.86816447  0.12620932  1
  O  O414  1  0.36495771  0.87228373  0.61847287  1
  O  O415  1  0.86878564  0.36908828  0.12042033  1
  O  O416  1  0.88214861  0.35781257  0.62552855  1
  O  O417  1  0.86509294  0.86522983  0.12962373  1
  O  O418  1  0.88002000  0.86902298  0.61520564  1
  O  O419  1  0.12943228  0.12708826  0.38641857  1
  O  O420  1  0.13003399  0.12435960  0.88602071  1
  O  O421  1  0.11707790  0.63684356  0.38088814  1
  O  O422  1  0.13110258  0.60562903  0.88442550  1
  O  O423  1  0.62642665  0.12917816  0.38083230  1
  O  O424  1  0.61903255  0.13001621  0.89348527  1
  O  O425  1  0.63336414  0.63602175  0.36687724  1
  O  O426  1  0.62407431  0.64267269  0.88397285  1
