# generated using pymatgen
data_V85Zn86O256
_symmetry_space_group_name_H-M   'P 1'
_cell_length_a   16.92932093
_cell_length_b   16.92762079
_cell_length_c   16.92868465
_cell_angle_alpha   90.05619222
_cell_angle_beta   89.97577408
_cell_angle_gamma   89.99033581
_symmetry_Int_Tables_number   1
_chemical_formula_structural   V85Zn86O256
_chemical_formula_sum   'V85 Zn86 O256'
_cell_volume   4851.30322632
_cell_formula_units_Z   1
loop_
 _symmetry_equiv_pos_site_id
 _symmetry_equiv_pos_as_xyz
  1  'x, y, z'
loop_
 _atom_site_type_symbol
 _atom_site_label
 _atom_site_symmetry_multiplicity
 _atom_site_fract_x
 _atom_site_fract_y
 _atom_site_fract_z
 _atom_site_occupancy
  V  V0  1  0.74590604  0.62163001  0.35800547  1
  V  V1  1  0.24955637  0.87414629  0.62635597  1
  V  V2  1  0.49975100  0.00665638  0.50490506  1
  V  V3  1  0.61401622  0.37912489  0.76007185  1
  V  V4  1  0.50218202  0.12732927  0.12140221  1
  V  V5  1  0.11959808  0.75199969  0.87662746  1
  V  V6  1  0.38211082  0.14496092  0.74032431  1
  V  V7  1  0.40220194  0.35483929  0.53441005  1
  V  V8  1  0.37839812  0.37615130  -0.01801875  1
  V  V9  1  0.88793430  0.87762907  0.49511349  1
  V  V10  1  0.75474149  0.00633150  0.25130440  1
  V  V11  1  0.24744846  0.25119840  0.50669918  1
  V  V12  1  0.63521694  0.12507241  -0.00688444  1
  V  V13  1  0.37550299  0.75001891  0.12432209  1
  V  V14  1  0.62526348  0.87440406  0.74845300  1
  V  V15  1  0.37701699  0.48657176  0.37819244  1
  V  V16  1  0.37417857  0.74692687  0.62469788  1
  V  V17  1  0.23513973  0.38129278  0.62243484  1
  V  V18  1  0.62305077  0.01193108  0.62543794  1
  V  V19  1  0.49894004  0.74853063  0.74875513  1
  V  V20  1  0.49770512  0.87495901  0.87415543  1
  V  V21  1  0.26159090  -0.00037058  0.75181365  1
  V  V22  1  0.87441949  0.49397166  0.87731546  1
  V  V23  1  -0.00624726  0.24301854  0.25034055  1
  V  V24  1  0.24770977  0.74840195  0.49769765  1
  V  V25  1  0.11402432  0.37408602  0.76195333  1
  V  V26  1  0.24431655  0.24681864  -0.00065662  1
  V  V27  1  0.37417873  0.87694082  -0.00610382  1
  V  V28  1  0.88026017  0.00020386  0.87201505  1
  V  V29  1  0.11223674  0.87047399  0.25500653  1
  V  V30  1  0.62942110  0.50323808  0.62245776  1
  V  V31  1  0.88643456  0.00498451  0.37581718  1
  V  V32  1  0.50641556  0.25348954  0.26192223  1
  V  V33  1  0.25129315  0.49894453  0.25104256  1
  V  V34  1  0.49676847  0.00240983  -0.00603863  1
  V  V35  1  0.00176685  0.62765616  0.13013438  1
  V  V36  1  0.24800968  0.62414033  0.37941415  1
  V  V37  1  0.75125192  0.38216166  0.12343686  1
  V  V38  1  0.62798843  0.74821342  0.87457097  1
  V  V39  1  0.50201098  0.87595858  0.37538311  1
  V  V40  1  0.12496406  0.49977003  0.12558993  1
  V  V41  1  0.50295596  0.49857570  0.49408393  1
  V  V42  1  0.25046598  0.87508055  0.12533417  1
  V  V43  1  0.37531369  0.62370784  0.25221581  1
  V  V44  1  0.38077903  0.25276411  0.12243657  1
  V  V45  1  0.12541937  0.00685709  0.12184105  1
  V  V46  1  0.37479845  0.61192795  0.75126215  1
  V  V47  1  0.87243121  0.12707416  0.75264607  1
  V  V48  1  0.25200742  0.11937020  0.87825838  1
  V  V49  1  0.62952838  0.62177018  -0.00445218  1
  V  V50  1  0.86971764  0.24006253  0.12600405  1
  V  V51  1  0.00625148  0.00634990  -0.00652566  1
  V  V52  1  0.12399852  0.37318543  0.25028761  1
  V  V53  1  0.74907147  0.50555223  0.75904856  1
  V  V54  1  0.50145699  0.62270898  0.61816198  1
  V  V55  1  0.50191641  0.75048232  0.25127664  1
  V  V56  1  0.25087603  -0.00013600  0.25156652  1
  V  V57  1  0.74736004  0.73484209  0.50365152  1
  V  V58  1  0.11944419  0.00239224  0.62066054  1
  V  V59  1  0.74881765  0.00174275  0.75638828  1
  V  V60  1  0.74492092  0.12898446  0.37885464  1
  V  V61  1  0.12358780  0.24789398  0.37747953  1
  V  V62  1  0.75389938  0.74712165  -0.00484806  1
  V  V63  1  0.88441700  0.87356199  -0.00618036  1
  V  V64  1  0.74909322  0.87538921  0.61865647  1
  V  V65  1  0.87799983  0.62442356  0.75366144  1
  V  V66  1  0.62660326  -0.00008221  0.12331400  1
  V  V67  1  0.50102954  0.62129449  0.12372257  1
  V  V68  1  0.49631455  0.49680831  -0.01251396  1
  V  V69  1  0.87276555  0.24888504  0.62191679  1
  V  V70  1  0.62509255  0.74577251  0.38288691  1
  V  V71  1  -0.00205089  0.38212375  0.37880220  1
  V  V72  1  0.88072748  0.75143581  0.13224668  1
  V  V73  1  0.25314161  0.37385173  0.12477918  1
  V  V74  1  0.25314677  0.61901586  0.87489338  1
  V  V75  1  0.62982304  0.37692302  0.26097982  1
  V  V76  1  0.37625795  0.00036005  0.37572080  1
  V  V77  1  0.61992463  0.24507306  0.86663624  1
  V  V78  1  0.87659258  0.38449732  0.50401479  1
  V  V79  1  0.00167321  0.74565447  0.74523309  1
  V  V80  1  0.10496816  0.61908418  0.50468809  1
  V  V81  1  0.00126179  0.49137846  -0.00334684  1
  V  V82  1  0.12569823  0.62524071  -0.00062827  1
  V  V83  1  0.11850832  0.87876773  0.75507036  1
  V  V84  1  0.75236206  0.87680543  0.12706346  1
  Zn  Zn85  1  0.87819183  0.74860159  0.62414840  1
  Zn  Zn86  1  0.87856874  0.62058987  0.24892342  1
  Zn  Zn87  1  0.25050976  0.74987572  -0.00155259  1
  Zn  Zn88  1  0.00016773  0.12614627  0.12340215  1
  Zn  Zn89  1  0.75004612  0.37621993  0.62850222  1
  Zn  Zn90  1  0.62777985  0.49909491  0.12715951  1
  Zn  Zn91  1  0.11777070  0.24361881  0.88055374  1
  Zn  Zn92  1  -0.00602477  0.25163741  0.75819469  1
  Zn  Zn93  1  -0.00629850  0.12149964  0.61993472  1
  Zn  Zn94  1  0.10768566  0.75116421  0.37516505  1
  Zn  Zn95  1  0.74473802  0.25596866  0.49738757  1
  Zn  Zn96  1  0.62814356  0.87530841  0.25163817  1
  Zn  Zn97  1  0.11913282  0.12087310  0.49762594  1
  Zn  Zn98  1  0.25083942  0.12507348  0.37831605  1
  Zn  Zn99  1  0.75153935  0.24889137  -0.00675354  1
  Zn  Zn100  1  0.24515975  0.49813165  0.74848489  1
  Zn  Zn101  1  0.37762253  0.12611912  0.24937945  1
  Zn  Zn102  1  0.61718081  0.13732181  0.49872939  1
  Zn  Zn103  1  0.10086906  0.50352847  0.62516719  1
  Zn  Zn104  1  0.86804593  0.49863392  0.36897633  1
  Zn  Zn105  1  0.87911742  0.36703743  -0.00430915  1
  Zn  Zn106  1  0.37449153  0.87533764  0.50128189  1
  Zn  Zn107  1  0.18950425  0.18632748  0.18939578  1
  Zn  Zn108  1  0.18997998  0.18865916  0.69152972  1
  Zn  Zn109  1  0.18789434  0.68921030  0.18839911  1
  Zn  Zn110  1  0.18567281  0.68450806  0.68618739  1
  Zn  Zn111  1  0.68772247  0.18870940  0.18784352  1
  Zn  Zn112  1  0.68999808  0.19083172  0.69109434  1
  Zn  Zn113  1  0.68488178  0.69381534  0.18350052  1
  Zn  Zn114  1  0.69055441  0.68379930  0.68812451  1
  Zn  Zn115  1  0.31237572  0.30743297  0.31207979  1
  Zn  Zn116  1  0.30276997  0.31016936  0.80796809  1
  Zn  Zn117  1  0.31118538  0.81406020  0.31326578  1
  Zn  Zn118  1  0.30846986  0.80679361  0.81195783  1
  Zn  Zn119  1  0.81332427  0.31397810  0.31046561  1
  Zn  Zn120  1  0.80455940  0.31427998  0.81344130  1
  Zn  Zn121  1  0.93371728  0.81764504  0.31244997  1
  Zn  Zn122  1  0.81416367  0.81462659  0.81232535  1
  Zn  Zn123  1  0.18451314  0.43752686  0.43936016  1
  Zn  Zn124  1  0.19146602  0.43715459  0.93782984  1
  Zn  Zn125  1  0.18666522  0.93468502  0.43694878  1
  Zn  Zn126  1  0.18930407  0.93859008  0.93561558  1
  Zn  Zn127  1  0.68933769  0.43859305  0.44228459  1
  Zn  Zn128  1  0.68976987  0.43663890  0.93867119  1
  Zn  Zn129  1  0.68847714  0.93908963  0.43769415  1
  Zn  Zn130  1  0.68880202  0.93469091  0.93804783  1
  Zn  Zn131  1  0.31435757  0.06317768  0.06220543  1
  Zn  Zn132  1  0.30944208  0.06531774  0.56455381  1
  Zn  Zn133  1  0.31429479  0.56045759  0.06007457  1
  Zn  Zn134  1  0.30954175  0.55254179  0.56387244  1
  Zn  Zn135  1  0.81641531  0.06169631  0.05935875  1
  Zn  Zn136  1  0.81173690  0.06130574  0.56109185  1
  Zn  Zn137  1  0.81531751  0.56245924  0.06251962  1
  Zn  Zn138  1  0.83063383  0.55763306  0.57193313  1
  Zn  Zn139  1  0.44248041  0.43532965  0.18760102  1
  Zn  Zn140  1  0.43899946  0.42550496  0.68462493  1
  Zn  Zn141  1  0.43907028  0.93771322  0.18563020  1
  Zn  Zn142  1  0.43779710  0.93730376  0.68517109  1
  Zn  Zn143  1  0.93370721  0.43591078  0.19000543  1
  Zn  Zn144  1  0.94135702  0.43985073  0.68645235  1
  Zn  Zn145  1  0.93521208  0.94584883  0.18301135  1
  Zn  Zn146  1  0.93776464  0.93251341  0.68789090  1
  Zn  Zn147  1  0.06471856  0.06384737  0.31067708  1
  Zn  Zn148  1  0.06287093  0.06645721  0.81036470  1
  Zn  Zn149  1  0.06262041  0.56537151  0.31488551  1
  Zn  Zn150  1  0.06102248  0.56037733  0.81291006  1
  Zn  Zn151  1  0.56483489  0.06414504  0.30959910  1
  Zn  Zn152  1  0.55746183  0.06428596  0.81140203  1
  Zn  Zn153  1  0.56530622  0.56017234  0.31192268  1
  Zn  Zn154  1  0.56157572  0.56442606  0.81187916  1
  Zn  Zn155  1  0.43419334  0.18584234  0.43890056  1
  Zn  Zn156  1  0.43627219  0.18897160  0.92872932  1
  Zn  Zn157  1  0.43472375  0.68476574  0.43766034  1
  Zn  Zn158  1  0.43768654  0.68674346  0.93656223  1
  Zn  Zn159  1  0.93725576  0.18704549  0.44242345  1
  Zn  Zn160  1  0.93541438  0.18524710  0.93608339  1
  Zn  Zn161  1  0.92825916  0.68869357  0.43651488  1
  Zn  Zn162  1  0.93955970  0.68082094  0.93503483  1
  Zn  Zn163  1  0.06145303  0.31079291  0.06563950  1
  Zn  Zn164  1  0.05614135  0.30828183  0.56560847  1
  Zn  Zn165  1  0.06366185  0.81620941  0.06368390  1
  Zn  Zn166  1  0.06616223  0.80928689  0.56436032  1
  Zn  Zn167  1  0.56598598  0.31357091  0.05780725  1
  Zn  Zn168  1  0.56958888  0.31729641  0.56463976  1
  Zn  Zn169  1  0.56346535  0.81152109  0.06157194  1
  Zn  Zn170  1  0.56257532  0.81648967  0.56121793  1
  O  O171  1  0.12727828  0.11023399  0.12797086  1
  O  O172  1  0.12731616  0.10827038  0.63140080  1
  O  O173  1  0.12249174  0.62117181  0.11869204  1
  O  O174  1  0.12570839  0.62707958  0.60744965  1
  O  O175  1  0.62071828  0.12002663  0.11439618  1
  O  O176  1  0.62790954  0.11431732  0.62802417  1
  O  O177  1  0.61755896  0.62468640  0.11527979  1
  O  O178  1  0.61429363  0.61303706  0.63349460  1
  O  O179  1  0.37207155  0.38682114  0.37038968  1
  O  O180  1  0.36721361  0.37166572  0.88348598  1
  O  O181  1  0.38164112  0.88511763  0.37593434  1
  O  O182  1  0.37828504  0.86576720  0.88727374  1
  O  O183  1  0.88148529  0.37453949  0.38218416  1
  O  O184  1  0.87119130  0.38814550  0.87712731  1
  O  O185  1  0.87419619  0.88562386  0.38721989  1
  O  O186  1  0.87213833  0.88635305  0.88262973  1
  O  O187  1  0.25806835  -0.00157071  0.36873454  1
  O  O188  1  0.25094377  0.01042778  0.86916112  1
  O  O189  1  0.25607450  0.50627385  0.37152961  1
  O  O190  1  0.24671953  0.51463251  0.87229313  1
  O  O191  1  0.75619038  0.00467683  0.36703712  1
  O  O192  1  0.75484663  -0.00897739  0.86100092  1
  O  O193  1  0.74215597  0.52056073  0.37968078  1
  O  O194  1  0.75856381  0.50138397  0.87144405  1
  O  O195  1  0.24544188  0.49562916  0.13136969  1
  O  O196  1  0.22964556  0.49560421  0.62533518  1
  O  O197  1  0.24594819  0.99473474  0.13091353  1
  O  O198  1  0.24375367  0.99196430  0.63338668  1
  O  O199  1  0.75046296  0.48612925  0.12265984  1
  O  O200  1  0.74281500  0.50231177  0.63412465  1
  O  O201  1  0.74921047  0.99604028  0.12924590  1
  O  O202  1  0.74213193  0.99291091  0.63203437  1
  O  O203  1  0.00767249  0.36414997  0.25508369  1
  O  O204  1  0.01034945  0.37377140  0.75267323  1
  O  O205  1  0.00888051  0.87867801  0.24423762  1
  O  O206  1  0.01272471  0.86835491  0.75161888  1
  O  O207  1  0.51207506  0.36149099  0.24502027  1
  O  O208  1  0.51562723  0.38923622  0.76012426  1
  O  O209  1  0.50129518  0.86888787  0.25775939  1
  O  O210  1  0.50444582  0.86873572  0.75483704  1
  O  O211  1  0.50247745  0.13583469  0.24057403  1
  O  O212  1  0.48073128  0.12363934  0.75550756  1
  O  O213  1  0.49666773  0.63010186  0.24212437  1
  O  O214  1  0.49237676  0.62900000  0.74096294  1
  O  O215  1  1.00592876  0.13903363  0.24610788  1
  O  O216  1  0.98289433  0.12025268  0.74401582  1
  O  O217  1  1.00558823  0.62404490  0.23387570  1
  O  O218  1  0.99326088  0.63494516  0.75610419  1
  O  O219  1  0.36892709  0.25691082  0.00533196  1
  O  O220  1  0.36558448  0.26152857  0.49290177  1
  O  O221  1  0.37563977  0.75719684  0.00799965  1
  O  O222  1  0.36578594  0.75012662  0.50630396  1
  O  O223  1  0.87129374  0.24918833  0.00885199  1
  O  O224  1  0.86861095  0.25808754  0.50791886  1
  O  O225  1  0.87081524  0.75575833  0.00120586  1
  O  O226  1  0.86348550  0.76319259  0.50205894  1
  O  O227  1  0.13055661  0.25084755  0.49211422  1
  O  O228  1  0.14096199  0.25299051  1.00547026  1
  O  O229  1  0.13234443  0.74117850  0.49621378  1
  O  O230  1  0.12653986  0.74614074  0.99337405  1
  O  O231  1  0.63129636  0.24859884  0.50804112  1
  O  O232  1  0.62771122  0.23924685  0.99275294  1
  O  O233  1  0.63118908  0.75287358  0.49200576  1
  O  O234  1  0.63372215  0.74364814  0.99635906  1
  O  O235  1  0.49469010  0.24575207  0.12573150  1
  O  O236  1  0.46707504  0.31988250  0.61313801  1
  O  O237  1  0.49667582  0.73998525  0.12844725  1
  O  O238  1  0.49620475  0.74222139  0.62704619  1
  O  O239  1  0.99129658  0.24840427  0.13180070  1
  O  O240  1  0.98408951  0.24782253  0.63483182  1
  O  O241  1  0.99182124  0.74185474  0.11570462  1
  O  O242  1  0.99862214  0.75544393  0.64061210  1
  O  O243  1  0.00549216  0.25564928  0.36753981  1
  O  O244  1  0.00564797  0.24020378  0.87142068  1
  O  O245  1  -0.00437531  0.74507955  0.36816807  1
  O  O246  1  0.01362770  0.74599283  0.86911032  1
  O  O247  1  0.49642008  0.24477533  0.35986471  1
  O  O248  1  0.51983409  0.25374991  0.88406928  1
  O  O249  1  0.50528664  0.75441926  0.37387040  1
  O  O250  1  0.50678656  0.75546128  0.86958861  1
  O  O251  1  0.24476645  0.13561070  0.49867437  1
  O  O252  1  0.25747282  0.13056522  0.98792771  1
  O  O253  1  0.25198148  0.62915630  0.48997422  1
  O  O254  1  0.24507911  0.62653602  0.99360179  1
  O  O255  1  0.74651073  0.12275735  0.48695017  1
  O  O256  1  0.73757653  0.12017519  0.99840772  1
  O  O257  1  0.75865263  0.63465642  0.50727339  1
  O  O258  1  0.74157423  0.63483878  1.00723040  1
  O  O259  1  0.25903949  0.36853670  0.00648640  1
  O  O260  1  0.24541364  0.36859405  0.50837154  1
  O  O261  1  0.25893183  0.87428309  0.00579681  1
  O  O262  1  0.25016924  0.86391515  0.50526976  1
  O  O263  1  0.75231470  0.37207562  0.01301361  1
  O  O264  1  0.76028539  0.37485809  0.50486276  1
  O  O265  1  0.76033162  0.87078418  0.00832977  1
  O  O266  1  0.75118273  0.86994601  0.51018297  1
  O  O267  1  0.13246414  0.49440710  0.24656542  1
  O  O268  1  0.12272914  0.48756246  0.74935358  1
  O  O269  1  0.13131637  0.99075786  0.24448586  1
  O  O270  1  0.13412268  0.99233091  0.74477094  1
  O  O271  1  0.61581490  0.48172266  0.24449483  1
  O  O272  1  0.63093715  0.49658809  0.74987940  1
  O  O273  1  0.63261898  0.99666538  0.24053452  1
  O  O274  1  0.63022534  0.99539141  0.74582101  1
  O  O275  1  0.36854338  -0.00022510  0.25620113  1
  O  O276  1  0.36300933  -0.00601692  0.75019664  1
  O  O277  1  0.37132020  0.50468228  0.25507191  1
  O  O278  1  0.37341168  0.51013561  0.74424437  1
  O  O279  1  0.86753182  -0.00597777  0.26407262  1
  O  O280  1  0.86830778  0.00043452  0.75468812  1
  O  O281  1  0.87873515  0.50592881  0.25559318  1
  O  O282  1  0.86854889  0.50472286  0.75907012  1
  O  O283  1  0.11874083  0.36528642  0.37127027  1
  O  O284  1  0.13130106  0.37191275  0.86401345  1
  O  O285  1  0.12561859  0.87571466  0.35896686  1
  O  O286  1  0.13331028  0.86490904  0.86621134  1
  O  O287  1  0.63488813  0.37633726  0.35988697  1
  O  O288  1  0.62749233  0.37035562  0.86508245  1
  O  O289  1  0.61931599  0.86658347  0.37418120  1
  O  O290  1  0.61958766  0.86840100  0.86860297  1
  O  O291  1  0.38218104  0.13618645  0.12512794  1
  O  O292  1  0.37016675  0.12175760  0.64163983  1
  O  O293  1  0.38108806  0.62964200  0.13091915  1
  O  O294  1  0.37984982  0.62767103  0.63068910  1
  O  O295  1  0.87478927  0.13542287  0.12516425  1
  O  O296  1  0.87151534  0.13042058  0.63152991  1
  O  O297  1  0.88425979  0.63429015  0.12356407  1
  O  O298  1  0.86884901  0.63323155  0.64676224  1
  O  O299  1  0.26015118  0.25159575  0.12035408  1
  O  O300  1  0.24174147  0.25986897  0.61308439  1
  O  O301  1  0.25748687  0.75690951  0.12361527  1
  O  O302  1  0.25289135  0.75293940  0.61605985  1
  O  O303  1  0.75634180  0.25570422  0.12273733  1
  O  O304  1  0.76162868  0.25468348  0.62857317  1
  O  O305  1  0.75671706  0.75846530  0.11433266  1
  O  O306  1  0.74837189  0.75853540  0.62001444  1
  O  O307  1  0.24096337  0.25034840  0.38313509  1
  O  O308  1  0.24500153  0.24097556  0.88423354  1
  O  O309  1  0.25030025  0.74350348  0.38462703  1
  O  O310  1  0.23830337  0.73837772  0.87575348  1
  O  O311  1  0.75822589  0.23081468  0.37120143  1
  O  O312  1  0.73028401  0.25491064  0.87826797  1
  O  O313  1  0.73840047  0.73534577  0.38669395  1
  O  O314  1  0.74545986  0.75732691  0.88812167  1
  O  O315  1  -0.00258248  0.10960414  0.00337455  1
  O  O316  1  0.00625323  0.12843061  0.50718652  1
  O  O317  1  0.00817253  0.61630115  0.00904054  1
  O  O318  1  0.00678927  0.62917743  0.49760756  1
  O  O319  1  0.50469043  0.11704854  0.00112967  1
  O  O320  1  0.50009379  0.11181722  0.49636914  1
  O  O321  1  0.50530121  0.62075120  0.00733210  1
  O  O322  1  0.49395466  0.61805447  0.51219103  1
  O  O323  1  0.49761662  0.38916972  0.48673578  1
  O  O324  1  0.49075495  0.38500685  1.00493203  1
  O  O325  1  0.49762387  0.88517622  0.49086194  1
  O  O326  1  0.49372692  0.88073663  0.99609559  1
  O  O327  1  0.98981070  0.36529009  0.48903514  1
  O  O328  1  0.99897363  0.38748901  1.00729584  1
  O  O329  1  0.98616192  0.87031802  0.50482625  1
  O  O330  1  0.98862802  0.88334794  1.00379571  1
  O  O331  1  0.48927332  0.51409529  0.38507805  1
  O  O332  1  0.49755943  0.50923175  0.88866683  1
  O  O333  1  0.49476756  0.99505442  0.37803521  1
  O  O334  1  0.50439476  0.99137630  0.88687075  1
  O  O335  1  1.00320761  0.48428534  0.37088384  1
  O  O336  1  0.99189282  0.50481316  0.88751836  1
  O  O337  1  0.98586126  1.00479470  0.37024532  1
  O  O338  1  0.99416675  1.00068134  0.88005054  1
  O  O339  1  0.00865620  0.00267291  0.11675304  1
  O  O340  1  0.01703198  -0.00404956  0.63104149  1
  O  O341  1  0.00743118  0.50599099  0.11840330  1
  O  O342  1  -0.01093108  0.50904995  0.61738404  1
  O  O343  1  0.50580581  0.00534792  0.11508208  1
  O  O344  1  0.50991020  -0.00762849  0.61577447  1
  O  O345  1  0.49946626  0.51253019  0.11913187  1
  O  O346  1  0.50521843  0.50578332  0.61645394  1
  O  O347  1  0.24482451  0.37823822  0.24425981  1
  O  O348  1  0.23680757  0.37759068  0.74010108  1
  O  O349  1  0.24596290  0.88517843  0.24519112  1
  O  O350  1  0.24219017  0.87927014  0.74620788  1
  O  O351  1  0.73754923  0.36739010  0.23902384  1
  O  O352  1  0.74136680  0.39097307  0.74984836  1
  O  O353  1  0.74936592  0.88614507  0.23242336  1
  O  O354  1  0.74630650  0.87936236  0.73833862  1
  O  O355  1  0.25305783  0.11085487  0.25188985  1
  O  O356  1  0.25955581  0.11757734  0.75649636  1
  O  O357  1  0.25280121  0.62121723  0.26124725  1
  O  O358  1  0.25733171  0.62357678  0.75553105  1
  O  O359  1  0.74536308  0.11296481  0.25770911  1
  O  O360  1  0.76022645  0.11299530  0.74664394  1
  O  O361  1  0.74692862  0.62863328  0.25616365  1
  O  O362  1  0.75454640  0.61368051  0.75344235  1
  O  O363  1  0.37330784  0.11193492  0.37122945  1
  O  O364  1  0.36013394  0.13192459  0.86303728  1
  O  O365  1  0.36608033  0.61784545  0.36947318  1
  O  O366  1  0.36601010  0.63364793  0.86365479  1
  O  O367  1  0.86480021  0.10977410  0.38171551  1
  O  O368  1  0.87175899  0.10887697  0.86862973  1
  O  O369  1  0.85565791  0.62606886  0.37102800  1
  O  O370  1  0.87633162  0.61393713  0.86550263  1
  O  O371  1  0.13265941  0.38039307  0.13073550  1
  O  O372  1  0.12433295  0.37740923  0.63164839  1
  O  O373  1  0.13065927  0.88285186  0.13544534  1
  O  O374  1  0.13120676  0.88172322  0.63308506  1
  O  O375  1  0.63810366  0.37424364  0.12873724  1
  O  O376  1  0.62686305  0.38963305  0.64116793  1
  O  O377  1  0.63443124  0.88174126  0.12114152  1
  O  O378  1  0.63106284  0.88212344  0.63137301  1
  O  O379  1  0.12202292  0.25563340  0.25651371  1
  O  O380  1  0.12347384  0.26388958  0.74972801  1
  O  O381  1  0.13060604  0.76814849  0.24996110  1
  O  O382  1  0.11995775  0.75470108  0.75564713  1
  O  O383  1  0.61369335  0.25846977  0.24633376  1
  O  O384  1  0.62511779  0.26363185  0.75671373  1
  O  O385  1  0.61815721  0.75432832  0.25829450  1
  O  O386  1  0.61963079  0.75328043  0.75436800  1
  O  O387  1  0.38725865  0.24961879  0.24160650  1
  O  O388  1  0.37241512  0.24509992  0.74545155  1
  O  O389  1  0.38084638  0.74450958  0.24568648  1
  O  O390  1  0.38058852  0.74275207  0.74180842  1
  O  O391  1  0.88423788  0.25424170  0.24084421  1
  O  O392  1  0.86978629  0.24104031  0.74763761  1
  O  O393  1  0.87276483  0.75065347  0.23423063  1
  O  O394  1  0.88500086  0.74444830  0.75585622  1
  O  O395  1  0.38377982  0.49002363  0.49486951  1
  O  O396  1  0.38303591  0.48774679  1.00421579  1
  O  O397  1  0.37990729  0.99840909  0.49329700  1
  O  O398  1  0.38508215  0.98981635  1.00514343  1
  O  O399  1  0.87216494  0.48810519  0.49138851  1
  O  O400  1  0.88436609  0.49953259  0.99416517  1
  O  O401  1  0.86947486  0.98670117  0.48995826  1
  O  O402  1  0.88170107  0.99272391  0.99132575  1
  O  O403  1  0.11703618  -0.01019873  0.00857338  1
  O  O404  1  0.13285555  -0.00175599  0.51686031  1
  O  O405  1  0.12021138  0.50374825  0.00512314  1
  O  O406  1  0.12375417  0.51738557  0.49553627  1
  O  O407  1  0.61871708  0.00496717  0.00256866  1
  O  O408  1  0.61740562  0.00120976  0.50970326  1
  O  O409  1  0.61791007  0.50708579  0.00270262  1
  O  O410  1  0.61640080  0.49673516  0.51079655  1
  O  O411  1  0.37160933  0.36452292  0.12328282  1
  O  O412  1  0.34660016  0.39806239  0.61970114  1
  O  O413  1  0.37166197  0.87003640  0.11645413  1
  O  O414  1  0.36773015  0.86503110  0.62385394  1
  O  O415  1  0.86331362  0.36523339  0.12474201  1
  O  O416  1  0.87376366  0.36846146  0.61868637  1
  O  O417  1  0.87090531  0.87038407  0.11583690  1
  O  O418  1  0.86662345  0.87527728  0.61440659  1
  O  O419  1  0.12841867  0.13682890  0.37380767  1
  O  O420  1  0.14583209  0.12571858  0.86531715  1
  O  O421  1  0.13255062  0.62917717  0.38345424  1
  O  O422  1  0.13082076  0.63060649  0.88139450  1
  O  O423  1  0.64043135  0.11727230  0.37787398  1
  O  O424  1  0.62245433  0.13492563  0.87749636  1
  O  O425  1  0.63144821  0.63490533  0.37102411  1
  O  O426  1  0.62057431  0.63205611  0.88822289  1
