# generated using pymatgen
data_V85Zn86O256
_symmetry_space_group_name_H-M   'P 1'
_cell_length_a   16.95040566
_cell_length_b   16.95658683
_cell_length_c   16.94679405
_cell_angle_alpha   90.02547180
_cell_angle_beta   90.02279082
_cell_angle_gamma   89.97756736
_symmetry_Int_Tables_number   1
_chemical_formula_structural   V85Zn86O256
_chemical_formula_sum   'V85 Zn86 O256'
_cell_volume   4870.86368217
_cell_formula_units_Z   1
loop_
 _symmetry_equiv_pos_site_id
 _symmetry_equiv_pos_as_xyz
  1  'x, y, z'
loop_
 _atom_site_type_symbol
 _atom_site_label
 _atom_site_symmetry_multiplicity
 _atom_site_fract_x
 _atom_site_fract_y
 _atom_site_fract_z
 _atom_site_occupancy
  V  V0  1  0.01337237  0.13277570  0.11665290  1
  V  V1  1  0.37775533  -0.01013484  0.36907955  1
  V  V2  1  0.24749110  -0.00067810  0.74837990  1
  V  V3  1  0.23806802  0.00032519  0.25836542  1
  V  V4  1  0.37222639  0.50397575  0.36139933  1
  V  V5  1  0.37375720  0.25144294  0.62625819  1
  V  V6  1  -0.00044939  0.50141042  0.49754027  1
  V  V7  1  0.25141718  0.62371084  0.36247657  1
  V  V8  1  0.37525455  0.62330189  0.75135042  1
  V  V9  1  0.49910640  0.25221618  0.75805451  1
  V  V10  1  0.11417794  0.76106251  0.37484463  1
  V  V11  1  0.62500857  0.62615893  0.49572384  1
  V  V12  1  0.12430734  0.37314635  0.75025984  1
  V  V13  1  0.25003435  0.49898562  0.75098005  1
  V  V14  1  0.87702527  0.74667020  0.63865246  1
  V  V15  1  0.49720781  0.11672154  0.12027814  1
  V  V16  1  -0.00436288  0.62652401  0.63805148  1
  V  V17  1  0.12276446  -0.00152719  0.10472223  1
  V  V18  1  0.86979041  0.37210965  -0.00293061  1
  V  V19  1  0.62340816  0.12870199  0.48839148  1
  V  V20  1  0.12552879  0.12606662  0.49791586  1
  V  V21  1  0.87259378  0.24933898  0.62259555  1
  V  V22  1  0.74770663  0.36476730  0.12254588  1
  V  V23  1  0.49919081  0.62440623  0.62369220  1
  V  V24  1  0.87982722  0.88299955  0.00213112  1
  V  V25  1  0.75334789  0.74621484  0.00526588  1
  V  V26  1  0.87202694  0.51227746  0.87257341  1
  V  V27  1  0.25805480  0.75818334  -0.00348585  1
  V  V28  1  0.62458461  0.49575743  0.12641190  1
  V  V29  1  0.49563925  0.62184568  0.13975958  1
  V  V30  1  0.75108360  0.51179235  0.75600238  1
  V  V31  1  0.25191668  0.24801467  0.48648407  1
  V  V32  1  0.88049515  0.25067766  0.12738033  1
  V  V33  1  0.00662663  0.50360251  0.00715907  1
  V  V34  1  0.49841620  0.50000195  0.49843236  1
  V  V35  1  0.24775444  0.62542715  0.88011919  1
  V  V36  1  0.37450056  0.74899482  0.62448528  1
  V  V37  1  0.37896268  0.49744898  0.87813407  1
  V  V38  1  0.37682548  0.37323121  -0.00103936  1
  V  V39  1  0.37529000  0.24645070  0.12847441  1
  V  V40  1  -0.00240666  0.25070422  0.74990293  1
  V  V41  1  0.62942892  0.62108884  -0.00024041  1
  V  V42  1  0.74389381  0.25393005  0.49046723  1
  V  V43  1  0.87826139  0.88061524  0.49265319  1
  V  V44  1  0.75155536  0.87623952  0.62473972  1
  V  V45  1  0.49964397  0.76888711  0.25532276  1
  V  V46  1  -0.00145980  0.37565327  0.87572278  1
  V  V47  1  0.76134628  -0.00575938  0.25442778  1
  V  V48  1  0.11661344  0.74961333  0.86976385  1
  V  V49  1  0.62092200  0.37477170  0.75852061  1
  V  V50  1  0.12276459  0.49982212  0.62394746  1
  V  V51  1  0.50203317  0.74774181  0.75272132  1
  V  V52  1  0.11050361  0.37872858  0.25714109  1
  V  V53  1  0.37500059  0.74919240  0.12945670  1
  V  V54  1  0.75036992  0.12865448  0.88165769  1
  V  V55  1  0.11544633  0.87179623  0.74512476  1
  V  V56  1  0.37456484  0.37690704  0.49940910  1
  V  V57  1  0.37185745  0.12129281  0.25913606  1
  V  V58  1  0.49682797  0.49994108  0.00144839  1
  V  V59  1  0.74992584  0.49791553  0.24741274  1
  V  V60  1  0.62984826  0.74471890  0.87607149  1
  V  V61  1  0.24858236  0.37489071  0.62334041  1
  V  V62  1  0.75250439  0.74943261  0.49542480  1
  V  V63  1  0.25374768  0.87938925  0.12570228  1
  V  V64  1  0.62667092  0.87636543  0.75395164  1
  V  V65  1  0.74810178  0.37627160  0.62857633  1
  V  V66  1  0.62321766  0.25137359  0.88808027  1
  V  V67  1  0.24188035  0.12436605  0.87832932  1
  V  V68  1  0.87625340  0.49661078  0.37328399  1
  V  V69  1  0.62304525  -0.01232911  0.13641253  1
  V  V70  1  0.88027496  0.37468569  0.50054010  1
  V  V71  1  0.25149121  0.38098381  0.13793344  1
  V  V72  1  0.62507187  0.50006591  0.62694554  1
  V  V73  1  0.37341158  0.12525177  0.75220898  1
  V  V74  1  0.24115044  0.24887695  0.00223007  1
  V  V75  1  0.62435441  0.11068967  0.00196596  1
  V  V76  1  0.50426882  0.36787446  0.37239215  1
  V  V77  1  0.50032890  -0.00579726  0.49580819  1
  V  V78  1  0.25273358  0.87546810  0.62270000  1
  V  V79  1  0.87292417  0.12316463  0.75027269  1
  V  V80  1  0.62210059  0.76442088  0.37235337  1
  V  V81  1  0.88820459  0.62746864  0.24160658  1
  V  V82  1  0.10804711  0.24768073  0.36892210  1
  V  V83  1  0.62155104  0.00334167  0.62376380  1
  V  V84  1  0.25080731  0.74650682  0.49749277  1
  Zn  Zn85  1  0.00056351  0.12057118  0.62319474  1
  Zn  Zn86  1  0.74992204  0.00248269  0.75235872  1
  Zn  Zn87  1  0.75094220  0.62511443  0.37029780  1
  Zn  Zn88  1  0.37608332  -0.00857934  0.89854298  1
  Zn  Zn89  1  0.12577502  0.50689936  0.14049887  1
  Zn  Zn90  1  0.50012999  0.88043968  0.89901066  1
  Zn  Zn91  1  0.00481572  -0.01072401  0.48806593  1
  Zn  Zn92  1  0.12270339  0.00093306  0.61872889  1
  Zn  Zn93  1  0.50823744  0.24139947  0.25439296  1
  Zn  Zn94  1  0.75286214  0.86852082  0.12985297  1
  Zn  Zn95  1  0.50196453  0.12716045  0.62522124  1
  Zn  Zn96  1  0.12238376  0.62582127  0.49970877  1
  Zn  Zn97  1  0.37935818  0.87382823  0.49778715  1
  Zn  Zn98  1  0.10894313  0.64441338  0.02109159  1
  Zn  Zn99  1  -0.00265295  0.88147168  0.87227921  1
  Zn  Zn100  1  0.03249248  0.78960860  0.22275729  1
  Zn  Zn101  1  0.87981205  0.00580971  0.88300629  1
  Zn  Zn102  1  0.90154371  0.74077664  0.11666300  1
  Zn  Zn103  1  0.64090586  0.36177487  0.26553168  1
  Zn  Zn104  1  0.88136978  0.12641827  0.24860830  1
  Zn  Zn105  1  0.12069436  0.24615411  0.87924584  1
  Zn  Zn106  1  0.75043362  0.12659609  0.36726993  1
  Zn  Zn107  1  0.18606174  0.18600932  0.19266783  1
  Zn  Zn108  1  0.18679430  0.18878650  0.68494645  1
  Zn  Zn109  1  0.18637715  0.69034009  0.18921090  1
  Zn  Zn110  1  0.18512137  0.68545029  0.68653356  1
  Zn  Zn111  1  0.68742763  0.18414425  0.18903816  1
  Zn  Zn112  1  0.68703230  0.18825959  0.68815844  1
  Zn  Zn113  1  0.68633905  0.68508074  0.19074350  1
  Zn  Zn114  1  0.68890626  0.68943730  0.68411526  1
  Zn  Zn115  1  0.31913311  0.31389209  0.31129736  1
  Zn  Zn116  1  0.31041515  0.31243714  0.81627138  1
  Zn  Zn117  1  0.31141407  0.81434127  0.30865719  1
  Zn  Zn118  1  0.30983496  0.81171577  0.81022915  1
  Zn  Zn119  1  0.84416672  0.28640374  0.33367485  1
  Zn  Zn120  1  0.80788099  0.31212467  0.81451474  1
  Zn  Zn121  1  0.86498046  0.83848397  0.28665413  1
  Zn  Zn122  1  0.80965994  0.81158624  0.81881358  1
  Zn  Zn123  1  0.18682848  0.43754199  0.43293703  1
  Zn  Zn124  1  0.18927523  0.43383067  0.93961853  1
  Zn  Zn125  1  0.18974324  0.93651293  0.43665190  1
  Zn  Zn126  1  0.19118120  0.93356291  0.93152011  1
  Zn  Zn127  1  0.69040734  0.43847750  0.43871058  1
  Zn  Zn128  1  0.68807365  0.43782143  0.93765201  1
  Zn  Zn129  1  0.69337457  0.94012126  0.43562416  1
  Zn  Zn130  1  0.69459658  0.93586105  0.93815031  1
  Zn  Zn131  1  0.30446781  0.06726133  0.06713056  1
  Zn  Zn132  1  0.31221384  0.06397333  0.56115019  1
  Zn  Zn133  1  0.30467399  0.56858364  0.06803800  1
  Zn  Zn134  1  0.31166347  0.56220222  0.55897047  1
  Zn  Zn135  1  0.80733541  0.06635406  0.06849499  1
  Zn  Zn136  1  0.80778276  0.06419453  0.56026108  1
  Zn  Zn137  1  0.81401418  0.55847248  0.06210457  1
  Zn  Zn138  1  0.81283736  0.56409885  0.56614881  1
  Zn  Zn139  1  0.43789078  0.43469877  0.18898931  1
  Zn  Zn140  1  0.43910046  0.43598721  0.68919226  1
  Zn  Zn141  1  0.43780174  0.93456594  0.06868426  1
  Zn  Zn142  1  0.43802661  0.93622377  0.75402522  1
  Zn  Zn143  1  0.93496610  0.43659454  0.18596465  1
  Zn  Zn144  1  0.93529285  0.44048765  0.68855262  1
  Zn  Zn145  1  0.94121821  0.94393178  0.17593011  1
  Zn  Zn146  1  0.93854887  0.94282479  0.67884247  1
  Zn  Zn147  1  0.05649457  0.06302198  0.30844621  1
  Zn  Zn148  1  0.05959389  0.05989057  0.81235977  1
  Zn  Zn149  1  0.06551006  0.56324211  0.31864179  1
  Zn  Zn150  1  0.06375961  0.56055859  0.81729561  1
  Zn  Zn151  1  0.55942788  0.05700430  0.30905381  1
  Zn  Zn152  1  0.56249209  0.06409044  0.81343509  1
  Zn  Zn153  1  0.56531278  0.55665140  0.31436304  1
  Zn  Zn154  1  0.56250554  0.56206573  0.81592563  1
  Zn  Zn155  1  0.43715152  0.18350642  0.43982924  1
  Zn  Zn156  1  0.43412107  0.18214727  0.93947801  1
  Zn  Zn157  1  0.43626886  0.68856057  0.43285305  1
  Zn  Zn158  1  0.44253784  0.69046990  0.94185230  1
  Zn  Zn159  1  0.94915772  0.14759165  0.41872321  1
  Zn  Zn160  1  0.93819514  0.18751380  0.94275248  1
  Zn  Zn161  1  0.93426512  0.68403596  0.44103314  1
  Zn  Zn162  1  0.93680630  0.68841299  0.93446600  1
  Zn  Zn163  1  0.06323884  0.31974803  0.06639646  1
  Zn  Zn164  1  0.06111508  0.30794085  0.55916856  1
  Zn  Zn165  1  0.06780980  0.81942390  0.05408629  1
  Zn  Zn166  1  0.06026354  0.80876971  0.56104804  1
  Zn  Zn167  1  0.55937283  0.31006554  0.06728696  1
  Zn  Zn168  1  0.56046621  0.31239487  0.56552892  1
  Zn  Zn169  1  0.56764862  0.80334536  0.06937318  1
  Zn  Zn170  1  0.56338713  0.81344858  0.56465183  1
  O  O171  1  0.12130265  0.11723688  0.12294854  1
  O  O172  1  0.12505002  0.12508956  0.61444462  1
  O  O173  1  0.15242542  0.61288124  0.11821096  1
  O  O174  1  0.11794493  0.61621061  0.62265559  1
  O  O175  1  0.61656103  0.11576699  0.11794462  1
  O  O176  1  0.62723388  0.11698622  0.61802931  1
  O  O177  1  0.61572432  0.61554210  0.12038224  1
  O  O178  1  0.61952444  0.62069026  0.61499803  1
  O  O179  1  0.38260728  0.38383042  0.38121643  1
  O  O180  1  0.36750610  0.38500764  0.88644209  1
  O  O181  1  0.37152540  0.88600261  0.37831131  1
  O  O182  1  0.38620023  0.88233180  0.84969674  1
  O  O183  1  0.87230732  0.38593932  0.38642687  1
  O  O184  1  0.88042072  0.37843429  0.88020638  1
  O  O185  1  0.86113951  0.86778202  0.39692483  1
  O  O186  1  0.87326837  0.87525193  0.88790355  1
  O  O187  1  0.25587016  -0.00273967  0.36363066  1
  O  O188  1  0.25456274  0.00678189  0.86498862  1
  O  O189  1  0.25760757  0.51441202  0.38245943  1
  O  O190  1  0.25743274  0.50664825  0.87338287  1
  O  O191  1  0.74807575  0.00421658  0.35857259  1
  O  O192  1  0.75407351  0.01427884  0.87251188  1
  O  O193  1  0.75731925  0.49971068  0.36619550  1
  O  O194  1  0.75916069  0.49556642  0.86765366  1
  O  O195  1  0.25288786  0.48202709  0.12218783  1
  O  O196  1  0.24415556  0.49453742  0.62955251  1
  O  O197  1  0.23967101  0.99628773  0.13333070  1
  O  O198  1  0.24625824  0.99049621  0.62713071  1
  O  O199  1  0.74424722  0.49240011  0.12960737  1
  O  O200  1  0.74386047  0.49502057  0.63325190  1
  O  O201  1  0.73691932  0.99817006  0.13369902  1
  O  O202  1  0.73984371  0.99236583  0.62568729  1
  O  O203  1  0.01215846  0.37545656  0.24744850  1
  O  O204  1  0.00197568  0.37117374  0.75777822  1
  O  O205  1  -0.03005087  0.87270249  0.25704474  1
  O  O206  1  0.01294430  0.87792920  0.74323495  1
  O  O207  1  0.49817086  0.37333247  0.26660638  1
  O  O208  1  0.51199251  0.36878599  0.74981137  1
  O  O209  1  0.50283970  0.86338187  0.24853282  1
  O  O210  1  0.51996806  0.86088161  0.73383201  1
  O  O211  1  0.49124031  0.12281149  0.23849254  1
  O  O212  1  0.49075497  0.13425947  0.74711701  1
  O  O213  1  0.50175447  0.62011233  0.24087396  1
  O  O214  1  0.49621311  0.62856203  0.74449529  1
  O  O215  1  0.99678161  0.12026070  0.22418085  1
  O  O216  1  0.99118069  0.13505595  0.74604616  1
  O  O217  1  0.98697134  0.61689760  0.25382515  1
  O  O218  1  1.00286873  0.61462473  0.73719871  1
  O  O219  1  0.36782626  0.25613185  0.00666285  1
  O  O220  1  0.36972982  0.25452010  0.50590182  1
  O  O221  1  0.36394845  0.74496561  0.00712703  1
  O  O222  1  0.37010077  0.75183509  0.50613826  1
  O  O223  1  0.87941297  0.26639764  0.00675905  1
  O  O224  1  0.86355851  0.26082277  0.50917058  1
  O  O225  1  0.86720086  0.75043767  0.00101925  1
  O  O226  1  0.86546003  0.75441807  0.50882491  1
  O  O227  1  0.13444018  0.25334337  0.48615394  1
  O  O228  1  0.13793523  0.26036306  0.99968116  1
  O  O229  1  0.13406163  0.74716939  0.49194132  1
  O  O230  1  0.13912004  0.75239201  0.98679500  1
  O  O231  1  0.63223114  0.24052472  0.51187059  1
  O  O232  1  0.61534963  0.24156348  0.99033897  1
  O  O233  1  0.62744684  0.74246901  0.49602692  1
  O  O234  1  0.63085640  0.73904130  0.99502098  1
  O  O235  1  0.48538310  0.24199133  0.12488537  1
  O  O236  1  0.49227533  0.25067449  0.63847687  1
  O  O237  1  0.49527616  0.74085186  0.13909412  1
  O  O238  1  0.49564542  0.74156082  0.62959168  1
  O  O239  1  0.99803084  0.24157315  0.11805311  1
  O  O240  1  0.98418133  0.25521236  0.63146328  1
  O  O241  1  1.01670848  0.74440216  0.12100299  1
  O  O242  1  0.98989974  0.73900273  0.62301785  1
  O  O243  1  0.01055437  0.25065979  0.37635334  1
  O  O244  1  -0.00043623  0.26059754  0.87139561  1
  O  O245  1  0.01551423  0.74109675  0.38219593  1
  O  O246  1  0.01386125  0.75188669  0.87607396  1
  O  O247  1  0.49322907  0.26488829  0.37733134  1
  O  O248  1  0.50499285  0.24371865  0.86503955  1
  O  O249  1  0.50534580  0.74711718  0.36315440  1
  O  O250  1  0.51179517  0.75062800  0.86861050  1
  O  O251  1  0.24055332  0.13819803  0.50503290  1
  O  O252  1  0.25362880  0.13708763  0.99042391  1
  O  O253  1  0.24859963  0.63751148  0.49861350  1
  O  O254  1  0.25222200  0.63234822  0.98627810  1
  O  O255  1  0.74299882  0.13611459  0.49317389  1
  O  O256  1  0.73807861  0.12531908  0.99356692  1
  O  O257  1  0.74111818  0.63140356  0.50184042  1
  O  O258  1  0.73685729  0.62623092  1.00595800  1
  O  O259  1  0.25897607  0.36844559  0.01027019  1
  O  O260  1  0.25609504  0.37021809  0.50411274  1
  O  O261  1  0.25088581  0.86761223  0.00640642  1
  O  O262  1  0.25279246  0.86362144  0.50620087  1
  O  O263  1  0.75986140  0.38212747  0.00831783  1
  O  O264  1  0.75575810  0.37389748  0.51087999  1
  O  O265  1  0.75878133  0.86294463  0.00263385  1
  O  O266  1  0.75236991  0.86736623  0.50919187  1
  O  O267  1  0.12434067  0.48403686  0.25729274  1
  O  O268  1  0.13166119  0.49283268  0.74593231  1
  O  O269  1  0.13669824  1.00581127  0.24808269  1
  O  O270  1  0.13567655  0.99399784  0.74482841  1
  O  O271  1  0.63380833  0.49235401  0.24495436  1
  O  O272  1  0.62797662  0.49157186  0.74984249  1
  O  O273  1  0.63252666  0.99958979  0.23959833  1
  O  O274  1  0.62764694  0.99250646  0.74231029  1
  O  O275  1  0.36518106  0.00726609  0.25879631  1
  O  O276  1  0.35837421  0.01421559  0.73530995  1
  O  O277  1  0.37516589  0.49714065  0.26221689  1
  O  O278  1  0.37048232  0.50219068  0.75871485  1
  O  O279  1  0.86247640  0.00766845  0.23771266  1
  O  O280  1  0.87189136  0.01590262  0.74421792  1
  O  O281  1  0.87079923  0.50346213  0.25670434  1
  O  O282  1  0.86221958  0.49272133  0.75997538  1
  O  O283  1  0.12929260  0.36458199  0.36400605  1
  O  O284  1  0.11617591  0.37391848  0.86835084  1
  O  O285  1  0.12383255  0.86033107  0.38189533  1
  O  O286  1  0.12542580  0.86723058  0.86285418  1
  O  O287  1  0.60772526  0.38326967  0.37873043  1
  O  O288  1  0.62771121  0.36486223  0.87007033  1
  O  O289  1  0.62611951  0.86292232  0.38300640  1
  O  O290  1  0.62418981  0.86857076  0.86794844  1
  O  O291  1  0.37989902  0.13039336  0.13403437  1
  O  O292  1  0.37326794  0.13574989  0.63521037  1
  O  O293  1  0.38117861  0.63803142  0.12215693  1
  O  O294  1  0.37961701  0.62720911  0.63128699  1
  O  O295  1  0.87929601  0.13847283  0.12178561  1
  O  O296  1  0.87194079  0.13516866  0.63024145  1
  O  O297  1  0.87676549  0.62011368  0.13699855  1
  O  O298  1  0.88264868  0.63354349  0.62395757  1
  O  O299  1  0.25797160  0.25481140  0.12071416  1
  O  O300  1  0.25573126  0.25914171  0.61835943  1
  O  O301  1  0.25633978  0.75893928  0.11993149  1
  O  O302  1  0.25378194  0.75273974  0.61736212  1
  O  O303  1  0.75730336  0.26164275  0.12363610  1
  O  O304  1  0.75735830  0.25740285  0.62251926  1
  O  O305  1  0.74352078  0.74838246  0.11277661  1
  O  O306  1  0.75274109  0.75681060  0.61528949  1
  O  O307  1  0.25406009  0.25402092  0.38526223  1
  O  O308  1  0.24798561  0.24325540  0.88444137  1
  O  O309  1  0.24860416  0.74166132  0.38097708  1
  O  O310  1  0.24742382  0.74364926  0.87995773  1
  O  O311  1  0.73895981  0.26815705  0.39071154  1
  O  O312  1  0.73676087  0.23889706  0.87124232  1
  O  O313  1  0.73817704  0.74341185  0.38910536  1
  O  O314  1  0.73700496  0.74984889  0.88690668  1
  O  O315  1  -0.00409488  0.12298727  0.01632289  1
  O  O316  1  0.02041383  0.14769976  0.50913774  1
  O  O317  1  0.00186005  0.60839336  -0.00804849  1
  O  O318  1  0.00014823  0.61463381  0.51013053  1
  O  O319  1  0.50579304  0.12668967  0.01254958  1
  O  O320  1  0.50679256  0.11702410  0.50484754  1
  O  O321  1  0.50829087  0.61932541  0.01098622  1
  O  O322  1  0.50602506  0.62058889  0.50364517  1
  O  O323  1  0.49474902  0.37909139  0.49287227  1
  O  O324  1  0.48360115  0.38104101  1.00883898  1
  O  O325  1  0.49880866  0.89026659  0.50863233  1
  O  O326  1  0.49584239  0.86077702  1.00814447  1
  O  O327  1  0.98554312  0.38195663  0.50887919  1
  O  O328  1  0.99431406  0.38338829  0.99227022  1
  O  O329  1  0.98344558  0.87238193  0.50234070  1
  O  O330  1  0.98345287  0.87111153  0.99469998  1
  O  O331  1  0.49116138  0.49391570  0.38113221  1
  O  O332  1  0.48552541  0.50425363  0.88214323  1
  O  O333  1  0.49100428  1.00243029  0.38334619  1
  O  O334  1  0.48915898  0.98991423  0.85213153  1
  O  O335  1  0.99281301  0.50246088  0.38976484  1
  O  O336  1  0.99279105  0.48922618  0.87895500  1
  O  O337  1  0.98461288  1.04130702  0.38989302  1
  O  O338  1  0.99175914  0.99590890  0.86930599  1
  O  O339  1  0.01871639  0.00640773  0.11915664  1
  O  O340  1  0.00461132  0.00411489  0.60993965  1
  O  O341  1  0.00449779  0.49342200  0.11009039  1
  O  O342  1  0.00184128  0.50410905  0.61668438  1
  O  O343  1  0.51369631  0.00489845  0.12858747  1
  O  O344  1  0.51553232  0.00330276  0.61984669  1
  O  O345  1  0.50254538  0.50369086  0.12145908  1
  O  O346  1  0.50566588  0.50457376  0.61993388  1
  O  O347  1  0.24796475  0.37030568  0.23999341  1
  O  O348  1  0.24556195  0.38015385  0.74485952  1
  O  O349  1  0.25268822  0.89079264  0.24098987  1
  O  O350  1  0.24282300  0.88362866  0.74162410  1
  O  O351  1  0.75374985  0.38695451  0.23850913  1
  O  O352  1  0.73690345  0.37886827  0.74626954  1
  O  O353  1  0.76366089  0.88816912  0.24679883  1
  O  O354  1  0.74053018  0.87603406  0.74461090  1
  O  O355  1  0.25866893  0.11089683  0.24359662  1
  O  O356  1  0.25459729  0.12106924  0.75440045  1
  O  O357  1  0.25430520  0.62838907  0.26472231  1
  O  O358  1  0.25475150  0.61814974  0.75932757  1
  O  O359  1  0.75196977  0.11234546  0.24794306  1
  O  O360  1  0.75681404  0.12656191  0.75791184  1
  O  O361  1  0.75562614  0.61018380  0.24915257  1
  O  O362  1  0.74003807  0.61044724  0.74774749  1
  O  O363  1  0.37962938  0.11872576  0.36358995  1
  O  O364  1  0.36512140  0.12516431  0.86257746  1
  O  O365  1  0.36199208  0.61676930  0.38204921  1
  O  O366  1  0.36945633  0.61916244  0.87061326  1
  O  O367  1  0.85944911  0.17042164  0.35668118  1
  O  O368  1  0.86641782  0.13058681  0.86883743  1
  O  O369  1  0.87181852  0.61196746  0.36894560  1
  O  O370  1  0.87732292  0.61151713  0.87437702  1
  O  O371  1  0.13485979  0.37684596  0.14055836  1
  O  O372  1  0.12824378  0.37965562  0.62954603  1
  O  O373  1  0.13547374  0.88994856  0.12006820  1
  O  O374  1  0.13575839  0.87099250  0.62858772  1
  O  O375  1  0.63335676  0.38110654  0.11886250  1
  O  O376  1  0.62790850  0.38205608  0.63389451  1
  O  O377  1  0.62942110  0.88631145  0.12344287  1
  O  O378  1  0.63691196  0.87973210  0.62928064  1
  O  O379  1  0.12948873  0.25898784  0.26264281  1
  O  O380  1  0.11618477  0.25731571  0.75034168  1
  O  O381  1  0.12932928  0.75006622  0.26823479  1
  O  O382  1  0.13501122  0.75995747  0.75811626  1
  O  O383  1  0.61894113  0.25548428  0.23891151  1
  O  O384  1  0.61665772  0.25542784  0.75844533  1
  O  O385  1  0.61237334  0.74309801  0.26039987  1
  O  O386  1  0.62534627  0.75373993  0.75858593  1
  O  O387  1  0.37748740  0.24070642  0.24330404  1
  O  O388  1  0.38048582  0.24730815  0.74858161  1
  O  O389  1  0.38776612  0.75324723  0.24369266  1
  O  O390  1  0.37964179  0.74021109  0.74322466  1
  O  O391  1  0.88011499  0.26375066  0.22803364  1
  O  O392  1  0.87623546  0.24360778  0.74388496  1
  O  O393  1  0.86970965  0.72929708  0.24486330  1
  O  O394  1  0.86382118  0.75201887  0.73755148  1
  O  O395  1  0.38174289  0.49370226  0.49645488  1
  O  O396  1  0.37518824  0.49457951  0.99577062  1
  O  O397  1  0.38310905  1.00190506  0.49205532  1
  O  O398  1  0.37658619  1.00680115  1.00872228  1
  O  O399  1  0.87810260  0.49443552  0.49499706  1
  O  O400  1  0.88496771  0.49245133  0.99236581  1
  O  O401  1  0.86799443  0.98304802  0.50581453  1
  O  O402  1  0.86496417  0.98545598  1.00398819  1
  O  O403  1  0.13481735  0.00184307  0.00689847  1
  O  O404  1  0.12743488  0.01315897  0.49517288  1
  O  O405  1  0.10979845  0.49505642  -0.00346735  1
  O  O406  1  0.11524966  0.49771399  0.50490242  1
  O  O407  1  0.62843849  0.00671543  0.00805490  1
  O  O408  1  0.62118926  0.00785671  0.50374717  1
  O  O409  1  0.61741685  0.50413697  0.00391846  1
  O  O410  1  0.62019507  0.50729166  0.50590473  1
  O  O411  1  0.36715883  0.36622477  0.12361602  1
  O  O412  1  0.37041557  0.37086470  0.61986625  1
  O  O413  1  0.36182699  0.86299269  0.12615756  1
  O  O414  1  0.36041467  0.86578585  0.62724810  1
  O  O415  1  0.86798067  0.37484095  0.11415929  1
  O  O416  1  0.86687084  0.37098186  0.62134499  1
  O  O417  1  0.87404085  0.86521490  0.11123607  1
  O  O418  1  0.86387907  0.86851136  0.62199199  1
  O  O419  1  0.12671745  0.14284340  0.37947079  1
  O  O420  1  0.13840991  0.12760724  0.86647492  1
  O  O421  1  0.13962004  0.62917262  0.37985981  1
  O  O422  1  0.13399373  0.63274854  0.87411208  1
  O  O423  1  0.62341666  0.12317349  0.38560017  1
  O  O424  1  0.62880613  0.12908563  0.88342668  1
  O  O425  1  0.62552750  0.62570710  0.38712814  1
  O  O426  1  0.61927422  0.63177934  0.88716305  1
