# generated using pymatgen
data_V85Zn86O256
_symmetry_space_group_name_H-M   'P 1'
_cell_length_a   16.95949525
_cell_length_b   16.96522262
_cell_length_c   16.95978844
_cell_angle_alpha   89.94598793
_cell_angle_beta   90.02357105
_cell_angle_gamma   90.02041392
_symmetry_Int_Tables_number   1
_chemical_formula_structural   V85Zn86O256
_chemical_formula_sum   'V85 Zn86 O256'
_cell_volume   4879.69478595
_cell_formula_units_Z   1
loop_
 _symmetry_equiv_pos_site_id
 _symmetry_equiv_pos_as_xyz
  1  'x, y, z'
loop_
 _atom_site_type_symbol
 _atom_site_label
 _atom_site_symmetry_multiplicity
 _atom_site_fract_x
 _atom_site_fract_y
 _atom_site_fract_z
 _atom_site_occupancy
  V  V0  1  0.62543454  0.75216050  0.87682845  1
  V  V1  1  0.12940890  -0.00526157  0.12911598  1
  V  V2  1  0.24424884  0.24767768  -0.00052416  1
  V  V3  1  0.74808147  0.39165965  0.62545783  1
  V  V4  1  0.35953181  0.49115247  0.35005099  1
  V  V5  1  0.88203301  0.00977906  0.37061132  1
  V  V6  1  0.49698638  -0.00409378  0.00219924  1
  V  V7  1  0.47715176  -0.00601445  0.48803508  1
  V  V8  1  0.12409219  0.63082646  -0.00262076  1
  V  V9  1  0.37677031  0.75057759  0.61609254  1
  V  V10  1  0.24708151  0.61882051  0.35806517  1
  V  V11  1  0.62543646  0.87745857  0.74917827  1
  V  V12  1  0.49904536  0.25212049  0.74723653  1
  V  V13  1  0.61270081  0.75434233  0.37943212  1
  V  V14  1  0.62447534  0.00468612  0.61140276  1
  V  V15  1  0.12007163  0.62198337  0.50772426  1
  V  V16  1  0.13319019  0.50203213  0.12800961  1
  V  V17  1  0.25251308  0.00116234  0.75155057  1
  V  V18  1  0.49482293  0.87337795  0.87720572  1
  V  V19  1  0.11805195  0.74201182  0.36673614  1
  V  V20  1  0.74818270  0.24874686  0.00035054  1
  V  V21  1  0.25044020  0.63321686  0.87782692  1
  V  V22  1  0.61298584  0.87471406  0.25312024  1
  V  V23  1  0.74619298  0.74339621  0.50157090  1
  V  V24  1  0.11551657  0.11779263  -0.00035761  1
  V  V25  1  0.62469215  0.39290268  0.74506382  1
  V  V26  1  -0.00112120  0.62932907  0.13185127  1
  V  V27  1  0.74982246  0.62482789  0.86781220  1
  V  V28  1  0.74670123  0.63049469  0.37760820  1
  V  V29  1  0.00183968  0.74748291  0.74287588  1
  V  V30  1  0.87794811  0.87348131  0.49993422  1
  V  V31  1  0.37574327  0.24912271  0.12522344  1
  V  V32  1  0.75430391  0.00568306  0.24980064  1
  V  V33  1  0.50117566  0.12552453  0.61895833  1
  V  V34  1  -0.00078259  0.37897157  0.37322135  1
  V  V35  1  0.87602187  0.87960855  -0.00115413  1
  V  V36  1  0.87027608  0.50147980  0.87381559  1
  V  V37  1  0.63011204  0.62563286  0.00216206  1
  V  V38  1  0.74966000  0.87601199  0.12551556  1
  V  V39  1  -0.00126865  0.50085589  0.00271895  1
  V  V40  1  0.50173197  0.25196747  0.25795132  1
  V  V41  1  0.87367046  0.37541184  0.00244187  1
  V  V42  1  0.62377908  -0.00111058  0.12511516  1
  V  V43  1  0.00442539  0.36928100  0.87342201  1
  V  V44  1  0.75235049  0.00458398  0.74826801  1
  V  V45  1  0.62393697  0.23873382  0.38188488  1
  V  V46  1  0.30948219  0.80658384  0.06346582  1
  V  V47  1  0.25108941  0.37902563  0.12727092  1
  V  V48  1  0.62335578  0.50432347  0.12394642  1
  V  V49  1  0.00251179  0.86744409  0.36328736  1
  V  V50  1  0.75081140  0.37495983  0.12584099  1
  V  V51  1  0.52664046  0.40720600  0.39143399  1
  V  V52  1  0.87781417  0.62534050  0.74694916  1
  V  V53  1  0.37351977  0.38868336  0.49970143  1
  V  V54  1  0.75266629  0.12806861  0.86921682  1
  V  V55  1  0.12654792  0.87416446  0.74999488  1
  V  V56  1  0.25451229  0.87294176  0.62025755  1
  V  V57  1  0.37756930  0.37089191  -0.00049606  1
  V  V58  1  0.50949650  0.61224930  0.60520004  1
  V  V59  1  -0.00383090  0.12840579  0.63968925  1
  V  V60  1  0.62436025  0.25251935  0.87302764  1
  V  V61  1  0.87479076  0.24534748  0.13274610  1
  V  V62  1  0.25043355  0.25191454  0.50659818  1
  V  V63  1  0.74986670  0.50414368  0.24898028  1
  V  V64  1  0.00021755  0.87602096  0.87727226  1
  V  V65  1  -0.00447237  0.11799182  0.13405954  1
  V  V66  1  0.87613759  0.50169488  0.37554615  1
  V  V67  1  0.00330849  -0.00129369  0.50439203  1
  V  V68  1  0.37496994  0.00145969  0.87932872  1
  V  V69  1  0.49942282  0.37746614  0.87699650  1
  V  V70  1  0.87763870  0.75448311  0.13339461  1
  V  V71  1  0.50165069  0.74715812  0.74794717  1
  V  V72  1  0.87941085  0.00499492  0.87339170  1
  V  V73  1  0.74964907  0.87540693  0.62358879  1
  V  V74  1  0.49788369  0.12524789  0.12621952  1
  V  V75  1  0.87861916  0.37056020  0.50024525  1
  V  V76  1  0.74776949  0.23982327  0.50342666  1
  V  V77  1  0.49413857  0.72985781  0.23711783  1
  V  V78  1  0.12203563  0.24788958  0.37587839  1
  V  V79  1  0.12175873  0.12796943  0.50462283  1
  V  V80  1  0.37032761  0.49896401  0.87594084  1
  V  V81  1  0.13281667  0.37440280  0.25081568  1
  V  V82  1  0.37572037  0.62385312  0.74700463  1
  V  V83  1  0.87319065  0.24572918  0.64004751  1
  V  V84  1  0.46807823  0.53418823  0.02420298  1
  Zn  Zn85  1  0.87993787  0.74971105  0.62291143  1
  Zn  Zn86  1  0.09044333  0.50043551  0.62335365  1
  Zn  Zn87  1  0.24394489  0.38734198  0.62464273  1
  Zn  Zn88  1  0.13053009  0.86333186  0.24031716  1
  Zn  Zn89  1  0.37549887  0.25285712  0.62376990  1
  Zn  Zn90  1  0.62335847  0.12444207  -0.00325008  1
  Zn  Zn91  1  0.11938568  0.24424365  0.86990704  1
  Zn  Zn92  1  0.25653762  0.11731870  0.37453401  1
  Zn  Zn93  1  0.26072539  -0.01325495  0.25188181  1
  Zn  Zn94  1  0.62779086  0.37291121  0.25021925  1
  Zn  Zn95  1  0.12730842  0.75227229  0.87719676  1
  Zn  Zn96  1  0.12645322  0.37138650  0.74140050  1
  Zn  Zn97  1  0.12611336  0.00110024  0.62738945  1
  Zn  Zn98  1  0.87771383  0.63482203  0.25447926  1
  Zn  Zn99  1  0.23746663  0.50253289  0.74338839  1
  Zn  Zn100  1  0.24923649  0.12503200  0.87638314  1
  Zn  Zn101  1  -0.00366401  0.24568442  0.25219426  1
  Zn  Zn102  1  0.37484048  0.12734625  0.75003976  1
  Zn  Zn103  1  0.75167030  0.75286034  0.00036409  1
  Zn  Zn104  1  0.26553175  0.76555463  0.46963531  1
  Zn  Zn105  1  0.75219834  0.12333647  0.37503022  1
  Zn  Zn106  1  0.37590376  0.11034875  0.26010158  1
  Zn  Zn107  1  0.18854437  0.18265430  0.19064343  1
  Zn  Zn108  1  0.18361392  0.19184741  0.69123343  1
  Zn  Zn109  1  0.18673018  0.69464128  0.18952341  1
  Zn  Zn110  1  0.19041177  0.68715575  0.68771182  1
  Zn  Zn111  1  0.68419819  0.18481996  0.18821260  1
  Zn  Zn112  1  0.68345321  0.19076325  0.68679880  1
  Zn  Zn113  1  0.68587667  0.69026056  0.19046639  1
  Zn  Zn114  1  0.68707652  0.68434197  0.68457376  1
  Zn  Zn115  1  0.32666981  0.28256183  0.33087601  1
  Zn  Zn116  1  0.30617776  0.31302089  0.80943943  1
  Zn  Zn117  1  0.31337273  0.81015265  0.29736559  1
  Zn  Zn118  1  0.31551057  0.81203495  0.81272283  1
  Zn  Zn119  1  0.80837325  0.31099946  0.31343124  1
  Zn  Zn120  1  0.80749068  0.32115124  0.81170781  1
  Zn  Zn121  1  0.80917102  0.82016369  0.31368928  1
  Zn  Zn122  1  0.81274451  0.81208237  0.81127332  1
  Zn  Zn123  1  0.18462322  0.43945271  0.44331201  1
  Zn  Zn124  1  0.18901755  0.44239786  0.93980198  1
  Zn  Zn125  1  0.29367450  0.93723534  0.42482097  1
  Zn  Zn126  1  0.19090773  0.93472442  0.94369717  1
  Zn  Zn127  1  0.69524656  0.43319907  0.43594230  1
  Zn  Zn128  1  0.68596011  0.43981811  0.93791342  1
  Zn  Zn129  1  0.69071212  0.93529938  0.43410609  1
  Zn  Zn130  1  0.68668876  0.93977023  0.93796994  1
  Zn  Zn131  1  0.31111190  0.06199412  0.06324664  1
  Zn  Zn132  1  0.31116726  0.06764350  0.56729399  1
  Zn  Zn133  1  0.29523894  0.60718609  0.08772062  1
  Zn  Zn134  1  0.30063553  0.57016730  0.55401493  1
  Zn  Zn135  1  0.81270303  0.06230046  0.05809604  1
  Zn  Zn136  1  0.81695742  0.06294453  0.56281062  1
  Zn  Zn137  1  0.81223342  0.56709805  0.06223411  1
  Zn  Zn138  1  0.87921861  0.54188679  0.57894700  1
  Zn  Zn139  1  0.44241542  0.43072028  0.19390134  1
  Zn  Zn140  1  0.43231618  0.44198399  0.68330014  1
  Zn  Zn141  1  0.42880963  0.93001807  0.18910477  1
  Zn  Zn142  1  0.43743156  0.93783522  0.68617025  1
  Zn  Zn143  1  0.93966504  0.43639566  0.19056643  1
  Zn  Zn144  1  0.93437050  0.43105047  0.69449510  1
  Zn  Zn145  1  0.93988721  0.94331054  0.18573097  1
  Zn  Zn146  1  0.93722816  0.93783876  0.68893915  1
  Zn  Zn147  1  0.10983703  0.02387487  0.34614284  1
  Zn  Zn148  1  0.06510934  0.06028264  0.81404858  1
  Zn  Zn149  1  0.06339709  0.55904171  0.31096241  1
  Zn  Zn150  1  0.06092560  0.55894487  0.81094177  1
  Zn  Zn151  1  0.56020178  0.06211708  0.31233435  1
  Zn  Zn152  1  0.56408751  0.06512372  0.80897119  1
  Zn  Zn153  1  0.56567267  0.56252977  0.32852783  1
  Zn  Zn154  1  0.55445369  0.56483483  0.82403937  1
  Zn  Zn155  1  0.43766376  0.18690627  0.44267145  1
  Zn  Zn156  1  0.43746490  0.18538287  0.93583607  1
  Zn  Zn157  1  0.43129054  0.67795907  0.42761070  1
  Zn  Zn158  1  0.43057414  0.68667241  0.95226475  1
  Zn  Zn159  1  0.93969270  0.18880558  0.44331912  1
  Zn  Zn160  1  0.93363700  0.18716208  0.94230551  1
  Zn  Zn161  1  0.93708615  0.68659606  0.44071051  1
  Zn  Zn162  1  0.93817122  0.69257226  0.93795631  1
  Zn  Zn163  1  0.06140021  0.31004997  0.06247852  1
  Zn  Zn164  1  0.05752591  0.31424714  0.56769065  1
  Zn  Zn165  1  0.05943525  0.81270872  0.05876833  1
  Zn  Zn166  1  0.07133195  0.80913763  0.55661633  1
  Zn  Zn167  1  0.56400711  0.31424600  0.06309043  1
  Zn  Zn168  1  0.56465502  0.31763577  0.56244867  1
  Zn  Zn169  1  0.55915284  0.81185181  0.06451305  1
  Zn  Zn170  1  0.55959809  0.81661045  0.56138972  1
  O  O171  1  0.11340629  0.12000636  0.11765183  1
  O  O172  1  0.11599605  0.12633385  0.61776728  1
  O  O173  1  0.11651419  0.61949288  0.11824520  1
  O  O174  1  0.12988940  0.62793558  0.61142414  1
  O  O175  1  0.61206322  0.11842207  0.12330961  1
  O  O176  1  0.61444466  0.11636350  0.63003921  1
  O  O177  1  0.63484150  0.61372610  0.11668441  1
  O  O178  1  0.60737576  0.63004269  0.62734609  1
  O  O179  1  0.36845564  0.38324938  0.38187226  1
  O  O180  1  0.37902897  0.38069881  0.87980650  1
  O  O181  1  0.33634426  0.83842872  0.40296444  1
  O  O182  1  0.38947709  0.88387603  0.86733645  1
  O  O183  1  0.87953373  0.37806488  0.37892301  1
  O  O184  1  0.87834335  0.38401770  0.88266285  1
  O  O185  1  0.88430990  0.88198573  0.38412284  1
  O  O186  1  0.87969347  0.88175042  0.87973628  1
  O  O187  1  0.22431357  0.00535382  0.36879530  1
  O  O188  1  0.25902772  -0.00221534  0.87177787  1
  O  O189  1  0.25265842  0.50397978  0.37412069  1
  O  O190  1  0.26029501  0.50668957  0.87221800  1
  O  O191  1  0.76299627  0.00137197  0.36845692  1
  O  O192  1  0.75512377  0.00820026  0.86781575  1
  O  O193  1  0.75596923  0.50978126  0.36730831  1
  O  O194  1  0.75963157  0.51029504  0.88232571  1
  O  O195  1  0.23694476  0.50330789  0.11921107  1
  O  O196  1  0.26984263  0.50063292  0.63248622  1
  O  O197  1  0.23146912  1.00542697  0.12403823  1
  O  O198  1  0.25071106  0.99313251  0.63594744  1
  O  O199  1  0.74659140  0.49723906  0.13144505  1
  O  O200  1  0.76895425  0.48739999  0.61637070  1
  O  O201  1  0.74590237  0.99631704  0.13005371  1
  O  O202  1  0.74538528  0.99812524  0.63098413  1
  O  O203  1  0.00706474  0.36795992  0.25740468  1
  O  O204  1  -0.00436014  0.37487106  0.77208387  1
  O  O205  1  -0.00161249  0.87801951  0.26253075  1
  O  O206  1  0.00703482  0.87172363  0.75812739  1
  O  O207  1  0.50925957  0.37116848  0.26910728  1
  O  O208  1  0.50400617  0.37119463  0.75488672  1
  O  O209  1  0.51179365  0.86684855  0.24491742  1
  O  O210  1  0.50501935  0.86638957  0.75551042  1
  O  O211  1  0.49700944  0.13318734  0.24253077  1
  O  O212  1  0.50041115  0.13533173  0.74164461  1
  O  O213  1  0.51145302  0.63147401  0.25221068  1
  O  O214  1  0.49439264  0.63803923  0.75615130  1
  O  O215  1  0.99937279  0.12707609  0.23261857  1
  O  O216  1  1.00343046  0.11995120  0.73869262  1
  O  O217  1  0.99459667  0.61651753  0.23504773  1
  O  O218  1  0.98963055  0.63643907  0.76052197  1
  O  O219  1  0.36861649  0.25503210  0.00433672  1
  O  O220  1  0.36398237  0.26133849  0.49962246  1
  O  O221  1  0.36708200  0.76976787  -0.01100760  1
  O  O222  1  0.37605782  0.73556075  0.51496455  1
  O  O223  1  0.86638330  0.25541035  0.01090600  1
  O  O224  1  0.86548269  0.25541153  0.50506964  1
  O  O225  1  0.87336399  0.76437386  0.00635710  1
  O  O226  1  0.86892846  0.75876892  0.50253897  1
  O  O227  1  0.12612725  0.24532569  0.49760743  1
  O  O228  1  0.13000301  0.23930186  0.99880107  1
  O  O229  1  0.13110221  0.74360116  0.48285561  1
  O  O230  1  0.11591137  0.73514325  0.99572867  1
  O  O231  1  0.63439579  0.25301772  0.49384559  1
  O  O232  1  0.63135422  0.24995991  0.99219799  1
  O  O233  1  0.63408784  0.76371857  0.49055429  1
  O  O234  1  0.62850215  0.74463940  0.99441722  1
  O  O235  1  0.49920201  0.24284617  0.13078321  1
  O  O236  1  0.50265844  0.24379009  0.63016263  1
  O  O237  1  0.50899340  0.74273799  0.13712818  1
  O  O238  1  0.49461242  0.74892218  0.63339037  1
  O  O239  1  0.99051971  0.24102207  0.12481230  1
  O  O240  1  0.98159443  0.24315057  0.62220303  1
  O  O241  1  0.99042987  0.74083735  0.11905259  1
  O  O242  1  1.00091572  0.75968875  0.63903548  1
  O  O243  1  0.00653785  0.25888486  0.37552924  1
  O  O244  1  -0.00319200  0.26700421  0.88796057  1
  O  O245  1  -0.00097503  0.76100026  0.37675948  1
  O  O246  1  0.00074941  0.76136440  0.86531932  1
  O  O247  1  0.50973126  0.24795122  0.37023711  1
  O  O248  1  0.50475948  0.25498019  0.86730324  1
  O  O249  1  0.51089274  0.74248411  0.37070060  1
  O  O250  1  0.50448890  0.75854061  0.87040787  1
  O  O251  1  0.23925893  0.13347441  0.50024514  1
  O  O252  1  0.23763498  0.13217538  1.00196085  1
  O  O253  1  0.23909769  0.63361246  0.48295541  1
  O  O254  1  0.23419425  0.61513166  0.98801268  1
  O  O255  1  0.75432083  0.13623709  0.49958432  1
  O  O256  1  0.74651522  0.13001744  0.98777984  1
  O  O257  1  0.75584796  0.64176479  0.49276930  1
  O  O258  1  0.74361774  0.62901815  0.99007145  1
  O  O259  1  0.25417176  0.36793962  0.00680690  1
  O  O260  1  0.25863348  0.37049861  0.50252932  1
  O  O261  1  0.23822376  0.86156968  0.01502922  1
  O  O262  1  0.23619720  0.87655118  0.52101436  1
  O  O263  1  0.75462412  0.37000242  0.00606866  1
  O  O264  1  0.75809803  0.36547327  0.50586580  1
  O  O265  1  0.75710288  0.87633954  0.00671790  1
  O  O266  1  0.76122488  0.87006169  0.50307953  1
  O  O267  1  0.11615558  0.48720766  0.23762310  1
  O  O268  1  0.11936593  0.49539193  0.74059766  1
  O  O269  1  0.11987742  0.99808616  0.23300905  1
  O  O270  1  0.13404165  0.99141733  0.74958847  1
  O  O271  1  0.63746737  0.50151759  0.24386101  1
  O  O272  1  0.61608521  0.49061145  0.76190165  1
  O  O273  1  0.62868678  0.99287698  0.24512031  1
  O  O274  1  0.63514423  0.99615716  0.74405687  1
  O  O275  1  0.37605716  -0.00296474  0.25776042  1
  O  O276  1  0.36908703  0.00047763  0.76030955  1
  O  O277  1  0.35748093  0.48415593  0.25154328  1
  O  O278  1  0.38587581  0.51381339  0.76253011  1
  O  O279  1  0.86732882  -0.00659347  0.25932261  1
  O  O280  1  0.85986056  -0.00555304  0.75757304  1
  O  O281  1  0.86489192  0.49949490  0.25842531  1
  O  O282  1  0.87865454  0.50939599  0.76716607  1
  O  O283  1  0.11639520  0.37216826  0.37022477  1
  O  O284  1  0.10867133  0.37806163  0.88386440  1
  O  O285  1  0.10778705  0.86289094  0.37051073  1
  O  O286  1  0.11763045  0.87725155  0.86760982  1
  O  O287  1  0.62802679  0.35455290  0.37128919  1
  O  O288  1  0.61863842  0.37127889  0.87048803  1
  O  O289  1  0.63080527  0.86669726  0.36401211  1
  O  O290  1  0.61559537  0.87391029  0.86915473  1
  O  O291  1  0.38648197  0.13050501  0.12329665  1
  O  O292  1  0.38535627  0.13017224  0.63058851  1
  O  O293  1  0.40332936  0.61241694  0.05579033  1
  O  O294  1  0.38839717  0.63241858  0.63515394  1
  O  O295  1  0.88715577  0.13065877  0.11476819  1
  O  O296  1  0.87915770  0.13738051  0.62591725  1
  O  O297  1  0.88067383  0.63719472  0.12462859  1
  O  O298  1  0.86407018  0.63330178  0.64410749  1
  O  O299  1  0.25389126  0.25494820  0.11525955  1
  O  O300  1  0.25084170  0.25213146  0.61427403  1
  O  O301  1  0.26962903  0.71993402  0.11724510  1
  O  O302  1  0.26307906  0.75839151  0.63235212  1
  O  O303  1  0.75404951  0.25213184  0.12116140  1
  O  O304  1  0.75717403  0.25313680  0.61986268  1
  O  O305  1  0.75745803  0.75864189  0.12340513  1
  O  O306  1  0.74915390  0.75918906  0.61778406  1
  O  O307  1  0.22972565  0.25596491  0.39007891  1
  O  O308  1  0.25074753  0.24812241  0.89011726  1
  O  O309  1  0.23440689  0.72925126  0.35946948  1
  O  O310  1  0.24794638  0.73711353  0.86895729  1
  O  O311  1  0.74558453  0.24470352  0.38382883  1
  O  O312  1  0.74667489  0.24522034  0.87797401  1
  O  O313  1  0.74697965  0.74697773  0.38049279  1
  O  O314  1  0.74319991  0.74475196  0.87707004  1
  O  O315  1  0.01269973  0.13025635  0.00660887  1
  O  O316  1  0.00316827  0.11861441  0.51081564  1
  O  O317  1  0.00212428  0.61732891  0.00600723  1
  O  O318  1  0.01901507  0.63242121  0.49699676  1
  O  O319  1  0.50140763  0.11503449  0.00595365  1
  O  O320  1  0.49262600  0.11255723  0.51168687  1
  O  O321  1  0.52469749  0.62404833  -0.01834883  1
  O  O322  1  0.49983704  0.62542008  0.50609753  1
  O  O323  1  0.48948192  0.37068765  0.48543068  1
  O  O324  1  0.48911968  0.36935087  0.99315243  1
  O  O325  1  0.49706559  0.89764702  0.50837463  1
  O  O326  1  0.50709549  0.88805665  0.99150206  1
  O  O327  1  0.98475429  0.36741978  0.48994669  1
  O  O328  1  0.99221897  0.38344391  0.99854976  1
  O  O329  1  0.99513960  0.88059324  0.49694055  1
  O  O330  1  0.99269042  0.87433488  0.98476810  1
  O  O331  1  0.46872407  0.49791342  0.35761684  1
  O  O332  1  0.48352981  0.50026119  0.89609189  1
  O  O333  1  0.50202531  1.00489748  0.39204640  1
  O  O334  1  0.49549492  0.99598740  0.88031305  1
  O  O335  1  0.99082155  0.48757175  0.36850647  1
  O  O336  1  0.99179242  0.49325718  0.88827907  1
  O  O337  1  1.00056864  0.98712000  0.38313215  1
  O  O338  1  0.98584303  0.99366663  0.86665426  1
  O  O339  1  0.00415617  0.01367024  0.12110917  1
  O  O340  1  -0.00170244  0.00783678  0.62015079  1
  O  O341  1  0.00246010  0.50521648  0.11580533  1
  O  O342  1  -0.02449366  0.49920824  0.61875899  1
  O  O343  1  0.50117743  0.00482298  0.11772749  1
  O  O344  1  0.50600448  0.00817878  0.62015166  1
  O  O345  1  0.50761415  0.49297159  0.11766361  1
  O  O346  1  0.49841906  0.51398779  0.62307555  1
  O  O347  1  0.23551382  0.36380088  0.24285612  1
  O  O348  1  0.24857683  0.38290036  0.74527547  1
  O  O349  1  0.24298598  0.87184935  0.23778330  1
  O  O350  1  0.24374424  0.88326838  0.74929672  1
  O  O351  1  0.74876864  0.38429771  0.24344264  1
  O  O352  1  0.73785608  0.37616028  0.73870099  1
  O  O353  1  0.74202883  0.88612999  0.24332700  1
  O  O354  1  0.74496450  0.88268097  0.74445069  1
  O  O355  1  0.25579676  0.12003094  0.25277552  1
  O  O356  1  0.24965391  0.11167280  0.75225779  1
  O  O357  1  0.23633202  0.61310883  0.25884434  1
  O  O358  1  0.26078342  0.62305986  0.75809398  1
  O  O359  1  0.74684515  0.10943110  0.24907619  1
  O  O360  1  0.74488574  0.11984952  0.76075909  1
  O  O361  1  0.75545127  0.62027774  0.25739800  1
  O  O362  1  0.75723560  0.63182403  0.76235624  1
  O  O363  1  0.36170605  0.16689375  0.36283512  1
  O  O364  1  0.37231587  0.11572978  0.87070652  1
  O  O365  1  0.35562459  0.60825108  0.37033124  1
  O  O366  1  0.36795446  0.61865005  0.87315917  1
  O  O367  1  0.87962452  0.11230909  0.37850982  1
  O  O368  1  0.86714599  0.11635159  0.88006881  1
  O  O369  1  0.86865332  0.61837000  0.37432830  1
  O  O370  1  0.86855348  0.62124367  0.87230270  1
  O  O371  1  0.12912785  0.38175769  0.12960118  1
  O  O372  1  0.12331099  0.38483555  0.62169471  1
  O  O373  1  0.10844597  0.89237921  0.12258586  1
  O  O374  1  0.13009457  0.87478028  0.63925894  1
  O  O375  1  0.63237349  0.38725923  0.12525474  1
  O  O376  1  0.63468796  0.37931634  0.63106898  1
  O  O377  1  0.63035499  0.88152922  0.13084777  1
  O  O378  1  0.62993562  0.88455876  0.63117083  1
  O  O379  1  0.12085978  0.25412161  0.26037898  1
  O  O380  1  0.12665469  0.25725847  0.75904638  1
  O  O381  1  0.11393198  0.74617646  0.25904366  1
  O  O382  1  0.11961530  0.75670059  0.75447097  1
  O  O383  1  0.61491007  0.24991161  0.25395536  1
  O  O384  1  0.61445473  0.26031307  0.75446130  1
  O  O385  1  0.62095341  0.75782713  0.25892267  1
  O  O386  1  0.61853914  0.75615666  0.75606812  1
  O  O387  1  0.39309454  0.26305854  0.23778931  1
  O  O388  1  0.38842202  0.25194721  0.74912470  1
  O  O389  1  0.39577787  0.74330662  0.25217688  1
  O  O390  1  0.38350818  0.74040674  0.74672935  1
  O  O391  1  0.87255999  0.25183447  0.23636931  1
  O  O392  1  0.86785291  0.25402328  0.73823383  1
  O  O393  1  0.87078292  0.75555508  0.23740520  1
  O  O394  1  0.88378339  0.74451298  0.74994931  1
  O  O395  1  0.36994073  0.48908288  0.48978899  1
  O  O396  1  0.37036408  0.48084384  0.99464751  1
  O  O397  1  0.37181218  1.00350506  0.49145673  1
  O  O398  1  0.38172001  1.00325289  0.98889658  1
  O  O399  1  0.86608100  0.48672555  0.48095533  1
  O  O400  1  0.88047504  0.49779879  0.99507519  1
  O  O401  1  0.88523816  0.99425639  0.49379626  1
  O  O402  1  0.86975111  0.98817857  0.98852110  1
  O  O403  1  0.12683011  0.01268606  0.00856073  1
  O  O404  1  0.11019728  0.01004599  0.50562418  1
  O  O405  1  0.11480706  0.50668369  0.00753614  1
  O  O406  1  0.12688207  0.51684133  0.50398952  1
  O  O407  1  0.61681442  0.00259987  0.00717553  1
  O  O408  1  0.63056333  -0.00149471  0.51065646  1
  O  O409  1  0.62575035  0.50883099  0.01006417  1
  O  O410  1  0.59482638  0.48568786  0.42326571  1
  O  O411  1  0.37099578  0.37005403  0.11636488  1
  O  O412  1  0.38168562  0.37195884  0.60772693  1
  O  O413  1  0.37236220  0.86582253  0.11539029  1
  O  O414  1  0.36734112  0.86430094  0.63235222  1
  O  O415  1  0.87037521  0.36791784  0.12111995  1
  O  O416  1  0.86793733  0.36117276  0.61886198  1
  O  O417  1  0.87382280  0.87330346  0.11671217  1
  O  O418  1  0.86991105  0.87659050  0.61373938  1
  O  O419  1  0.11650844  0.13409690  0.39164585  1
  O  O420  1  0.12579281  0.12325520  0.88835458  1
  O  O421  1  0.12770127  0.62454447  0.37783671  1
  O  O422  1  0.13127856  0.62309371  0.88131875  1
  O  O423  1  0.63012861  0.13465839  0.37013081  1
  O  O424  1  0.63247815  0.13431125  0.87450052  1
  O  O425  1  0.64135150  0.63923037  0.37348628  1
  O  O426  1  0.63548402  0.63016471  0.87823457  1
