# generated using pymatgen
data_V85Zn86O256
_symmetry_space_group_name_H-M   'P 1'
_cell_length_a   16.95049756
_cell_length_b   16.93434615
_cell_length_c   16.94501001
_cell_angle_alpha   90.03138107
_cell_angle_beta   89.97385420
_cell_angle_gamma   90.03078021
_symmetry_Int_Tables_number   1
_chemical_formula_structural   V85Zn86O256
_chemical_formula_sum   'V85 Zn86 O256'
_cell_volume   4863.98851371
_cell_formula_units_Z   1
loop_
 _symmetry_equiv_pos_site_id
 _symmetry_equiv_pos_as_xyz
  1  'x, y, z'
loop_
 _atom_site_type_symbol
 _atom_site_label
 _atom_site_symmetry_multiplicity
 _atom_site_fract_x
 _atom_site_fract_y
 _atom_site_fract_z
 _atom_site_occupancy
  V  V0  1  0.01532737  0.75552894  0.25572981  1
  V  V1  1  0.12848803  0.25092816  0.88256252  1
  V  V2  1  0.25280205  0.37411155  0.61998891  1
  V  V3  1  0.25349857  0.23911352  0.49469007  1
  V  V4  1  0.38408032  0.12571339  0.74943102  1
  V  V5  1  0.25300746  0.12703997  0.87848422  1
  V  V6  1  0.87597612  0.74989669  0.12604985  1
  V  V7  1  0.62768142  0.12498374  -0.00194746  1
  V  V8  1  0.62332569  0.87623604  0.75818619  1
  V  V9  1  0.50183201  -0.00229021  -0.00686668  1
  V  V10  1  0.25454585  0.62543680  0.86742006  1
  V  V11  1  0.49968399  0.50034909  0.49856221  1
  V  V12  1  0.23753170  0.74781674  0.50704420  1
  V  V13  1  0.75350539  0.50090765  0.75302248  1
  V  V14  1  0.75545849  0.87786485  0.62869460  1
  V  V15  1  0.62661350  0.49768115  0.12777417  1
  V  V16  1  0.00066996  0.51184008  0.49654642  1
  V  V17  1  0.49038005  0.62809014  0.62972533  1
  V  V18  1  0.87566552  0.38365412  -0.00355110  1
  V  V19  1  0.87554290  0.24919423  0.12194165  1
  V  V20  1  0.75283697  0.24710038  -0.00539775  1
  V  V21  1  0.87223387  0.11103839  0.24637403  1
  V  V22  1  0.75349462  0.87995800  0.13122799  1
  V  V23  1  0.00141439  0.62358053  0.12226248  1
  V  V24  1  0.50275929  0.86758658  0.37657384  1
  V  V25  1  0.62157888  0.24797594  0.36430368  1
  V  V26  1  0.89812688  0.35556115  0.53090896  1
  V  V27  1  0.37814546  0.49791745  0.86720424  1
  V  V28  1  0.88061128  0.87332675  -0.00480997  1
  V  V29  1  0.62433128  0.50503304  0.62536852  1
  V  V30  1  0.12343587  0.36412504  0.74668657  1
  V  V31  1  0.38159807  0.24961028  0.62166838  1
  V  V32  1  0.50060897  0.00100987  0.49912303  1
  V  V33  1  0.87771498  -0.00961107  0.38922146  1
  V  V34  1  0.49485989  0.62323939  0.13205150  1
  V  V35  1  0.12705793  0.49855876  0.12155141  1
  V  V36  1  0.62316348  0.62649622  0.00034546  1
  V  V37  1  0.10306687  0.00218912  0.62705345  1
  V  V38  1  0.12537787  0.50120784  0.62015649  1
  V  V39  1  0.74855083  0.11755294  0.37011416  1
  V  V40  1  0.37620987  0.74719124  0.13442733  1
  V  V41  1  0.74513995  0.37559683  0.62340856  1
  V  V42  1  0.25213712  0.50160312  0.74619787  1
  V  V43  1  0.61475304  0.26068144  0.87714883  1
  V  V44  1  0.25550331  0.50601198  0.24829858  1
  V  V45  1  -0.00079631  0.24897535  0.24722154  1
  V  V46  1  0.25324656  0.75016662  0.00002999  1
  V  V47  1  0.49245548  0.75153283  0.75938370  1
  V  V48  1  0.37904882  0.24992677  0.13205356  1
  V  V49  1  0.25332272  -0.00179807  0.73874172  1
  V  V50  1  0.00253059  0.12170202  0.11954159  1
  V  V51  1  0.36177824  0.11994408  0.25322249  1
  V  V52  1  0.12723938  0.62462514  -0.00339745  1
  V  V53  1  0.37376653  0.87041427  0.51065389  1
  V  V54  1  0.12698936  0.37461518  0.24859220  1
  V  V55  1  0.00255865  0.62673551  0.62839075  1
  V  V56  1  0.74885052  0.62825454  0.37544526  1
  V  V57  1  0.87718998  0.62481262  0.75654210  1
  V  V58  1  0.37645297  0.50813491  0.37156360  1
  V  V59  1  0.25123594  0.87820865  0.13063819  1
  V  V60  1  0.74918107  0.25302150  0.49483587  1
  V  V61  1  0.23835956  0.62956910  0.37781367  1
  V  V62  1  0.62797437  0.86744883  0.25520153  1
  V  V63  1  0.75160417  0.62400088  0.87679501  1
  V  V64  1  0.12470126  0.76095154  0.87563465  1
  V  V65  1  0.84841928  0.00617306  0.87807125  1
  V  V66  1  0.12960056  0.24048368  0.37255764  1
  V  V67  1  0.62648773  0.00072931  0.62823114  1
  V  V68  1  0.00527882  -0.00228343  -0.01485859  1
  V  V69  1  0.37386592  0.36564378  -0.00705172  1
  V  V70  1  0.10739549  0.12579270  0.50820341  1
  V  V71  1  0.49950617  0.37208840  0.36684035  1
  V  V72  1  0.25083530  0.36848002  0.11966418  1
  V  V73  1  0.38274551  0.87343013  -0.00368113  1
  V  V74  1  0.12813264  -0.00301851  0.12763113  1
  V  V75  1  -0.00524810  0.37438593  0.86868157  1
  V  V76  1  0.62738985  0.00034234  0.13406356  1
  V  V77  1  0.87627329  0.62293378  0.25571465  1
  V  V78  1  0.50085623  0.12553282  0.13576991  1
  V  V79  1  -0.00336704  0.37736516  0.37068820  1
  V  V80  1  0.75482093  0.75240972  0.50103438  1
  V  V81  1  -0.00000167  0.76076988  0.75557730  1
  V  V82  1  0.36354378  -0.00143129  0.37243029  1
  V  V83  1  0.62375221  0.63234995  0.49609424  1
  V  V84  1  0.49864692  0.49335746  -0.00436296  1
  Zn  Zn85  1  0.87877824  0.75598780  0.62567185  1
  Zn  Zn86  1  0.74987934  0.75000006  -0.00028494  1
  Zn  Zn87  1  0.87143114  0.49735664  0.38172862  1
  Zn  Zn88  1  0.51027259  0.12875237  0.62731708  1
  Zn  Zn89  1  0.37801606  -0.00230767  0.87287030  1
  Zn  Zn90  1  0.62709254  0.12371980  0.49886838  1
  Zn  Zn91  1  0.13222217  0.12655877  -0.00104290  1
  Zn  Zn92  1  0.12867609  0.87785598  0.74711652  1
  Zn  Zn93  1  0.75162250  0.37484925  0.12691783  1
  Zn  Zn94  1  0.61852359  0.38280771  0.76106039  1
  Zn  Zn95  1  0.01683169  0.88309828  0.38837976  1
  Zn  Zn96  1  0.49578579  0.25838039  0.76076349  1
  Zn  Zn97  1  0.50239789  0.74328129  0.25763842  1
  Zn  Zn98  1  0.86362814  0.12643317  0.76329151  1
  Zn  Zn99  1  -0.00118853  0.50142546  -0.00881755  1
  Zn  Zn100  1  0.75197796  0.49633459  0.25217727  1
  Zn  Zn101  1  0.62717639  0.37100490  0.24671124  1
  Zn  Zn102  1  0.62132106  0.75414963  0.87886924  1
  Zn  Zn103  1  0.37480699  0.37368811  0.49440386  1
  Zn  Zn104  1  -0.06146555  0.20940280  0.66698420  1
  Zn  Zn105  1  0.18700571  -0.06401463  0.29363898  1
  Zn  Zn106  1  0.36928214  0.75016900  0.63077269  1
  Zn  Zn107  1  0.18799857  0.18654303  0.18432875  1
  Zn  Zn108  1  0.19354072  0.18295953  0.68574838  1
  Zn  Zn109  1  0.19195441  0.68497845  0.18608509  1
  Zn  Zn110  1  0.18479121  0.68803821  0.68785569  1
  Zn  Zn111  1  0.69166905  0.18749684  0.18540982  1
  Zn  Zn112  1  0.73524905  0.17227649  0.66980823  1
  Zn  Zn113  1  0.68903091  0.68719474  0.18736486  1
  Zn  Zn114  1  0.68394717  0.69161750  0.68849795  1
  Zn  Zn115  1  0.31386857  0.31405240  0.30987890  1
  Zn  Zn116  1  0.31077497  0.31227328  0.80912312  1
  Zn  Zn117  1  0.31663452  0.80763279  0.31939825  1
  Zn  Zn118  1  0.31259842  0.81678956  0.81276228  1
  Zn  Zn119  1  0.81218757  0.30932216  0.30832512  1
  Zn  Zn120  1  0.80624787  0.31120547  0.81246157  1
  Zn  Zn121  1  0.81354236  0.80766134  0.31190859  1
  Zn  Zn122  1  0.80941552  0.81225680  0.81254721  1
  Zn  Zn123  1  0.18712702  0.43516281  0.43591041  1
  Zn  Zn124  1  0.18902471  0.43668530  0.93508184  1
  Zn  Zn125  1  0.18705697  0.93537237  0.46146153  1
  Zn  Zn126  1  0.19523251  0.94222143  0.93937306  1
  Zn  Zn127  1  0.68811504  0.43850864  0.43702194  1
  Zn  Zn128  1  0.69155458  0.43906941  0.94184309  1
  Zn  Zn129  1  0.68965362  0.93563535  0.43956746  1
  Zn  Zn130  1  0.68357034  0.93036171  0.94893711  1
  Zn  Zn131  1  0.31435247  0.06152738  0.06287100  1
  Zn  Zn132  1  0.31519885  0.06536050  0.55958445  1
  Zn  Zn133  1  0.31454794  0.56046829  0.05817375  1
  Zn  Zn134  1  0.31225986  0.56435692  0.55668421  1
  Zn  Zn135  1  0.81278559  0.06059927  0.06030597  1
  Zn  Zn136  1  0.81714970  0.06142532  0.56121817  1
  Zn  Zn137  1  0.81174834  0.56282045  0.06368668  1
  Zn  Zn138  1  0.81757808  0.56198581  0.56278892  1
  Zn  Zn139  1  0.43778145  0.43714880  0.18718666  1
  Zn  Zn140  1  0.44068882  0.43364590  0.68699147  1
  Zn  Zn141  1  0.43938067  0.93688101  0.18893601  1
  Zn  Zn142  1  0.44399243  0.93854089  0.69007988  1
  Zn  Zn143  1  0.93746971  0.43909124  0.18367064  1
  Zn  Zn144  1  0.93854960  0.43858967  0.69324001  1
  Zn  Zn145  1  0.94583354  0.93401783  0.18827334  1
  Zn  Zn146  1  0.93240383  0.94189288  0.69902499  1
  Zn  Zn147  1  0.05709738  0.06259795  0.31372251  1
  Zn  Zn148  1  0.05717118  0.07844643  0.79933826  1
  Zn  Zn149  1  0.06287978  0.56455151  0.30880121  1
  Zn  Zn150  1  0.06663572  0.55932361  0.81078035  1
  Zn  Zn151  1  0.55915310  0.05700143  0.31337955  1
  Zn  Zn152  1  0.66454406  0.06612373  0.81202669  1
  Zn  Zn153  1  0.56515010  0.56230705  0.31323788  1
  Zn  Zn154  1  0.56175830  0.56619464  0.81229888  1
  Zn  Zn155  1  0.43970640  0.18361186  0.43323707  1
  Zn  Zn156  1  0.43888323  0.18197011  0.94353525  1
  Zn  Zn157  1  0.43304528  0.68702028  0.43976358  1
  Zn  Zn158  1  0.43600929  0.68302728  0.94046224  1
  Zn  Zn159  1  0.93426849  0.18657156  0.43217570  1
  Zn  Zn160  1  0.94101386  0.18977852  0.93007581  1
  Zn  Zn161  1  0.95855918  0.72075369  0.45539437  1
  Zn  Zn162  1  0.93858362  0.68801617  0.93600998  1
  Zn  Zn163  1  0.06104338  0.31261445  0.05756146  1
  Zn  Zn164  1  0.07006514  0.31544876  0.55585861  1
  Zn  Zn165  1  0.06448042  0.81401070  0.06430729  1
  Zn  Zn166  1  0.05953770  0.82199465  0.56508233  1
  Zn  Zn167  1  0.55977941  0.31172035  0.06338056  1
  Zn  Zn168  1  0.56502755  0.31501153  0.55628026  1
  Zn  Zn169  1  0.56289488  0.81159373  0.06677268  1
  Zn  Zn170  1  0.56367190  0.81291656  0.56750947  1
  O  O171  1  0.11858676  0.12119410  0.11870940  1
  O  O172  1  0.12381614  0.11784591  0.62053379  1
  O  O173  1  0.11952460  0.62024676  0.11723563  1
  O  O174  1  0.11118260  0.61490397  0.63269226  1
  O  O175  1  0.61944658  0.11839324  0.12340290  1
  O  O176  1  0.63098966  0.11180723  0.62128996  1
  O  O177  1  0.62000006  0.61958765  0.11587478  1
  O  O178  1  0.61879898  0.61819160  0.61935591  1
  O  O179  1  0.38200312  0.38389310  0.37424153  1
  O  O180  1  0.36690337  0.38234120  0.88376118  1
  O  O181  1  0.38352001  0.88070995  0.38391250  1
  O  O182  1  0.37088009  0.87724688  0.89201627  1
  O  O183  1  0.89085349  0.37693409  0.36675205  1
  O  O184  1  0.88341336  0.37115028  0.88295836  1
  O  O185  1  0.86595707  0.89168803  0.36845958  1
  O  O186  1  0.86170531  0.88407699  0.89020761  1
  O  O187  1  0.26202285  -0.00852921  0.37777837  1
  O  O188  1  0.25301445  0.01023363  0.86368779  1
  O  O189  1  0.25659451  0.50362045  0.36852180  1
  O  O190  1  0.25616591  0.50635915  0.86770499  1
  O  O191  1  0.75733765  0.01138686  0.37921441  1
  O  O192  1  0.74634881  0.00425902  0.88512015  1
  O  O193  1  0.75299563  0.51161879  0.37435130  1
  O  O194  1  0.74350075  0.51296710  0.86722880  1
  O  O195  1  0.24851874  0.49379378  0.13119696  1
  O  O196  1  0.24424829  0.49678086  0.62460839  1
  O  O197  1  0.24291290  0.99016767  0.11955315  1
  O  O198  1  0.25065613  1.00774767  0.63761156  1
  O  O199  1  0.73942422  0.49897536  0.12570596  1
  O  O200  1  0.74135783  0.49989282  0.63097881  1
  O  O201  1  0.74190552  0.99117585  0.12192946  1
  O  O202  1  0.74114667  0.98441267  0.61559132  1
  O  O203  1  0.00812078  0.37095846  0.25103659  1
  O  O204  1  0.01079822  0.37663276  0.75526202  1
  O  O205  1  -0.00317549  0.85867917  0.25765109  1
  O  O206  1  0.00224268  0.86376907  0.75142109  1
  O  O207  1  0.50396345  0.38020607  0.26271593  1
  O  O208  1  0.50798418  0.36986520  0.74644564  1
  O  O209  1  0.50847010  0.87204720  0.25909899  1
  O  O210  1  0.50734534  0.86078127  0.74836028  1
  O  O211  1  0.49280246  0.11901887  0.23925725  1
  O  O212  1  0.48669940  0.13457196  0.74759662  1
  O  O213  1  0.50485021  0.62486122  0.23638951  1
  O  O214  1  0.50516894  0.63902008  0.74173480  1
  O  O215  1  0.99372438  0.12908248  0.23709171  1
  O  O216  1  0.97938312  0.13149414  0.74373242  1
  O  O217  1  0.99615593  0.62725475  0.23527869  1
  O  O218  1  0.99359317  0.62800792  0.74788194  1
  O  O219  1  0.37918275  0.26043183  0.01010156  1
  O  O220  1  0.36894290  0.24867629  0.50203105  1
  O  O221  1  0.37275100  0.75570746  0.00776085  1
  O  O222  1  0.37110725  0.75734207  0.50598130  1
  O  O223  1  0.86948199  0.25496191  0.00178605  1
  O  O224  1  0.86095461  0.26252767  0.48333567  1
  O  O225  1  0.87708506  0.75659204  0.00750021  1
  O  O226  1  0.85653001  0.73425725  0.51035489  1
  O  O227  1  0.13267044  0.24336928  0.49269781  1
  O  O228  1  0.12835145  0.25004124  0.98664517  1
  O  O229  1  0.13936024  0.75211441  0.50828002  1
  O  O230  1  0.13114196  0.74476983  0.99402971  1
  O  O231  1  0.63489811  0.24981919  0.48584172  1
  O  O232  1  0.63123649  0.24377353  1.00053256  1
  O  O233  1  0.63305273  0.73731813  0.50779755  1
  O  O234  1  0.62616703  0.74071874  1.00007950  1
  O  O235  1  0.49075348  0.24013153  0.12331013  1
  O  O236  1  0.49005129  0.24908885  0.61639093  1
  O  O237  1  0.49214476  0.73977537  0.12468115  1
  O  O238  1  0.49782760  0.74260231  0.63448097  1
  O  O239  1  0.99714730  0.24073417  0.12602985  1
  O  O240  1  0.96681467  0.29185367  0.59377901  1
  O  O241  1  0.99232252  0.74441804  0.13025409  1
  O  O242  1  1.00076374  0.74154860  0.63780067  1
  O  O243  1  0.00654146  0.25751454  0.36707234  1
  O  O244  1  0.01306016  0.26285476  0.87721884  1
  O  O245  1  0.00710342  0.72798931  0.35204864  1
  O  O246  1  0.01333329  0.74236905  0.86769885  1
  O  O247  1  0.50888048  0.25920073  0.38023557  1
  O  O248  1  0.51112116  0.25084415  0.88552970  1
  O  O249  1  0.49488674  0.76221419  0.37603343  1
  O  O250  1  0.50002280  0.74179465  0.86305204  1
  O  O251  1  0.24147243  0.13658628  0.50211527  1
  O  O252  1  0.25260173  0.11984256  0.98364071  1
  O  O253  1  0.25253633  0.63610809  0.49043293  1
  O  O254  1  0.24632660  0.63124201  0.99254187  1
  O  O255  1  0.74953846  0.13629265  0.48681257  1
  O  O256  1  0.73957968  0.13389391  1.00927019  1
  O  O257  1  0.74234977  0.62661464  0.49511755  1
  O  O258  1  0.74309847  0.62512901  0.99380150  1
  O  O259  1  0.26066112  0.38245783  0.01006858  1
  O  O260  1  0.24936040  0.36340703  0.50495105  1
  O  O261  1  0.25901732  0.86857331  0.01006779  1
  O  O262  1  0.26112681  0.85790564  0.50087504  1
  O  O263  1  0.76045047  0.36898606  0.00362795  1
  O  O264  1  0.75825260  0.37205345  0.50640257  1
  O  O265  1  0.75782348  0.86978202  0.01505661  1
  O  O266  1  0.74183645  0.86292134  0.51354312  1
  O  O267  1  0.13241930  0.49379957  0.24131871  1
  O  O268  1  0.13129159  0.49029398  0.73741189  1
  O  O269  1  0.12197411  1.00940691  0.23350107  1
  O  O270  1  0.13379066  1.00546773  0.73877541  1
  O  O271  1  0.62637954  0.50137526  0.23643338  1
  O  O272  1  0.63433278  0.50564423  0.74215479  1
  O  O273  1  0.62162259  0.98937224  0.23953455  1
  O  O274  1  0.61597160  0.98959825  0.74134354  1
  O  O275  1  0.37844389  0.00602192  0.25972618  1
  O  O276  1  0.36992851  0.00664872  0.75031611  1
  O  O277  1  0.36529362  0.49543743  0.25623958  1
  O  O278  1  0.37070218  0.49438812  0.76090540  1
  O  O279  1  0.87787562  0.00958419  0.24596240  1
  O  O280  1  0.87042422  -0.00534938  0.77838689  1
  O  O281  1  0.87559796  0.51317116  0.24738234  1
  O  O282  1  0.86092441  0.50785354  0.74832229  1
  O  O283  1  0.11545095  0.36721783  0.36870586  1
  O  O284  1  0.12440907  0.36786551  0.86530055  1
  O  O285  1  0.12798064  0.89358734  0.37659610  1
  O  O286  1  0.13442029  0.86317624  0.87628709  1
  O  O287  1  0.61863523  0.36729006  0.37275822  1
  O  O288  1  0.62445550  0.36505107  0.88395881  1
  O  O289  1  0.61862744  0.88051150  0.36560768  1
  O  O290  1  0.63179187  0.87339511  0.86359397  1
  O  O291  1  0.38084216  0.13088773  0.13023825  1
  O  O292  1  0.37808989  0.13370555  0.63048535  1
  O  O293  1  0.38407048  0.63260444  0.11747618  1
  O  O294  1  0.38815107  0.62286857  0.62255264  1
  O  O295  1  0.88258277  0.12797177  0.12749361  1
  O  O296  1  0.84695878  0.13889802  0.63212611  1
  O  O297  1  0.88269532  0.63188430  0.12796124  1
  O  O298  1  0.88639745  0.62341062  0.63871513  1
  O  O299  1  0.25704253  0.26208733  0.12709307  1
  O  O300  1  0.26189110  0.25302500  0.61603393  1
  O  O301  1  0.25859202  0.75333804  0.11892571  1
  O  O302  1  0.25369445  0.73954987  0.61312477  1
  O  O303  1  0.75831617  0.25205593  0.11479128  1
  O  O304  1  0.73377555  0.26715679  0.60906746  1
  O  O305  1  0.76440794  0.75326326  0.12445377  1
  O  O306  1  0.74979918  0.75985609  0.62071840  1
  O  O307  1  0.24000204  0.25692831  0.38084273  1
  O  O308  1  0.24182904  0.24029611  0.86712852  1
  O  O309  1  0.25489206  0.73833404  0.38596241  1
  O  O310  1  0.24659139  0.74233878  0.87777003  1
  O  O311  1  0.74238007  0.24267261  0.37664556  1
  O  O312  1  0.73662672  0.25614525  0.89140519  1
  O  O313  1  0.75387339  0.73784921  0.38404742  1
  O  O314  1  0.74665631  0.73656328  0.87726963  1
  O  O315  1  0.00174263  0.11818891  0.00818764  1
  O  O316  1  0.00789733  0.13716140  0.50376434  1
  O  O317  1  0.00449372  0.62375217  0.00831313  1
  O  O318  1  -0.00629036  0.61771426  0.50982999  1
  O  O319  1  0.50651330  0.11680810  0.01503876  1
  O  O320  1  0.50343434  0.11124551  0.50024837  1
  O  O321  1  0.50649135  0.61492256  0.00779946  1
  O  O322  1  0.50672757  0.62144733  0.50608309  1
  O  O323  1  0.50033313  0.38491850  0.48745003  1
  O  O324  1  0.48989825  0.38704243  1.00536313  1
  O  O325  1  0.49659302  0.88117942  0.49548008  1
  O  O326  1  0.49414983  0.88338495  1.00861684  1
  O  O327  1  1.00010937  0.38702853  0.48715336  1
  O  O328  1  0.99194125  0.37621057  0.99061840  1
  O  O329  1  0.98548494  0.82973555  0.48351483  1
  O  O330  1  0.99076844  0.88368722  1.00561992  1
  O  O331  1  0.49335364  0.49680019  0.37773271  1
  O  O332  1  0.49053882  0.50743092  0.88334689  1
  O  O333  1  0.49394592  0.98849977  0.38311739  1
  O  O334  1  0.49862732  1.00489043  0.89401408  1
  O  O335  1  1.00075179  0.49626498  0.38093723  1
  O  O336  1  1.00895407  0.48225234  0.87476791  1
  O  O337  1  0.98240928  0.99802757  0.37122562  1
  O  O338  1  1.00903155  1.00474500  0.88533470  1
  O  O339  1  0.00716097  0.00536892  0.11661557  1
  O  O340  1  0.00420308  0.00056180  0.63106187  1
  O  O341  1  0.00835118  0.50822392  0.12014877  1
  O  O342  1  0.00692159  0.50456258  0.61934091  1
  O  O343  1  0.50895382  0.00579101  0.12157813  1
  O  O344  1  0.50871472  0.00235914  0.61689042  1
  O  O345  1  0.50403816  0.50581509  0.11768401  1
  O  O346  1  0.50672404  0.50794199  0.62049645  1
  O  O347  1  0.24497588  0.38417555  0.24160401  1
  O  O348  1  0.24381384  0.38180353  0.73975906  1
  O  O349  1  0.25993930  0.86932926  0.23603391  1
  O  O350  1  0.24967327  0.89360695  0.75394690  1
  O  O351  1  0.74764976  0.37834769  0.24577682  1
  O  O352  1  0.73954107  0.38551611  0.74425121  1
  O  O353  1  0.74493134  0.86814758  0.23888930  1
  O  O354  1  0.73912018  0.86801250  0.73727136  1
  O  O355  1  0.26222745  0.12441188  0.24519043  1
  O  O356  1  0.26190686  0.11695842  0.75646491  1
  O  O357  1  0.24807406  0.61309366  0.25664944  1
  O  O358  1  0.24604466  0.61767403  0.75867178  1
  O  O359  1  0.76056927  0.12898066  0.25758679  1
  O  O360  1  0.74817761  0.12050104  0.76527034  1
  O  O361  1  0.75792340  0.62564170  0.25773257  1
  O  O362  1  0.75637560  0.62230963  0.75569916  1
  O  O363  1  0.37989452  0.11272059  0.36517707  1
  O  O364  1  0.37016276  0.12566780  0.86772046  1
  O  O365  1  0.36831049  0.61247151  0.37621731  1
  O  O366  1  0.36270758  0.61379287  0.88174001  1
  O  O367  1  0.86888146  0.11520463  0.36547311  1
  O  O368  1  0.87206253  0.10674548  0.88906775  1
  O  O369  1  0.86827693  0.62153109  0.36584026  1
  O  O370  1  0.86861568  0.62616408  0.86534190  1
  O  O371  1  0.13322385  0.37726993  0.12622544  1
  O  O372  1  0.13216934  0.37966621  0.62987195  1
  O  O373  1  0.13677620  0.88373018  0.12172924  1
  O  O374  1  0.12183175  0.89580925  0.62753006  1
  O  O375  1  0.62433923  0.38417530  0.12539991  1
  O  O376  1  0.63090507  0.39176131  0.61907455  1
  O  O377  1  0.63409633  0.88141294  0.13038059  1
  O  O378  1  0.63045461  0.88198969  0.63476822  1
  O  O379  1  0.12073857  0.25259281  0.25562115  1
  O  O380  1  0.13226700  0.26077241  0.75115734  1
  O  O381  1  0.11328295  0.74905298  0.23703444  1
  O  O382  1  0.11973504  0.75416445  0.75819044  1
  O  O383  1  0.62739014  0.24899707  0.26022571  1
  O  O384  1  0.62270207  0.25062240  0.77605920  1
  O  O385  1  0.62130912  0.76285074  0.24208440  1
  O  O386  1  0.61341521  0.75765535  0.75339014  1
  O  O387  1  0.37220336  0.24270787  0.23892770  1
  O  O388  1  0.37480378  0.24493249  0.73860621  1
  O  O389  1  0.37952876  0.75164337  0.23746076  1
  O  O390  1  0.38717796  0.75580854  0.74901909  1
  O  O391  1  0.88275251  0.24042361  0.24193252  1
  O  O392  1  0.86880021  0.24589350  0.75237181  1
  O  O393  1  0.88270077  0.73879929  0.24269595  1
  O  O394  1  0.88341843  0.74310481  0.75137753  1
  O  O395  1  0.38162577  0.49754754  0.49001142  1
  O  O396  1  0.38145982  0.49076571  0.99089295  1
  O  O397  1  0.38094315  0.99375062  0.49391562  1
  O  O398  1  0.38500139  0.99096263  1.00359537  1
  O  O399  1  0.88850673  0.48587538  0.50314873  1
  O  O400  1  0.87664739  0.48745924  1.00437498  1
  O  O401  1  0.87541322  0.99741265  0.48832956  1
  O  O402  1  0.88170199  0.99197294  0.99193304  1
  O  O403  1  0.12012467  0.00197878  0.00816287  1
  O  O404  1  0.12593733  0.01285119  0.51917439  1
  O  O405  1  0.12615427  0.50638739  0.00485791  1
  O  O406  1  0.11732490  0.49361644  0.51216471  1
  O  O407  1  0.61994142  0.00599059  0.01239112  1
  O  O408  1  0.61606570  -0.00224446  0.50694522  1
  O  O409  1  0.61736581  0.50520478  0.00802778  1
  O  O410  1  0.62007138  0.51063530  0.50622346  1
  O  O411  1  0.37017296  0.36764700  0.12039581  1
  O  O412  1  0.36969189  0.36776653  0.61847857  1
  O  O413  1  0.37189744  0.86714046  0.11777614  1
  O  O414  1  0.38158022  0.87643165  0.61307485  1
  O  O415  1  0.87923058  0.36565350  0.11509440  1
  O  O416  1  0.85625932  0.38843413  0.62722908  1
  O  O417  1  0.87179938  0.86897311  0.12032405  1
  O  O418  1  0.85942868  0.87615403  0.63451635  1
  O  O419  1  0.11791797  0.13583268  0.38224763  1
  O  O420  1  0.13280435  0.13514583  0.87206451  1
  O  O421  1  0.13973499  0.61647888  0.37486452  1
  O  O422  1  0.13600217  0.62960357  0.87906269  1
  O  O423  1  0.63113501  0.12837650  0.37335964  1
  O  O424  1  0.61902614  0.13503582  0.89472374  1
  O  O425  1  0.63303973  0.62278509  0.38439525  1
  O  O426  1  0.63017629  0.62516974  0.88806453  1
