# generated using pymatgen
data_V85Zn86O256
_symmetry_space_group_name_H-M   'P 1'
_cell_length_a   16.93370527
_cell_length_b   16.93518469
_cell_length_c   16.92774632
_cell_angle_alpha   90.05667145
_cell_angle_beta   89.99216522
_cell_angle_gamma   90.01037522
_symmetry_Int_Tables_number   1
_chemical_formula_structural   V85Zn86O256
_chemical_formula_sum   'V85 Zn86 O256'
_cell_volume   4854.45916580
_cell_formula_units_Z   1
loop_
 _symmetry_equiv_pos_site_id
 _symmetry_equiv_pos_as_xyz
  1  'x, y, z'
loop_
 _atom_site_type_symbol
 _atom_site_label
 _atom_site_symmetry_multiplicity
 _atom_site_fract_x
 _atom_site_fract_y
 _atom_site_fract_z
 _atom_site_occupancy
  V  V0  1  0.36720735  0.63051933  0.74084102  1
  V  V1  1  0.60764226  0.14506580  0.51715339  1
  V  V2  1  0.13453961  0.62523541  -0.00070659  1
  V  V3  1  0.62369000  0.25089028  0.87238219  1
  V  V4  1  0.13312333  0.37347117  0.24468583  1
  V  V5  1  0.00237389  0.50222222  0.00024189  1
  V  V6  1  0.38286645  0.75348915  0.12067066  1
  V  V7  1  0.38433376  0.63052852  0.25196736  1
  V  V8  1  0.87780392  0.00192804  0.38253772  1
  V  V9  1  -0.00264244  0.74332387  0.25110848  1
  V  V10  1  0.25081461  0.25442506  0.51801271  1
  V  V11  1  0.37324607  -0.00480055  0.87530101  1
  V  V12  1  0.87859239  0.51317548  0.37217544  1
  V  V13  1  0.87514513  0.87738812  0.50081115  1
  V  V14  1  0.49275555  -0.00580255  0.00453571  1
  V  V15  1  0.37378451  0.86832593  0.51552834  1
  V  V16  1  0.13402006  0.74716030  0.87610898  1
  V  V17  1  -0.00078844  0.11386374  0.61904706  1
  V  V18  1  0.49692607  0.37920053  0.86808173  1
  V  V19  1  0.36893803  0.37334679  -0.00593845  1
  V  V20  1  0.62390432  0.50366312  0.12209236  1
  V  V21  1  0.62276210  0.50833035  0.62020352  1
  V  V22  1  0.24399043  0.62523279  0.37412977  1
  V  V23  1  0.75635930  0.50639109  0.24916664  1
  V  V24  1  0.00239501  0.87866340  0.38136205  1
  V  V25  1  0.13013702  0.87568229  0.74562179  1
  V  V26  1  0.87643591  0.62324743  0.74847192  1
  V  V27  1  0.63098657  -0.00325228  0.13212410  1
  V  V28  1  0.74830257  0.75597670  -0.00243679  1
  V  V29  1  0.12399500  0.11413412  0.49654390  1
  V  V30  1  0.87260285  0.74282141  0.12717850  1
  V  V31  1  0.49985999  0.12618621  0.12324273  1
  V  V32  1  0.24959616  0.74646175  0.51129339  1
  V  V33  1  0.49990480  -0.00203663  0.49784795  1
  V  V34  1  0.75213708  0.50127637  0.74725746  1
  V  V35  1  0.25119940  0.12656858  0.87855413  1
  V  V36  1  0.87337518  0.12388470  0.25232344  1
  V  V37  1  0.01184136  0.62302647  0.61684493  1
  V  V38  1  0.12575767  0.87280892  0.24951471  1
  V  V39  1  0.87386998  0.75022323  0.62462107  1
  V  V40  1  0.75088244  0.00364915  0.75194609  1
  V  V41  1  0.75015014  0.87415759  0.62540594  1
  V  V42  1  0.74814004  0.25146326  0.00029972  1
  V  V43  1  0.61453820  0.25473879  0.37155355  1
  V  V44  1  0.50122322  0.50567388  0.48964728  1
  V  V45  1  0.00149222  0.37569066  0.37033521  1
  V  V46  1  0.49924514  0.74927151  0.74487933  1
  V  V47  1  0.00097405  0.24825781  0.24676017  1
  V  V48  1  0.50012445  0.85728524  0.36982902  1
  V  V49  1  0.62560284  0.62984106  -0.00897818  1
  V  V50  1  0.25277846  -0.00070021  0.74211042  1
  V  V51  1  0.62573173  0.87045413  0.75873750  1
  V  V52  1  0.87982898  0.37875759  0.49570114  1
  V  V53  1  0.87470305  0.24869924  0.12486803  1
  V  V54  1  0.00157460  0.87681104  0.88286131  1
  V  V55  1  0.12204830  0.12452454  -0.00058666  1
  V  V56  1  0.00043433  0.75038748  0.75202494  1
  V  V57  1  0.24149528  0.49132843  0.74681630  1
  V  V58  1  0.37576787  0.12597139  0.25087515  1
  V  V59  1  0.62406386  0.12440584  0.00110802  1
  V  V60  1  0.49990916  0.86757576  0.88192105  1
  V  V61  1  0.73736105  0.74687760  0.49859759  1
  V  V62  1  0.74423556  0.12486276  0.37742453  1
  V  V63  1  0.61759493  0.37851491  0.25163960  1
  V  V64  1  0.00074628  0.36908968  0.86716916  1
  V  V65  1  0.12385389  0.25079528  0.86405719  1
  V  V66  1  0.73664874  0.62981670  0.37697583  1
  V  V67  1  0.88049467  0.12715242  0.74977079  1
  V  V68  1  0.25240754  0.87269574  0.11517373  1
  V  V69  1  0.25255514  0.12783940  0.37382972  1
  V  V70  1  0.25127771  -0.00224005  0.24634501  1
  V  V71  1  0.88079714  0.25005529  0.62611038  1
  V  V72  1  0.87556983  0.37575513  0.00010904  1
  V  V73  1  0.87936096  0.00024704  0.88030561  1
  V  V74  1  0.62855714  0.85876067  0.25352701  1
  V  V75  1  0.62169211  0.00211054  0.62441730  1
  V  V76  1  0.87442579  0.87966775  0.01132586  1
  V  V77  1  -0.00221139  0.11348641  0.12053418  1
  V  V78  1  0.87538887  0.50022356  0.87379809  1
  V  V79  1  0.75518013  0.25206868  0.49899087  1
  V  V80  1  0.38185831  0.37140663  0.50399300  1
  V  V81  1  0.74888889  0.37603528  0.12530514  1
  V  V82  1  0.36911741  0.24971145  0.11405870  1
  V  V83  1  0.36943471  0.51280466  0.87485059  1
  V  V84  1  0.62297083  0.37518310  0.74733871  1
  Zn  Zn85  1  0.15393870  0.45794907  0.59927779  1
  Zn  Zn86  1  0.00162289  0.62398406  0.12738459  1
  Zn  Zn87  1  0.49556429  0.25662020  0.25024658  1
  Zn  Zn88  1  0.50021996  0.63022976  0.61934118  1
  Zn  Zn89  1  0.49927597  0.50460048  -0.00119233  1
  Zn  Zn90  1  0.12947909  0.50012335  0.12258803  1
  Zn  Zn91  1  0.74800329  -0.00505529  0.25164949  1
  Zn  Zn92  1  0.24787719  0.37338792  0.11542956  1
  Zn  Zn93  1  0.37754982  0.49195198  0.36816233  1
  Zn  Zn94  1  0.74720895  0.63155193  0.87205213  1
  Zn  Zn95  1  0.50592509  0.63246136  0.12700293  1
  Zn  Zn96  1  0.75161829  0.12676093  0.87566571  1
  Zn  Zn97  1  0.25311947  0.50265794  0.24465281  1
  Zn  Zn98  1  0.37773202  -0.00592105  0.37266465  1
  Zn  Zn99  1  0.38949472  0.14106542  0.73011561  1
  Zn  Zn100  1  0.25663690  0.74887582  -0.00400405  1
  Zn  Zn101  1  0.12369220  -0.00825971  0.61911505  1
  Zn  Zn102  1  0.12689333  0.24749835  0.37308406  1
  Zn  Zn103  1  0.75631335  0.37903625  0.62351506  1
  Zn  Zn104  1  0.12476159  0.74856193  0.38028332  1
  Zn  Zn105  1  0.12051999  -0.00535186  0.11579633  1
  Zn  Zn106  1  0.01708720  0.51276041  0.49221198  1
  Zn  Zn107  1  0.18757699  0.18766295  0.18259359  1
  Zn  Zn108  1  0.18550617  0.17861497  0.69036965  1
  Zn  Zn109  1  0.18938475  0.68817565  0.18646171  1
  Zn  Zn110  1  0.18979339  0.68573577  0.69166144  1
  Zn  Zn111  1  0.68703395  0.18706876  0.18948885  1
  Zn  Zn112  1  0.56785574  0.18766923  0.69429961  1
  Zn  Zn113  1  0.69485558  0.68617079  0.18357590  1
  Zn  Zn114  1  0.68559734  0.68917141  0.68857768  1
  Zn  Zn115  1  0.31823591  0.31010558  0.31596038  1
  Zn  Zn116  1  0.30571030  0.31312301  0.80831679  1
  Zn  Zn117  1  0.31449594  0.80832942  0.31238616  1
  Zn  Zn118  1  0.31475275  0.81485503  0.81116032  1
  Zn  Zn119  1  0.81072612  0.31529319  0.31114440  1
  Zn  Zn120  1  0.81264396  0.31360534  0.80979970  1
  Zn  Zn121  1  0.81227114  0.81073761  0.31282921  1
  Zn  Zn122  1  0.81371710  0.81426214  0.81657623  1
  Zn  Zn123  1  0.19188521  0.43578076  0.42830332  1
  Zn  Zn124  1  0.18766047  0.43700159  0.93064259  1
  Zn  Zn125  1  0.19495963  0.93361931  0.43498690  1
  Zn  Zn126  1  0.18391623  0.94148253  0.93580887  1
  Zn  Zn127  1  0.68843267  0.44046982  0.43526922  1
  Zn  Zn128  1  0.68872863  0.44097331  0.93512411  1
  Zn  Zn129  1  0.68380481  0.93581013  0.43634330  1
  Zn  Zn130  1  0.68866638  0.93823678  0.94103605  1
  Zn  Zn131  1  0.31089093  0.06258736  0.05940481  1
  Zn  Zn132  1  0.31063453  0.05613928  0.55933447  1
  Zn  Zn133  1  0.31278679  0.56203213  0.06561539  1
  Zn  Zn134  1  0.31374341  0.56051527  0.56039895  1
  Zn  Zn135  1  0.81023847  0.06235501  0.06213489  1
  Zn  Zn136  1  0.80547804  0.06483662  0.56298299  1
  Zn  Zn137  1  0.81198922  0.56681899  0.06040376  1
  Zn  Zn138  1  0.81677762  0.56266283  0.56003077  1
  Zn  Zn139  1  0.43552938  0.44112648  0.18303384  1
  Zn  Zn140  1  0.43423041  0.44081460  0.68359650  1
  Zn  Zn141  1  0.44076395  0.93348836  0.18968051  1
  Zn  Zn142  1  0.44056543  0.94438210  0.69086361  1
  Zn  Zn143  1  0.93916488  0.43829441  0.18603028  1
  Zn  Zn144  1  0.98424884  0.41552355  0.66352008  1
  Zn  Zn145  1  0.93528756  0.93483924  0.19634623  1
  Zn  Zn146  1  0.93989243  0.93644184  0.69130216  1
  Zn  Zn147  1  0.06336742  0.05914531  0.31035256  1
  Zn  Zn148  1  0.06188290  0.06214990  0.81096938  1
  Zn  Zn149  1  0.06762318  0.56063818  0.31010404  1
  Zn  Zn150  1  0.06123093  0.56435859  0.81450209  1
  Zn  Zn151  1  0.56027066  0.06263647  0.31644680  1
  Zn  Zn152  1  0.56268923  0.05731408  0.81920362  1
  Zn  Zn153  1  0.56335624  0.56472853  0.31037392  1
  Zn  Zn154  1  0.55962002  0.56351673  0.80975274  1
  Zn  Zn155  1  0.43427532  0.18636021  0.55215296  1
  Zn  Zn156  1  0.41994821  0.20565278  0.89834606  1
  Zn  Zn157  1  0.43320060  0.68579816  0.43902818  1
  Zn  Zn158  1  0.44140657  0.68875347  0.93888764  1
  Zn  Zn159  1  0.94207129  0.18653267  0.43665543  1
  Zn  Zn160  1  0.93989967  0.18764656  0.93827062  1
  Zn  Zn161  1  0.93420976  0.69390690  0.43823633  1
  Zn  Zn162  1  0.93993508  0.68906561  0.93883522  1
  Zn  Zn163  1  0.06368063  0.30775360  0.05681550  1
  Zn  Zn164  1  0.06402802  0.30057664  0.55715938  1
  Zn  Zn165  1  0.06242736  0.81011926  0.06314508  1
  Zn  Zn166  1  0.06340845  0.80775746  0.56179855  1
  Zn  Zn167  1  0.55545930  0.31518044  0.05774012  1
  Zn  Zn168  1  0.56815951  0.32781994  0.55624755  1
  Zn  Zn169  1  0.56786355  0.81360822  0.06684960  1
  Zn  Zn170  1  0.56060358  0.81692086  0.56588532  1
  O  O171  1  0.11548913  0.12340039  0.11755535  1
  O  O172  1  0.11530319  0.12057069  0.61654225  1
  O  O173  1  0.12157512  0.62425663  0.11547172  1
  O  O174  1  0.11033655  0.62950668  0.63030071  1
  O  O175  1  0.61657018  0.11949636  0.12389870  1
  O  O176  1  0.63451926  0.10971677  0.62212030  1
  O  O177  1  0.62724619  0.61862965  0.11691931  1
  O  O178  1  0.62339698  0.61199566  0.62974639  1
  O  O179  1  0.36465218  0.37877741  0.39289090  1
  O  O180  1  0.38199864  0.38622113  0.87634396  1
  O  O181  1  0.38902616  0.87413760  0.37477139  1
  O  O182  1  0.38418993  0.88532720  0.87475139  1
  O  O183  1  0.88157634  0.38462175  0.37611792  1
  O  O184  1  0.87687705  0.37914118  0.88430488  1
  O  O185  1  0.88106174  0.88265268  0.37995128  1
  O  O186  1  0.88274262  0.88214963  0.88416779  1
  O  O187  1  0.25306312  0.00694374  0.36188540  1
  O  O188  1  0.25679579  0.00247084  0.86860786  1
  O  O189  1  0.25601005  0.51435121  0.36944449  1
  O  O190  1  0.26364246  0.49902628  0.86540693  1
  O  O191  1  0.75243375  0.01381404  0.37872676  1
  O  O192  1  0.76080467  -0.00030186  0.86917433  1
  O  O193  1  0.75693213  0.51070875  0.36939677  1
  O  O194  1  0.75807508  0.50401731  0.86541363  1
  O  O195  1  0.24824298  0.49161119  0.12717247  1
  O  O196  1  0.24927320  0.50642474  0.63973761  1
  O  O197  1  0.24951985  0.99306978  0.13353709  1
  O  O198  1  0.24554538  1.00173873  0.63880883  1
  O  O199  1  0.74432557  0.49952433  0.13197202  1
  O  O200  1  0.74646919  0.49939973  0.62982651  1
  O  O201  1  0.73514510  1.00448044  0.12821836  1
  O  O202  1  0.74553016  0.99235164  0.63310514  1
  O  O203  1  0.00577138  0.36935869  0.25482735  1
  O  O204  1  -0.01857521  0.37843460  0.77042104  1
  O  O205  1  0.00775791  0.86879722  0.26039722  1
  O  O206  1  0.00436047  0.86873048  0.76232976  1
  O  O207  1  0.51358356  0.37736444  0.24366324  1
  O  O208  1  0.50761659  0.38317629  0.75819543  1
  O  O209  1  0.50920945  0.87470625  0.26338955  1
  O  O210  1  0.50705380  0.87080778  0.75767278  1
  O  O211  1  0.49225376  0.12452333  0.23953055  1
  O  O212  1  0.50195089  0.12297197  0.75467909  1
  O  O213  1  0.48914199  0.62540827  0.24730837  1
  O  O214  1  0.49141370  0.63392393  0.74912434  1
  O  O215  1  0.99339872  0.13019000  0.24521806  1
  O  O216  1  0.98627453  0.11896075  0.74078082  1
  O  O217  1  1.00563646  0.63964348  0.25101957  1
  O  O218  1  0.99291649  0.63016551  0.74258484  1
  O  O219  1  0.38386772  0.26014080  0.00149403  1
  O  O220  1  0.36213564  0.25965370  0.49913818  1
  O  O221  1  0.37325658  0.74423152  0.01515914  1
  O  O222  1  0.36881464  0.76123618  0.49984129  1
  O  O223  1  0.86793366  0.25470269  0.00496290  1
  O  O224  1  0.87205072  0.25673653  0.49948642  1
  O  O225  1  0.87228299  0.75886400  0.00782201  1
  O  O226  1  0.86546653  0.75848976  0.50741330  1
  O  O227  1  0.13779147  0.23691808  0.49492071  1
  O  O228  1  0.11957554  0.23293254  0.98962254  1
  O  O229  1  0.14479789  0.75834803  0.49725624  1
  O  O230  1  0.12645617  0.74285525  0.99297260  1
  O  O231  1  0.63943969  0.25579900  0.48745791  1
  O  O232  1  0.62991990  0.24683890  0.99519428  1
  O  O233  1  0.63814188  0.75545113  0.50754728  1
  O  O234  1  0.63603180  0.74332688  1.00675756  1
  O  O235  1  0.49242940  0.24079233  0.12527960  1
  O  O236  1  0.53634999  0.22430172  0.59052763  1
  O  O237  1  0.48665057  0.75296620  0.12417508  1
  O  O238  1  0.50352404  0.75006495  0.63961931  1
  O  O239  1  0.99246165  0.24201659  0.13046909  1
  O  O240  1  0.98546381  0.23233206  0.61603231  1
  O  O241  1  0.99262875  0.75104492  0.13412925  1
  O  O242  1  0.99329053  0.74237483  0.63126908  1
  O  O243  1  0.00079944  0.25666804  0.36327344  1
  O  O244  1  0.00920317  0.25677867  0.87858768  1
  O  O245  1  0.00106796  0.75863952  0.36847571  1
  O  O246  1  0.00694916  0.75840794  0.87028903  1
  O  O247  1  0.51558186  0.25026586  0.37001422  1
  O  O248  1  0.51843354  0.26450536  0.88265884  1
  O  O249  1  0.50142875  0.75895747  0.37947708  1
  O  O250  1  0.49581348  0.76240089  0.86685141  1
  O  O251  1  0.24789054  0.13188643  0.49019339  1
  O  O252  1  0.23996034  0.11904294  0.98777403  1
  O  O253  1  0.26406043  0.63756572  0.48709218  1
  O  O254  1  0.23810029  0.62530455  1.00042533  1
  O  O255  1  0.73812054  0.13565263  0.49652587  1
  O  O256  1  0.74273574  0.13286064  0.99832855  1
  O  O257  1  0.75494164  0.63149332  0.48722585  1
  O  O258  1  0.74414451  0.63450383  0.99644652  1
  O  O259  1  0.26460905  0.37733074  -0.00587485  1
  O  O260  1  0.24965335  0.35826802  0.50008830  1
  O  O261  1  0.24484286  0.87665661  0.01281745  1
  O  O262  1  0.26635427  0.86414170  0.49517980  1
  O  O263  1  0.75460706  0.37203341  0.00611505  1
  O  O264  1  0.76535848  0.37160506  0.49559496  1
  O  O265  1  0.76085028  0.86910546  -0.00152256  1
  O  O266  1  0.75432647  0.86919758  0.50434459  1
  O  O267  1  0.12665888  0.48751142  0.24466134  1
  O  O268  1  0.14219423  0.50697526  0.75865813  1
  O  O269  1  0.13220974  0.98850993  0.24579995  1
  O  O270  1  0.13264240  0.99145721  0.75099301  1
  O  O271  1  0.63467602  0.49652969  0.24341302  1
  O  O272  1  0.63228669  0.49420620  0.74454827  1
  O  O273  1  0.62517045  0.99755121  0.24497393  1
  O  O274  1  0.63341226  0.99325899  0.74586802  1
  O  O275  1  0.36800885  0.00623321  0.24684350  1
  O  O276  1  0.36841013  0.00129260  0.75992803  1
  O  O277  1  0.37497481  0.51363029  0.24858389  1
  O  O278  1  0.36997806  0.51156538  0.75690242  1
  O  O279  1  0.86847696  0.00417924  0.26351200  1
  O  O280  1  0.86891168  0.00280870  0.75811165  1
  O  O281  1  0.86414770  0.49562945  0.25555702  1
  O  O282  1  0.86603785  0.50958995  0.75253296  1
  O  O283  1  0.11711395  0.37002590  0.36343154  1
  O  O284  1  0.11717827  0.35961070  0.87890530  1
  O  O285  1  0.11845351  0.87546918  0.36834869  1
  O  O286  1  0.11695830  0.87013091  0.86917351  1
  O  O287  1  0.63647385  0.36767954  0.36208461  1
  O  O288  1  0.61967862  0.37474766  0.86692034  1
  O  O289  1  0.61285108  0.87591148  0.36538526  1
  O  O290  1  0.61679255  0.88393470  0.86581722  1
  O  O291  1  0.38076812  0.12956997  0.12862865  1
  O  O292  1  0.37310458  0.12462427  0.62115629  1
  O  O293  1  0.37682277  0.63494840  0.13403668  1
  O  O294  1  0.37907411  0.62165787  0.63891655  1
  O  O295  1  0.87983854  0.12776016  0.13100631  1
  O  O296  1  0.87759704  0.12853433  0.62955979  1
  O  O297  1  0.88062876  0.63838981  0.12142505  1
  O  O298  1  0.87764575  0.63211728  0.63475249  1
  O  O299  1  0.26513694  0.25047543  0.12314038  1
  O  O300  1  0.24495163  0.24552499  0.61612693  1
  O  O301  1  0.25918538  0.75789982  0.12232311  1
  O  O302  1  0.25026109  0.74190796  0.61060372  1
  O  O303  1  0.75520574  0.25476016  0.12103876  1
  O  O304  1  0.76517264  0.25733357  0.60637239  1
  O  O305  1  0.76204382  0.74927942  0.11405379  1
  O  O306  1  0.75486806  0.75472936  0.62022196  1
  O  O307  1  0.24898683  0.23489425  0.37381394  1
  O  O308  1  0.23309143  0.24059136  0.87521836  1
  O  O309  1  0.25045577  0.74000181  0.38091137  1
  O  O310  1  0.23836525  0.75836214  0.87819146  1
  O  O311  1  0.75122672  0.24006416  0.38106174  1
  O  O312  1  0.73895991  0.25290964  0.88008906  1
  O  O313  1  0.75554368  0.73656731  0.38202144  1
  O  O314  1  0.75698902  0.74865520  0.89066609  1
  O  O315  1  0.00262539  0.12550523  0.01207218  1
  O  O316  1  0.01188015  0.12434521  0.50355273  1
  O  O317  1  0.00785303  0.61638456  0.00009563  1
  O  O318  1  -0.00161353  0.63297934  0.51224608  1
  O  O319  1  0.50577907  0.11454932  0.01323117  1
  O  O320  1  0.50817897  0.11249138  0.48988072  1
  O  O321  1  0.51089267  0.62472402  0.00449496  1
  O  O322  1  0.49473665  0.61091047  0.50177203  1
  O  O323  1  0.48920797  0.38423727  0.49675654  1
  O  O324  1  0.49260008  0.38319364  0.98633747  1
  O  O325  1  0.49173589  0.87616021  0.49185264  1
  O  O326  1  0.50980568  0.88174363  0.99289000  1
  O  O327  1  0.99287169  0.36907816  0.48160659  1
  O  O328  1  0.99407946  0.38188023  0.99316388  1
  O  O329  1  0.99471916  0.86907245  0.48857493  1
  O  O330  1  0.99396826  0.87155864  0.98930582  1
  O  O331  1  0.50103872  0.50218652  0.38586840  1
  O  O332  1  0.48872983  0.49580372  0.87400795  1
  O  O333  1  0.50093094  0.98984783  0.38653962  1
  O  O334  1  0.49364256  0.99021784  0.88558736  1
  O  O335  1  0.99438312  0.49409326  0.37249273  1
  O  O336  1  0.99496385  0.49411211  0.88410810  1
  O  O337  1  0.98985640  0.99163482  0.37114320  1
  O  O338  1  0.98779270  0.99206333  0.86998402  1
  O  O339  1  -0.00087635  0.01063189  0.13507223  1
  O  O340  1  -0.00085747  0.00914433  0.62468575  1
  O  O341  1  0.00089081  0.50065625  0.11136644  1
  O  O342  1  -0.00867376  0.52071059  0.61675303  1
  O  O343  1  0.50669379  0.00452429  0.12152441  1
  O  O344  1  0.50999366  -0.00761762  0.61146181  1
  O  O345  1  0.51490334  0.50297725  0.12223778  1
  O  O346  1  0.50786391  0.50172005  0.61462101  1
  O  O347  1  0.23929400  0.36997228  0.25018566  1
  O  O348  1  0.25142691  0.39150539  0.74925169  1
  O  O349  1  0.24388983  0.87995207  0.24558613  1
  O  O350  1  0.24100378  0.88386990  0.75529799  1
  O  O351  1  0.74300990  0.38448425  0.24288494  1
  O  O352  1  0.74516756  0.38766970  0.74761247  1
  O  O353  1  0.73304541  0.87741514  0.26188735  1
  O  O354  1  0.74463980  0.88192821  0.74848261  1
  O  O355  1  0.25447826  0.11728551  0.25106831  1
  O  O356  1  0.24926506  0.11457360  0.76428526  1
  O  O357  1  0.25855801  0.62666309  0.25923316  1
  O  O358  1  0.26398234  0.62166655  0.75263903  1
  O  O359  1  0.75579764  0.12450706  0.26054679  1
  O  O360  1  0.76237796  0.10912248  0.75293987  1
  O  O361  1  0.74896641  0.61845351  0.26266146  1
  O  O362  1  0.75582723  0.61826379  0.75096997  1
  O  O363  1  0.36806935  0.11867079  0.35772560  1
  O  O364  1  0.36399097  0.10525733  0.89057860  1
  O  O365  1  0.37009723  0.62603335  0.36163914  1
  O  O366  1  0.38083906  0.61547561  0.86842975  1
  O  O367  1  0.86868562  0.11885210  0.37387197  1
  O  O368  1  0.87549224  0.11896356  0.86831632  1
  O  O369  1  0.87213973  0.61528606  0.37688132  1
  O  O370  1  0.87801940  0.62126292  0.86235055  1
  O  O371  1  0.12582538  0.37183847  0.13007154  1
  O  O372  1  0.08790295  0.37654326  0.63344351  1
  O  O373  1  0.13217155  0.87515801  0.13195881  1
  O  O374  1  0.11443666  0.87442451  0.64130125  1
  O  O375  1  0.63066316  0.38305697  0.12769044  1
  O  O376  1  0.63069579  0.38662772  0.63273111  1
  O  O377  1  0.61799815  0.88345405  0.14431489  1
  O  O378  1  0.63060559  0.88490492  0.63540742  1
  O  O379  1  0.11708822  0.25452232  0.24808829  1
  O  O380  1  0.12121653  0.23982583  0.76504802  1
  O  O381  1  0.11912236  0.76125703  0.25129078  1
  O  O382  1  0.12191985  0.75577818  0.75816267  1
  O  O383  1  0.62576654  0.26064071  0.25456634  1
  O  O384  1  0.62905216  0.26658514  0.75617856  1
  O  O385  1  0.62855435  0.76012455  0.24481381  1
  O  O386  1  0.61876958  0.76123787  0.75038994  1
  O  O387  1  0.37733940  0.24202431  0.24022192  1
  O  O388  1  0.38010598  0.23473477  0.79287313  1
  O  O389  1  0.37194864  0.73764284  0.23864144  1
  O  O390  1  0.38083237  0.73737704  0.75582558  1
  O  O391  1  0.87964639  0.24459968  0.24485519  1
  O  O392  1  0.86608905  0.23944014  0.73821204  1
  O  O393  1  0.88418480  0.76015627  0.23916344  1
  O  O394  1  0.87881633  0.74449041  0.74590895  1
  O  O395  1  0.38597874  0.49268979  0.49669160  1
  O  O396  1  0.37606936  0.49831222  0.98793529  1
  O  O397  1  0.38087405  0.98505429  0.49575507  1
  O  O398  1  0.38795632  0.99641181  1.00055187  1
  O  O399  1  0.88139354  0.49300270  0.48938934  1
  O  O400  1  0.88097920  0.49723229  0.99430235  1
  O  O401  1  0.86754730  0.99594730  0.48981772  1
  O  O402  1  0.87029748  0.99312409  0.99243451  1
  O  O403  1  0.12217458  0.01443736  -0.00059429  1
  O  O404  1  0.13754452  0.00945464  0.50111142  1
  O  O405  1  0.11838703  0.50661781  -0.00402907  1
  O  O406  1  0.12856226  0.49706740  0.49767610  1
  O  O407  1  0.61809160  0.00466702  0.00916431  1
  O  O408  1  0.61837257  0.00403954  0.50851874  1
  O  O409  1  0.62842811  0.50902407  0.00750698  1
  O  O410  1  0.61152477  0.49062260  0.50583012  1
  O  O411  1  0.37861234  0.36694508  0.11226371  1
  O  O412  1  0.37502929  0.37909977  0.60610047  1
  O  O413  1  0.36810077  0.86128002  0.13349481  1
  O  O414  1  0.38066900  0.87649437  0.61369448  1
  O  O415  1  0.86916854  0.36975414  0.11988466  1
  O  O416  1  0.88486459  0.36735673  0.61276122  1
  O  O417  1  0.88197175  0.87196967  0.11462745  1
  O  O418  1  0.87049949  0.87066853  0.62201259  1
  O  O419  1  0.13281302  0.12294619  0.37895128  1
  O  O420  1  0.12686536  0.13022776  0.87957451  1
  O  O421  1  0.14005610  0.62865147  0.37019952  1
  O  O422  1  0.11799585  0.63817739  0.88335361  1
  O  O423  1  0.63055584  0.13479378  0.38212627  1
  O  O424  1  0.62833321  0.13460162  0.88159747  1
  O  O425  1  0.63810572  0.62250954  0.37650209  1
  O  O426  1  0.62613184  0.61998118  0.88690864  1
