# generated using pymatgen
data_V85Zn86O256
_symmetry_space_group_name_H-M   'P 1'
_cell_length_a   16.95058696
_cell_length_b   16.94125959
_cell_length_c   16.95253272
_cell_angle_alpha   90.04120259
_cell_angle_beta   89.94160159
_cell_angle_gamma   90.04196845
_symmetry_Int_Tables_number   1
_chemical_formula_structural   V85Zn86O256
_chemical_formula_sum   'V85 Zn86 O256'
_cell_volume   4868.15699824
_cell_formula_units_Z   1
loop_
 _symmetry_equiv_pos_site_id
 _symmetry_equiv_pos_as_xyz
  1  'x, y, z'
loop_
 _atom_site_type_symbol
 _atom_site_label
 _atom_site_symmetry_multiplicity
 _atom_site_fract_x
 _atom_site_fract_y
 _atom_site_fract_z
 _atom_site_occupancy
  V  V0  1  0.37579260  0.26279606  0.61485681  1
  V  V1  1  0.75380705  0.12253453  0.87233271  1
  V  V2  1  0.87899753  0.75301653  0.62133960  1
  V  V3  1  0.24939666  0.87877941  0.62819606  1
  V  V4  1  0.50264344  0.25172694  0.74759710  1
  V  V5  1  0.87686122  0.62457284  0.75191952  1
  V  V6  1  0.13680729  0.26932202  0.87912151  1
  V  V7  1  0.62806945  0.87720311  0.24975579  1
  V  V8  1  0.49308959  0.37276595  0.37618490  1
  V  V9  1  0.62749383  0.37651243  0.24819075  1
  V  V10  1  0.49861237  0.24699804  0.24915197  1
  V  V11  1  0.74764212  0.49573187  0.23632438  1
  V  V12  1  0.50136989  0.75240548  0.74915080  1
  V  V13  1  -0.00178509  0.48990538  -0.00645139  1
  V  V14  1  0.87335131  0.25084571  0.62345869  1
  V  V15  1  0.87645646  0.75418926  0.12540803  1
  V  V16  1  0.75105466  0.88081675  0.12788375  1
  V  V17  1  0.00393211  0.87879735  0.88235740  1
  V  V18  1  0.24698940  0.75126180  0.50104494  1
  V  V19  1  -0.00056289  0.62688082  0.12294333  1
  V  V20  1  0.49962167  0.87537187  0.37550163  1
  V  V21  1  0.25043227  0.62423054  0.87625648  1
  V  V22  1  0.74439044  0.27163912  0.50382059  1
  V  V23  1  0.38114124  -0.00058079  0.88670717  1
  V  V24  1  0.49570975  0.11445916  0.11954262  1
  V  V25  1  0.49637193  0.63203529  0.11393420  1
  V  V26  1  0.88408604  0.00706857  0.87325929  1
  V  V27  1  0.62433813  0.74950265  0.37267982  1
  V  V28  1  0.12270867  -0.00277345  0.11420780  1
  V  V29  1  0.87926398  0.88872735  0.00215542  1
  V  V30  1  -0.00175415  0.12062505  0.11757063  1
  V  V31  1  0.75458684  0.87352253  0.62212719  1
  V  V32  1  0.57012269  0.44812471  0.06325596  1
  V  V33  1  0.62909443  0.00363530  0.61733198  1
  V  V34  1  -0.00029649  0.24893186  0.25300811  1
  V  V35  1  0.62687796  0.74943228  0.87627642  1
  V  V36  1  0.62418943  0.62498711  0.49781017  1
  V  V37  1  0.26354395  0.75022344  0.00611702  1
  V  V38  1  -0.00291371  0.24727080  0.76434650  1
  V  V39  1  0.87264510  0.48849196  0.37925473  1
  V  V40  1  0.25188796  0.00307653  0.75376272  1
  V  V41  1  -0.00315023  -0.01189637  0.50581843  1
  V  V42  1  0.62808238  0.24759641  0.87010198  1
  V  V43  1  0.37523260  0.12765675  0.74853824  1
  V  V44  1  0.37361587  0.00107056  0.37756427  1
  V  V45  1  0.75199203  0.49771644  0.74576480  1
  V  V46  1  0.61770393  0.11123461  -0.00914517  1
  V  V47  1  0.00872189  0.62024290  0.62554155  1
  V  V48  1  0.62902853  0.49454593  0.62075366  1
  V  V49  1  0.87955261  -0.01102424  0.37730904  1
  V  V50  1  -0.00089520  0.75291631  0.25953693  1
  V  V51  1  0.38480823  0.49539790  0.88210079  1
  V  V52  1  0.75295028  0.75108748  0.00084419  1
  V  V53  1  0.75561582  0.75226797  0.49738207  1
  V  V54  1  0.49871545  0.87906361  0.88803643  1
  V  V55  1  0.24064823  0.48968464  0.73778740  1
  V  V56  1  0.87308726  0.62356885  0.25091265  1
  V  V57  1  0.37490348  0.87873024  0.50171416  1
  V  V58  1  0.24729432  0.49786640  0.25043874  1
  V  V59  1  0.12127501  0.49712234  0.12818596  1
  V  V60  1  0.12632239  0.87842271  0.75402382  1
  V  V61  1  0.86833252  0.12173204  0.25511307  1
  V  V62  1  0.12005913  0.12525028  0.50822694  1
  V  V63  1  0.74738281  0.11954521  0.38917043  1
  V  V64  1  0.37313727  0.12400299  0.25018867  1
  V  V65  1  0.50564701  0.12604291  0.61760253  1
  V  V66  1  0.20460670  0.30378005  0.55152369  1
  V  V67  1  0.49159911  0.49537646  0.49845355  1
  V  V68  1  0.37597017  0.75267280  0.62579441  1
  V  V69  1  0.26216572  0.87140254  0.12417603  1
  V  V70  1  0.75847562  -0.00115408  0.74822273  1
  V  V71  1  0.62588816  -0.00270983  0.12294834  1
  V  V72  1  0.63186181  0.36996168  0.74425010  1
  V  V73  1  0.36992826  0.25352954  0.11048326  1
  V  V74  1  0.24626068  -0.00098920  0.25100201  1
  V  V75  1  0.24819684  0.13249799  0.38065846  1
  V  V76  1  0.00067686  0.49206261  0.50462106  1
  V  V77  1  0.74953043  0.62214269  0.37251364  1
  V  V78  1  0.62621029  0.87407471  0.74863942  1
  V  V79  1  0.50176840  0.62605403  0.62245767  1
  V  V80  1  0.24891917  0.62779061  0.37304887  1
  V  V81  1  0.37451817  0.62197399  0.74838398  1
  V  V82  1  0.00311223  0.75071482  0.75289892  1
  V  V83  1  0.48884955  0.74840460  0.24834050  1
  V  V84  1  0.12025837  0.87707486  0.25620040  1
  Zn  Zn85  1  0.86655121  0.25949676  0.12779739  1
  Zn  Zn86  1  0.24597057  0.36575084  0.11416454  1
  Zn  Zn87  1  0.12628346  0.62146795  0.50251649  1
  Zn  Zn88  1  0.74648226  0.25375264  0.01083354  1
  Zn  Zn89  1  0.12855640  0.75231348  0.88113360  1
  Zn  Zn90  1  0.25099921  0.13492475  0.88360898  1
  Zn  Zn91  1  0.11966386  0.75398383  0.37994903  1
  Zn  Zn92  1  0.37138754  0.62352765  0.24017309  1
  Zn  Zn93  1  0.62383311  0.24132870  0.37690477  1
  Zn  Zn94  1  -0.00192337  0.36703916  0.38320409  1
  Zn  Zn95  1  0.85770473  0.37205165  0.00285816  1
  Zn  Zn96  1  0.62906984  0.61980219  0.00576387  1
  Zn  Zn97  1  0.37102503  0.49734266  0.37532822  1
  Zn  Zn98  1  0.88212540  0.49295507  0.87027852  1
  Zn  Zn99  1  0.12290573  0.37146663  0.25288761  1
  Zn  Zn100  1  0.11542356  0.00978402  0.63451008  1
  Zn  Zn101  1  0.12534292  0.25085650  0.37679140  1
  Zn  Zn102  1  0.75259184  0.62603199  0.87555057  1
  Zn  Zn103  1  0.50471377  0.37950760  0.88251081  1
  Zn  Zn104  1  0.12694344  0.62845386  0.00271234  1
  Zn  Zn105  1  0.50561007  0.00329366  0.49727514  1
  Zn  Zn106  1  0.12760629  0.13470825  -0.00183414  1
  Zn  Zn107  1  0.18574543  0.18500922  0.18638720  1
  Zn  Zn108  1  0.18298656  0.19205386  0.70063471  1
  Zn  Zn109  1  0.18540030  0.68836472  0.18741340  1
  Zn  Zn110  1  0.18868353  0.68829522  0.69152010  1
  Zn  Zn111  1  0.68517415  0.18069187  0.19460613  1
  Zn  Zn112  1  0.70874310  0.17911490  0.67556067  1
  Zn  Zn113  1  0.68212538  0.68556891  0.18477837  1
  Zn  Zn114  1  0.68991771  0.68494196  0.68572726  1
  Zn  Zn115  1  0.31159653  0.31421349  0.30633696  1
  Zn  Zn116  1  0.31568332  0.31772615  0.81179492  1
  Zn  Zn117  1  0.30895084  0.81441032  0.31367970  1
  Zn  Zn118  1  0.31510602  0.81290244  0.81786891  1
  Zn  Zn119  1  0.81005221  0.30668477  0.31261178  1
  Zn  Zn120  1  0.81932063  0.31191458  0.81252725  1
  Zn  Zn121  1  0.81252308  0.81410910  0.31188038  1
  Zn  Zn122  1  0.81681275  0.81438971  0.81299182  1
  Zn  Zn123  1  0.17894218  0.43854867  0.43403577  1
  Zn  Zn124  1  0.19488520  0.44172869  0.94067523  1
  Zn  Zn125  1  0.18448345  0.94216152  0.43897393  1
  Zn  Zn126  1  0.19628166  0.93834203  0.93962364  1
  Zn  Zn127  1  0.67891588  0.43874971  0.42702348  1
  Zn  Zn128  1  0.70341036  0.42919440  0.92581299  1
  Zn  Zn129  1  0.69369300  0.93650816  0.43616000  1
  Zn  Zn130  1  0.69083120  0.93601872  0.93700278  1
  Zn  Zn131  1  0.30857605  0.06239278  0.06259403  1
  Zn  Zn132  1  0.31161033  0.06698229  0.56529631  1
  Zn  Zn133  1  0.30787744  0.53988318  0.05564699  1
  Zn  Zn134  1  0.31190608  0.56349945  0.56188732  1
  Zn  Zn135  1  0.79633288  0.09189731  0.07723995  1
  Zn  Zn136  1  0.82135752  0.06943683  0.56463252  1
  Zn  Zn137  1  0.81550925  0.56383401  0.06081263  1
  Zn  Zn138  1  0.81577981  0.56332580  0.56310103  1
  Zn  Zn139  1  0.43265964  0.43608889  0.19018048  1
  Zn  Zn140  1  0.44187289  0.43852539  0.69112634  1
  Zn  Zn141  1  0.43851625  0.93779286  0.19020778  1
  Zn  Zn142  1  0.43998612  0.94059999  0.69095642  1
  Zn  Zn143  1  0.93348997  0.43406521  0.18592072  1
  Zn  Zn144  1  0.93203691  0.42817998  0.68733963  1
  Zn  Zn145  1  0.93949371  0.94179869  0.19200071  1
  Zn  Zn146  1  0.94023604  0.93768979  0.68767922  1
  Zn  Zn147  1  0.05920757  0.06461782  0.31623107  1
  Zn  Zn148  1  0.06413441  0.07483387  0.81488785  1
  Zn  Zn149  1  0.06112035  0.56299782  0.31692988  1
  Zn  Zn150  1  0.06787917  0.56042955  0.81277503  1
  Zn  Zn151  1  0.56418840  0.05958875  0.31062873  1
  Zn  Zn152  1  0.56254902  0.05947042  0.80284597  1
  Zn  Zn153  1  0.56040974  0.56125250  0.30673962  1
  Zn  Zn154  1  0.56682780  0.56495401  0.81049950  1
  Zn  Zn155  1  0.43746513  0.18740978  0.43820978  1
  Zn  Zn156  1  0.44032214  0.18584399  0.93373393  1
  Zn  Zn157  1  0.43321761  0.68644066  0.43550334  1
  Zn  Zn158  1  0.43744025  0.68746506  0.93488592  1
  Zn  Zn159  1  0.93399927  0.18861906  0.44558523  1
  Zn  Zn160  1  0.93706012  0.19379375  0.94033939  1
  Zn  Zn161  1  0.93635738  0.68039177  0.43906997  1
  Zn  Zn162  1  0.93793046  0.68966144  0.93743896  1
  Zn  Zn163  1  0.05683589  0.30981581  0.06470378  1
  Zn  Zn164  1  0.03436067  0.32676796  0.60088721  1
  Zn  Zn165  1  0.06919435  0.81112651  0.06471626  1
  Zn  Zn166  1  0.06545940  0.81500376  0.56796138  1
  Zn  Zn167  1  0.56642905  0.28818637  0.06212104  1
  Zn  Zn168  1  0.56618229  0.31079610  0.55832332  1
  Zn  Zn169  1  0.56101543  0.80775079  0.06352355  1
  Zn  Zn170  1  0.56536793  0.81535300  0.56027391  1
  O  O171  1  0.11697950  0.11425647  0.12387413  1
  O  O172  1  0.13607907  0.12552666  0.61208731  1
  O  O173  1  0.11300188  0.61862673  0.12787434  1
  O  O174  1  0.11146076  0.63149319  0.62669916  1
  O  O175  1  0.61477011  0.11381881  0.11703122  1
  O  O176  1  0.61899720  0.11440447  0.63197436  1
  O  O177  1  0.60696555  0.62485520  0.12417897  1
  O  O178  1  0.61986457  0.61693369  0.61901028  1
  O  O179  1  0.38888801  0.37574897  0.36684212  1
  O  O180  1  0.38375890  0.38973926  0.87326097  1
  O  O181  1  0.37862371  0.88227115  0.38059121  1
  O  O182  1  0.38822126  0.88595842  0.86765855  1
  O  O183  1  0.87585092  0.38600316  0.36943309  1
  O  O184  1  0.86024508  0.38345048  0.88607264  1
  O  O185  1  0.86857816  0.88983672  0.37679112  1
  O  O186  1  0.88455628  0.88276770  0.88163180  1
  O  O187  1  0.25546732  0.00624509  0.36936418  1
  O  O188  1  0.26241322  -0.00371776  0.86385282  1
  O  O189  1  0.24648335  0.50837049  0.36570321  1
  O  O190  1  0.26633145  0.50982090  0.86430881  1
  O  O191  1  0.76465631  0.00882738  0.38422128  1
  O  O192  1  0.76089214  -0.00080352  0.86604694  1
  O  O193  1  0.75540577  0.50617857  0.36836602  1
  O  O194  1  0.74653431  0.50882493  0.85566769  1
  O  O195  1  0.23387825  0.52103264  0.14508320  1
  O  O196  1  0.25272996  0.50885541  0.63878342  1
  O  O197  1  0.24253707  0.99121664  0.13308933  1
  O  O198  1  0.25226486  0.99549137  0.63985717  1
  O  O199  1  0.75151079  0.50889482  0.13801168  1
  O  O200  1  0.74166974  0.50772346  0.63317217  1
  O  O201  1  0.73376518  0.99748708  0.12074397  1
  O  O202  1  0.74879263  0.99447870  0.63005320  1
  O  O203  1  -0.00262529  0.35789979  0.25005101  1
  O  O204  1  0.00863183  0.34657803  0.71526377  1
  O  O205  1  0.00716203  0.86460110  0.24680593  1
  O  O206  1  0.00691791  0.87241357  0.76049961  1
  O  O207  1  0.50641598  0.36565990  0.25241147  1
  O  O208  1  0.51469575  0.36803543  0.74936420  1
  O  O209  1  0.50543672  0.86664385  0.25548158  1
  O  O210  1  0.50889306  0.86834145  0.75274166  1
  O  O211  1  0.49534618  0.12898260  0.24339661  1
  O  O212  1  0.49478971  0.13155493  0.73898522  1
  O  O213  1  0.49707261  0.63354818  0.24210548  1
  O  O214  1  0.49541544  0.63273327  0.74211985  1
  O  O215  1  0.99166291  0.13228772  0.24906463  1
  O  O216  1  1.00869718  0.14817328  0.74371864  1
  O  O217  1  0.99333139  0.63093231  0.24175288  1
  O  O218  1  0.99557578  0.62796038  0.74538044  1
  O  O219  1  0.38041764  0.24499803  0.01202303  1
  O  O220  1  0.37744811  0.24648246  0.51604849  1
  O  O221  1  0.36269696  0.74858727  -0.00165511  1
  O  O222  1  0.36482240  0.75699600  0.50489680  1
  O  O223  1  0.86607629  0.24718840  0.00728692  1
  O  O224  1  0.85269886  0.24357152  0.50804730  1
  O  O225  1  0.86900668  0.76069491  0.00446082  1
  O  O226  1  0.86759713  0.74292547  0.50895979  1
  O  O227  1  0.13572859  0.23894164  0.49925134  1
  O  O228  1  0.11694002  0.25451183  0.98460628  1
  O  O229  1  0.13684395  0.75227137  0.50143594  1
  O  O230  1  0.13672119  0.74570535  0.99909922  1
  O  O231  1  0.63720134  0.25186285  0.49223845  1
  O  O232  1  0.62768390  0.22964009  0.98691008  1
  O  O233  1  0.63156485  0.74430926  0.49227408  1
  O  O234  1  0.63725704  0.75320096  0.99245482  1
  O  O235  1  0.49216129  0.23337927  0.13076579  1
  O  O236  1  0.49489506  0.24403130  0.62765081  1
  O  O237  1  0.49809244  0.74086404  0.13295659  1
  O  O238  1  0.49657547  0.74700155  0.62862369  1
  O  O239  1  0.99737250  0.23647606  0.13491545  1
  O  O240  1  0.97179497  0.23143021  0.60235193  1
  O  O241  1  0.99451042  0.74520166  0.13314915  1
  O  O242  1  0.99471211  0.74511650  0.63113830  1
  O  O243  1  -0.00248262  0.24792823  0.36936371  1
  O  O244  1  0.00201153  0.25555971  0.86730248  1
  O  O245  1  -0.00142184  0.74310183  0.36337489  1
  O  O246  1  0.00214572  0.76033820  0.86966436  1
  O  O247  1  0.50132427  0.25234039  0.36647322  1
  O  O248  1  0.51280616  0.25014223  0.86700668  1
  O  O249  1  0.50482321  0.75439956  0.36884496  1
  O  O250  1  0.50825391  0.75686430  0.86849310  1
  O  O251  1  0.23835424  0.11405891  0.49027065  1
  O  O252  1  0.24110825  0.11567756  0.99504495  1
  O  O253  1  0.24782086  0.63481665  0.49558810  1
  O  O254  1  0.25239247  0.63205502  0.99348835  1
  O  O255  1  0.74707096  0.12439851  0.48977404  1
  O  O256  1  0.73711005  0.11417111  0.98001450  1
  O  O257  1  0.74417153  0.63377501  0.49476511  1
  O  O258  1  0.75062062  0.63857189  0.99827411  1
  O  O259  1  0.26426169  0.43180729  0.02533950  1
  O  O260  1  0.25223017  0.36660486  0.49023981  1
  O  O261  1  0.24871472  0.86052829  0.00928022  1
  O  O262  1  0.25391214  0.87153215  0.50694494  1
  O  O263  1  0.73765682  0.36681559  0.00836096  1
  O  O264  1  0.74795436  0.36950240  0.48623981  1
  O  O265  1  0.75920975  0.86867167  0.00595043  1
  O  O266  1  0.74701555  0.85933554  0.50511339  1
  O  O267  1  0.12598139  0.49811534  0.24535799  1
  O  O268  1  0.14126824  0.50116866  0.75212337  1
  O  O269  1  0.12886826  0.99440631  0.24722205  1
  O  O270  1  0.13444541  0.99817797  0.75271919  1
  O  O271  1  0.63387949  0.48828565  0.25402611  1
  O  O272  1  0.63134834  0.49491474  0.73944472  1
  O  O273  1  0.61929963  0.98469581  0.24024938  1
  O  O274  1  0.63554102  0.99039689  0.74018930  1
  O  O275  1  0.36887535  0.00516671  0.25780524  1
  O  O276  1  0.37026973  0.01003613  0.75323925  1
  O  O277  1  0.36327931  0.50229470  0.25304379  1
  O  O278  1  0.37457906  0.51372063  0.75031919  1
  O  O279  1  0.88243984  0.00546069  0.27005813  1
  O  O280  1  0.86613183  -0.00513105  0.75698466  1
  O  O281  1  0.86807021  0.50546167  0.25806071  1
  O  O282  1  0.86939026  0.50590116  0.74726743  1
  O  O283  1  0.11598858  0.36856467  0.37111001  1
  O  O284  1  0.13224187  0.36973604  0.87980825  1
  O  O285  1  0.13140809  0.87386508  0.36113555  1
  O  O286  1  0.11896528  0.87816758  0.87151639  1
  O  O287  1  0.61175583  0.36949595  0.36169697  1
  O  O288  1  0.62464246  0.36300582  0.86318457  1
  O  O289  1  0.62178356  0.87146279  0.36752478  1
  O  O290  1  0.62163637  0.86666892  0.86924945  1
  O  O291  1  0.38014623  0.12738634  0.13074856  1
  O  O292  1  0.38327387  0.13057949  0.63428637  1
  O  O293  1  0.39363414  0.61144699  0.12237243  1
  O  O294  1  0.38188095  0.63367158  0.62942543  1
  O  O295  1  0.88864274  0.10454105  0.14287581  1
  O  O296  1  0.82913596  0.15190546  0.64025392  1
  O  O297  1  0.88024055  0.63344126  0.13230791  1
  O  O298  1  0.88340048  0.63510409  0.63465533  1
  O  O299  1  0.26458804  0.24883080  0.12748918  1
  O  O300  1  0.26200765  0.24955268  0.62543243  1
  O  O301  1  0.24920984  0.75492052  0.11518418  1
  O  O302  1  0.25564768  0.75675278  0.62009316  1
  O  O303  1  0.76063743  0.20234482  0.11610743  1
  O  O304  1  0.73793153  0.26632589  0.60739871  1
  O  O305  1  0.75555137  0.75726191  0.11847885  1
  O  O306  1  0.75848700  0.75147173  0.61697884  1
  O  O307  1  0.25240625  0.23511282  0.36681064  1
  O  O308  1  0.24221303  0.25498387  0.87291275  1
  O  O309  1  0.24901474  0.74569286  0.38534493  1
  O  O310  1  0.25241139  0.74396888  0.88635487  1
  O  O311  1  0.74925404  0.23657380  0.38364745  1
  O  O312  1  0.73909104  0.23731393  0.86738635  1
  O  O313  1  0.74634557  0.74415750  0.38047727  1
  O  O314  1  0.74494411  0.75281710  0.88245208  1
  O  O315  1  0.00043043  0.12588971  0.01519274  1
  O  O316  1  0.01741252  0.11789506  0.49425618  1
  O  O317  1  -0.00139020  0.62719738  0.01416311  1
  O  O318  1  0.00218929  0.61900944  0.51049241  1
  O  O319  1  0.50658777  0.12393011  0.00715367  1
  O  O320  1  0.49906684  0.12281618  0.51323840  1
  O  O321  1  0.50784739  0.63714591  0.00990832  1
  O  O322  1  0.50551830  0.62032488  0.50271052  1
  O  O323  1  0.50667085  0.38407567  0.48908664  1
  O  O324  1  0.51820403  0.38114560  1.00450991  1
  O  O325  1  0.49323335  0.87586167  0.49255834  1
  O  O326  1  0.50469060  0.87091300  0.98695255  1
  O  O327  1  0.99541263  0.38920302  0.50568556  1
  O  O328  1  0.99805116  0.39053673  1.00376775  1
  O  O329  1  1.00619207  0.88904517  0.50178131  1
  O  O330  1  0.99434059  0.87044984  0.98995134  1
  O  O331  1  0.49967205  0.49231665  0.38162067  1
  O  O332  1  0.48973380  0.49931861  0.86124012  1
  O  O333  1  0.49376644  0.99398338  0.37626082  1
  O  O334  1  0.49380314  0.99060646  0.86640645  1
  O  O335  1  0.98934630  0.50077828  0.38680382  1
  O  O336  1  1.00171489  0.50751482  0.89018154  1
  O  O337  1  0.98797728  1.00229566  0.38837855  1
  O  O338  1  0.99128958  0.99499531  0.86797277  1
  O  O339  1  0.01308135  0.00666242  0.13270116  1
  O  O340  1  -0.00181948  0.00185141  0.61294919  1
  O  O341  1  0.00433912  0.50907335  0.12165967  1
  O  O342  1  -0.01145958  0.50782452  0.61380012  1
  O  O343  1  0.50706719  0.00738202  0.12874054  1
  O  O344  1  0.51146366  0.00768711  0.62593587  1
  O  O345  1  0.50383743  0.50321059  0.12051967  1
  O  O346  1  0.50732506  0.50600825  0.61689745  1
  O  O347  1  0.24640561  0.38493359  0.24101224  1
  O  O348  1  0.25890775  0.39150436  0.74656781  1
  O  O349  1  0.24302483  0.87868672  0.24342002  1
  O  O350  1  0.24565534  0.88114085  0.74887715  1
  O  O351  1  0.73653618  0.37898085  0.25370462  1
  O  O352  1  0.73893626  0.38295418  0.74962963  1
  O  O353  1  0.73959295  0.86939083  0.24109518  1
  O  O354  1  0.74686127  0.88020504  0.74418185  1
  O  O355  1  0.25467426  0.11680225  0.25597525  1
  O  O356  1  0.25915197  0.11902685  0.75420171  1
  O  O357  1  0.25178210  0.62534423  0.25914288  1
  O  O358  1  0.25976812  0.62528642  0.75748475  1
  O  O359  1  0.76411801  0.12320350  0.26359127  1
  O  O360  1  0.73919751  0.10879673  0.76443110  1
  O  O361  1  0.75229330  0.62008847  0.25475949  1
  O  O362  1  0.76139096  0.61998029  0.74862285  1
  O  O363  1  0.36946287  0.11835002  0.37215230  1
  O  O364  1  0.37798910  0.11940497  0.86208510  1
  O  O365  1  0.36028388  0.62231264  0.37416832  1
  O  O366  1  0.37067948  0.62268912  0.86448062  1
  O  O367  1  0.86637176  0.11729413  0.37388747  1
  O  O368  1  0.86837632  0.11513208  0.87865424  1
  O  O369  1  0.86691478  0.61878605  0.36731133  1
  O  O370  1  0.87563909  0.62472903  0.86158623  1
  O  O371  1  0.12387977  0.38739165  0.12681247  1
  O  O372  1  0.14335592  0.36092167  0.60391729  1
  O  O373  1  0.13152177  0.88128429  0.13648609  1
  O  O374  1  0.13174202  0.88147550  0.63778676  1
  O  O375  1  0.61413716  0.37864714  0.12875540  1
  O  O376  1  0.61946766  0.38868058  0.62845101  1
  O  O377  1  0.62713345  0.87935798  0.13009250  1
  O  O378  1  0.63452804  0.87872992  0.63039031  1
  O  O379  1  0.11458019  0.24747766  0.25240824  1
  O  O380  1  0.11780513  0.25435876  0.76886451  1
  O  O381  1  0.11500449  0.75816902  0.25110318  1
  O  O382  1  0.12044191  0.75988710  0.75552059  1
  O  O383  1  0.61359186  0.25386212  0.24776623  1
  O  O384  1  0.62542679  0.25457085  0.75026127  1
  O  O385  1  0.61623030  0.75921996  0.25442990  1
  O  O386  1  0.62375484  0.75451975  0.75574406  1
  O  O387  1  0.38600755  0.24233222  0.24430605  1
  O  O388  1  0.38186068  0.24424833  0.74322664  1
  O  O389  1  0.38614539  0.74916023  0.25570903  1
  O  O390  1  0.38019249  0.74140232  0.74595960  1
  O  O391  1  0.87970112  0.23810163  0.24845841  1
  O  O392  1  0.88859076  0.25095159  0.74410043  1
  O  O393  1  0.88042715  0.74656656  0.24469499  1
  O  O394  1  0.88219626  0.74338327  0.74445062  1
  O  O395  1  0.38845404  0.50493828  0.49806479  1
  O  O396  1  0.39165588  0.51530827  0.97802070  1
  O  O397  1  0.37692572  0.99499616  0.49585373  1
  O  O398  1  0.37601779  1.00388629  0.98564838  1
  O  O399  1  0.88408379  0.50950027  0.48924535  1
  O  O400  1  0.89077596  0.50705848  0.99797490  1
  O  O401  1  0.88865786  1.00612130  0.49577891  1
  O  O402  1  0.87052423  0.99000960  0.99074669  1
  O  O403  1  0.12555015  -0.00794406  0.01311027  1
  O  O404  1  0.11417052  0.00766887  0.50449072  1
  O  O405  1  0.11070762  0.50911853  0.00958354  1
  O  O406  1  0.10531858  0.50429206  0.49656230  1
  O  O407  1  0.62357683  0.00403253  0.00402996  1
  O  O408  1  0.62584106  -0.00903892  0.51375586  1
  O  O409  1  0.62930040  0.50132978  -0.00131084  1
  O  O410  1  0.61854503  0.50608000  0.50421547  1
  O  O411  1  0.38084060  0.35420662  0.12715602  1
  O  O412  1  0.38472374  0.36122923  0.62646259  1
  O  O413  1  0.36138957  0.87934007  0.13090873  1
  O  O414  1  0.37095657  0.87117567  0.62252176  1
  O  O415  1  0.87184829  0.37313196  0.11848866  1
  O  O416  1  0.86622303  0.35330888  0.62792698  1
  O  O417  1  0.87270719  0.87572124  0.11899032  1
  O  O418  1  0.87124537  0.86045162  0.63096661  1
  O  O419  1  0.13325531  0.12508432  0.38548991  1
  O  O420  1  0.12953562  0.13920796  0.87947563  1
  O  O421  1  0.13572092  0.63124980  0.37842497  1
  O  O422  1  0.14140863  0.62717807  0.87546225  1
  O  O423  1  0.64332015  0.12072238  0.36589589  1
  O  O424  1  0.62613744  0.12489771  0.87659383  1
  O  O425  1  0.62995906  0.62999674  0.37703263  1
  O  O426  1  0.62737676  0.63990791  0.87603941  1
