# generated using pymatgen
data_V85Zn86O256
_symmetry_space_group_name_H-M   'P 1'
_cell_length_a   16.93472058
_cell_length_b   16.94395349
_cell_length_c   16.93596348
_cell_angle_alpha   90.06204326
_cell_angle_beta   90.01460495
_cell_angle_gamma   89.96239313
_symmetry_Int_Tables_number   1
_chemical_formula_structural   V85Zn86O256
_chemical_formula_sum   'V85 Zn86 O256'
_cell_volume   4859.62024008
_cell_formula_units_Z   1
loop_
 _symmetry_equiv_pos_site_id
 _symmetry_equiv_pos_as_xyz
  1  'x, y, z'
loop_
 _atom_site_type_symbol
 _atom_site_label
 _atom_site_symmetry_multiplicity
 _atom_site_fract_x
 _atom_site_fract_y
 _atom_site_fract_z
 _atom_site_occupancy
  V  V0  1  -0.00148384  0.00380467  -0.00588920  1
  V  V1  1  0.62105603  -0.00073047  0.11870498  1
  V  V2  1  0.36396633  0.11802866  0.75668344  1
  V  V3  1  0.24860840  0.76316143  0.50472628  1
  V  V4  1  0.87362217  0.12853009  0.25445320  1
  V  V5  1  0.37744173  0.12827941  0.24916388  1
  V  V6  1  0.50212191  0.87230961  0.87157960  1
  V  V7  1  0.12452973  0.50149106  0.62675100  1
  V  V8  1  0.37154621  0.51534869  0.36724063  1
  V  V9  1  -0.00606711  0.87911953  0.86996826  1
  V  V10  1  0.62227182  0.87337969  0.73748408  1
  V  V11  1  0.63448694  0.50201002  0.63436000  1
  V  V12  1  0.87622970  0.87434983  0.49730126  1
  V  V13  1  0.49981737  0.88151205  0.37969224  1
  V  V14  1  0.24886365  0.50148559  0.75242174  1
  V  V15  1  0.61916084  0.87047067  0.24887590  1
  V  V16  1  0.50829103  0.10854621  0.61748861  1
  V  V17  1  0.01476161  0.25157872  0.25243616  1
  V  V18  1  0.74826396  0.00475428  0.24855462  1
  V  V19  1  0.49720136  0.50095858  0.50567374  1
  V  V20  1  0.37786593  0.87485949  0.00044194  1
  V  V21  1  0.50032734  0.36831407  0.87509036  1
  V  V22  1  -0.00069725  0.12000800  0.62294856  1
  V  V23  1  0.23712182  0.51050712  0.25043184  1
  V  V24  1  -0.00039473  0.62688019  0.62714639  1
  V  V25  1  0.50128723  0.50734549  -0.00074692  1
  V  V26  1  0.63250856  0.37071919  0.75669299  1
  V  V27  1  0.12932929  0.75020394  0.37550575  1
  V  V28  1  0.37477258  0.37631929  0.00552824  1
  V  V29  1  0.24978885  0.62243402  0.87860366  1
  V  V30  1  0.12377660  0.12933617  0.49584389  1
  V  V31  1  -0.00060629  0.24922538  0.74930365  1
  V  V32  1  0.12434268  0.62221508  0.00567443  1
  V  V33  1  -0.00275623  0.75074513  0.75340434  1
  V  V34  1  0.88557086  -0.00372580  0.37282187  1
  V  V35  1  0.23802273  0.37798474  0.13537948  1
  V  V36  1  0.13998046  -0.00178888  0.62781012  1
  V  V37  1  0.86323004  0.50547757  0.87265059  1
  V  V38  1  0.24803980  0.25161683  0.49766601  1
  V  V39  1  0.86024280  0.62282013  0.75163025  1
  V  V40  1  0.49863843  0.63101119  0.63299339  1
  V  V41  1  0.38042060  0.24813836  0.62894403  1
  V  V42  1  0.74683193  0.11506367  0.87387425  1
  V  V43  1  0.00221059  0.50031563  0.49990114  1
  V  V44  1  0.63499315  0.74877456  0.88044933  1
  V  V45  1  0.69532614  0.07817771  0.42818793  1
  V  V46  1  0.62075079  0.12862883  -0.00792888  1
  V  V47  1  0.25043289  0.87201922  0.12866755  1
  V  V48  1  0.37124202  0.75839871  0.63103093  1
  V  V49  1  0.75582263  0.49661372  0.24756110  1
  V  V50  1  -0.00043455  0.75512232  0.25375716  1
  V  V51  1  0.87143850  0.25020727  0.62158712  1
  V  V52  1  0.62400828  0.63114058  0.50348879  1
  V  V53  1  0.38439551  0.74225450  0.13762656  1
  V  V54  1  0.37704303  0.62868010  0.75408837  1
  V  V55  1  0.25080493  0.37611497  0.62576139  1
  V  V56  1  0.56991686  0.69548423  0.31600043  1
  V  V57  1  0.50954941  0.25270063  0.25496459  1
  V  V58  1  0.73686701  0.25669144  0.48923366  1
  V  V59  1  0.74683029  0.24860894  -0.00627352  1
  V  V60  1  0.12237237  0.87867547  0.25849005  1
  V  V61  1  0.75485684  0.63152530  0.37342069  1
  V  V62  1  0.74458257  -0.00338453  0.73203452  1
  V  V63  1  0.25173076  0.74557152  0.00338330  1
  V  V64  1  0.87193399  0.11945729  0.75528902  1
  V  V65  1  0.37377631  0.37673877  0.49762436  1
  V  V66  1  0.62687353  0.49765681  0.12287119  1
  V  V67  1  0.25221489  0.00075586  0.25105165  1
  V  V68  1  0.12521617  0.37521886  0.75061476  1
  V  V69  1  0.00457390  0.50100399  0.00168672  1
  V  V70  1  0.13432253  0.87664320  0.74680490  1
  V  V71  1  0.87538133  0.37302688  0.00017465  1
  V  V72  1  0.13311101  0.62715648  0.49873527  1
  V  V73  1  0.00154080  0.12551002  0.12163569  1
  V  V74  1  0.87538476  0.74909104  0.11585121  1
  V  V75  1  -0.00023454  0.37675642  0.87456180  1
  V  V76  1  0.87850203  0.49835158  0.37594454  1
  V  V77  1  0.13019413  0.24611996  0.88182225  1
  V  V78  1  0.86732957  0.75539172  0.62363680  1
  V  V79  1  0.87094897  0.87722575  -0.00507072  1
  V  V80  1  0.12442317  -0.00070818  0.12034985  1
  V  V81  1  0.00368491  0.62048898  0.12661337  1
  V  V82  1  0.01460232  0.37162479  0.37226680  1
  V  V83  1  0.75000558  0.87206990  0.12106569  1
  V  V84  1  0.24703883  0.13365558  0.37161804  1
  Zn  Zn85  1  0.74788737  0.75164849  0.49948903  1
  Zn  Zn86  1  0.35822936  -0.00211753  0.87262535  1
  Zn  Zn87  1  0.87868609  0.62708548  0.24971510  1
  Zn  Zn88  1  0.75327734  0.37794931  0.62935097  1
  Zn  Zn89  1  0.63500627  0.36730692  0.25804079  1
  Zn  Zn90  1  0.25179836  0.24889269  0.00393416  1
  Zn  Zn91  1  0.37677151  0.25410070  0.12754634  1
  Zn  Zn92  1  0.50050314  0.12947017  0.12215373  1
  Zn  Zn93  1  0.00488850  -0.00690815  0.49519753  1
  Zn  Zn94  1  0.12119461  0.74761898  0.87534031  1
  Zn  Zn95  1  0.50362621  0.62487545  0.13873822  1
  Zn  Zn96  1  0.87688588  0.37463279  0.50204627  1
  Zn  Zn97  1  0.50692325  0.36626549  0.38396708  1
  Zn  Zn98  1  0.49697873  0.00299261  -0.00604211  1
  Zn  Zn99  1  0.37823696  0.00357055  0.38110938  1
  Zn  Zn100  1  0.19943266  0.08723237  -0.06663050  1
  Zn  Zn101  1  0.87541680  0.24969478  0.12546165  1
  Zn  Zn102  1  0.38057592  0.88489852  0.51387724  1
  Zn  Zn103  1  0.64004141  0.62647850  -0.00299818  1
  Zn  Zn104  1  0.75010222  0.36998559  0.12456955  1
  Zn  Zn105  1  0.37677092  0.49932900  0.87535711  1
  Zn  Zn106  1  0.50445694  0.24217562  0.75377979  1
  Zn  Zn107  1  0.19005239  0.18539617  0.17533005  1
  Zn  Zn108  1  0.18817702  0.18890739  0.68631003  1
  Zn  Zn109  1  0.18873603  0.68666606  0.18863879  1
  Zn  Zn110  1  0.18801060  0.69067444  0.68829718  1
  Zn  Zn111  1  0.68761587  0.18621413  0.18088670  1
  Zn  Zn112  1  0.68604420  0.18882627  0.68349460  1
  Zn  Zn113  1  0.69717901  0.67812204  0.17423102  1
  Zn  Zn114  1  0.68432754  0.69362578  0.69053721  1
  Zn  Zn115  1  0.31465946  0.31504017  0.31126745  1
  Zn  Zn116  1  0.31476147  0.31117148  0.81392849  1
  Zn  Zn117  1  0.31167551  0.80939957  0.31614917  1
  Zn  Zn118  1  0.31267032  0.81039934  0.81719604  1
  Zn  Zn119  1  0.82120923  0.31361513  0.31404832  1
  Zn  Zn120  1  0.81099282  0.30874317  0.81527897  1
  Zn  Zn121  1  0.81357107  0.81590074  0.30839458  1
  Zn  Zn122  1  0.81105033  0.81961684  0.80556721  1
  Zn  Zn123  1  0.19104978  0.44187347  0.43443805  1
  Zn  Zn124  1  0.18873634  0.43474706  0.94075616  1
  Zn  Zn125  1  0.19143624  0.94483187  0.43814271  1
  Zn  Zn126  1  0.18247213  0.92197176  0.93739041  1
  Zn  Zn127  1  0.69053183  0.43989313  0.44257249  1
  Zn  Zn128  1  0.68669739  0.43666494  0.93738488  1
  Zn  Zn129  1  0.68648330  0.91436965  0.43570830  1
  Zn  Zn130  1  0.68735241  0.93846064  0.93205372  1
  Zn  Zn131  1  0.31492110  0.06169374  0.06586711  1
  Zn  Zn132  1  0.31988554  0.06630074  0.56104099  1
  Zn  Zn133  1  0.31587004  0.55949033  0.07083635  1
  Zn  Zn134  1  0.31134699  0.56685076  0.56478259  1
  Zn  Zn135  1  0.81411411  0.06136784  0.06232203  1
  Zn  Zn136  1  0.81617330  0.06327773  0.56145222  1
  Zn  Zn137  1  0.81763692  0.55888292  0.06347799  1
  Zn  Zn138  1  0.81357393  0.56631156  0.56170837  1
  Zn  Zn139  1  0.43996337  0.43624043  0.18888712  1
  Zn  Zn140  1  0.43991990  0.43876018  0.69058796  1
  Zn  Zn141  1  0.43777740  0.93626357  0.18895881  1
  Zn  Zn142  1  0.44024471  0.94385335  0.69240441  1
  Zn  Zn143  1  0.94187307  0.43494227  0.18788805  1
  Zn  Zn144  1  0.93572886  0.43915266  0.68898120  1
  Zn  Zn145  1  0.93750637  0.93752175  0.18519250  1
  Zn  Zn146  1  0.93424336  0.93857151  0.68463410  1
  Zn  Zn147  1  0.06399692  0.06724516  0.30987557  1
  Zn  Zn148  1  0.06194986  0.06061055  0.80812201  1
  Zn  Zn149  1  0.06375550  0.56721671  0.31532477  1
  Zn  Zn150  1  0.05754998  0.56562814  0.81671332  1
  Zn  Zn151  1  0.55969765  0.06037293  0.30757627  1
  Zn  Zn152  1  0.55659872  0.05870852  0.80749645  1
  Zn  Zn153  1  0.57591186  0.52137813  0.32797629  1
  Zn  Zn154  1  0.56439462  0.56168446  0.81537856  1
  Zn  Zn155  1  0.43863764  0.18675027  0.43718755  1
  Zn  Zn156  1  0.43440893  0.18953946  0.93663895  1
  Zn  Zn157  1  0.43096850  0.68913935  0.44593920  1
  Zn  Zn158  1  0.44214104  0.69177804  0.93582218  1
  Zn  Zn159  1  0.93585279  0.18832590  0.43489766  1
  Zn  Zn160  1  0.93820598  0.18763524  0.93515072  1
  Zn  Zn161  1  0.94270408  0.68911025  0.43722025  1
  Zn  Zn162  1  0.81484751  0.68919583  0.93599299  1
  Zn  Zn163  1  0.06144877  0.31290709  0.06561366  1
  Zn  Zn164  1  0.06042152  0.31208121  0.56160703  1
  Zn  Zn165  1  0.06063010  0.81206306  0.06240610  1
  Zn  Zn166  1  0.05689936  0.81603932  0.56371403  1
  Zn  Zn167  1  0.56189915  0.31327915  0.06537153  1
  Zn  Zn168  1  0.56372644  0.31414400  0.56899053  1
  Zn  Zn169  1  0.56089145  0.80979391  0.05982359  1
  Zn  Zn170  1  0.55825459  0.81052706  0.56295052  1
  O  O171  1  0.10920068  0.11501213  0.13103690  1
  O  O172  1  0.11827725  0.11665581  0.62163002  1
  O  O173  1  0.11885495  0.62958732  0.11434498  1
  O  O174  1  0.11830712  0.62167876  0.62082432  1
  O  O175  1  0.62469760  0.11489802  0.11179866  1
  O  O176  1  0.60667091  0.13013269  0.62884819  1
  O  O177  1  0.62195583  0.61339176  0.11891082  1
  O  O178  1  0.61755513  0.62125819  0.62351217  1
  O  O179  1  0.37600948  0.38231504  0.38957614  1
  O  O180  1  0.38162322  0.37855789  0.88340550  1
  O  O181  1  0.39433461  0.87080684  0.36751269  1
  O  O182  1  0.38209353  0.87342127  0.88294385  1
  O  O183  1  0.88392054  0.38873827  0.37837730  1
  O  O184  1  0.88038060  0.37973236  0.88269066  1
  O  O185  1  0.87178561  0.88636273  0.37855700  1
  O  O186  1  0.88513245  0.87149601  0.87954983  1
  O  O187  1  0.24827932  0.01478055  0.36557429  1
  O  O188  1  0.24394984  -0.00153301  0.88522655  1
  O  O189  1  0.26212202  0.49614742  0.36293537  1
  O  O190  1  0.25165207  0.50547690  0.87092749  1
  O  O191  1  0.75427003  0.00726082  0.36765160  1
  O  O192  1  0.75146405  0.01178082  0.86628261  1
  O  O193  1  0.76010042  0.50910518  0.36987491  1
  O  O194  1  0.76422767  0.49730942  0.87954028  1
  O  O195  1  0.25450927  0.49148886  0.14070354  1
  O  O196  1  0.24275487  0.49698798  0.63140605  1
  O  O197  1  0.24414205  0.99166499  0.13240033  1
  O  O198  1  0.23746613  1.00658500  0.62429993  1
  O  O199  1  0.74807895  0.49578772  0.13228943  1
  O  O200  1  0.73738532  0.50033753  0.61926127  1
  O  O201  1  0.74111646  0.99321332  0.12972171  1
  O  O202  1  0.74517547  1.00762008  0.63383442  1
  O  O203  1  -0.00233186  0.36398494  0.25799417  1
  O  O204  1  0.00539623  0.36917043  0.75407462  1
  O  O205  1  0.01027070  0.86639281  0.24212187  1
  O  O206  1  0.00212574  0.87188354  0.75369661  1
  O  O207  1  0.50222062  0.36192093  0.25391729  1
  O  O208  1  0.50739146  0.37559506  0.75975820  1
  O  O209  1  0.51350545  0.87499027  0.25415225  1
  O  O210  1  0.51500347  0.87995125  0.75574958  1
  O  O211  1  0.49423044  0.13452013  0.24874614  1
  O  O212  1  0.49004359  0.12520994  0.73994793  1
  O  O213  1  0.51983204  0.62648674  0.26304370  1
  O  O214  1  0.49016001  0.61936939  0.74394591  1
  O  O215  1  0.99233663  0.13141024  0.24384898  1
  O  O216  1  0.99065822  0.12783243  0.74276035  1
  O  O217  1  1.00202133  0.63373218  0.24201184  1
  O  O218  1  0.99558264  0.63446865  0.74492950  1
  O  O219  1  0.37452203  0.26431697  0.00284024  1
  O  O220  1  0.36861576  0.25940056  0.50633757  1
  O  O221  1  0.36993271  0.75768778  0.00673417  1
  O  O222  1  0.36487527  0.75650034  0.51078747  1
  O  O223  1  0.87056679  0.25805304  -0.00081324  1
  O  O224  1  0.87140080  0.24935720  0.51132993  1
  O  O225  1  0.87919777  0.76066488  0.00875179  1
  O  O226  1  0.87788991  0.75434533  0.50682870  1
  O  O227  1  0.13212506  0.23687920  0.51015089  1
  O  O228  1  0.12191762  0.25652540  0.98394143  1
  O  O229  1  0.12775263  0.74792391  0.49596062  1
  O  O230  1  0.13348047  0.74208755  1.00096270  1
  O  O231  1  0.63730423  0.25949512  0.49925957  1
  O  O232  1  0.63317247  0.24050845  1.00406683  1
  O  O233  1  0.62696300  0.73587555  0.50517457  1
  O  O234  1  0.62635495  0.75111946  0.98507672  1
  O  O235  1  0.49763318  0.24917567  0.13789752  1
  O  O236  1  0.48621814  0.25480131  0.62870120  1
  O  O237  1  0.48922652  0.74715977  0.12560983  1
  O  O238  1  0.49013013  0.73686129  0.62222782  1
  O  O239  1  0.99768923  0.24185713  0.13025506  1
  O  O240  1  0.99439526  0.23938898  0.62989145  1
  O  O241  1  0.99547019  0.74236555  0.13196455  1
  O  O242  1  0.99153682  0.74600955  0.63411162  1
  O  O243  1  -0.00447003  0.25990161  0.36609270  1
  O  O244  1  0.00659068  0.25668636  0.86792614  1
  O  O245  1  0.01061545  0.74741992  0.36167858  1
  O  O246  1  -0.00160653  0.75800424  0.85834859  1
  O  O247  1  0.49801654  0.25089446  0.36132799  1
  O  O248  1  0.49886926  0.26453242  0.87475043  1
  O  O249  1  0.50199947  0.74830080  0.37154222  1
  O  O250  1  0.51087124  0.76403177  0.87695522  1
  O  O251  1  0.24371709  0.13203705  0.49145203  1
  O  O252  1  0.24392398  0.13609663  1.02146193  1
  O  O253  1  0.23726243  0.63569683  0.50679712  1
  O  O254  1  0.24514867  0.62635682  1.00087188  1
  O  O255  1  0.75114688  0.13774455  0.49606668  1
  O  O256  1  0.74590666  0.12741950  0.99198363  1
  O  O257  1  0.74093448  0.62400290  0.48979746  1
  O  O258  1  0.75364100  0.62837049  1.00607096  1
  O  O259  1  0.25829739  0.37816961  0.01331279  1
  O  O260  1  0.25491310  0.37299593  0.50557824  1
  O  O261  1  0.25504413  0.86190515  0.00825626  1
  O  O262  1  0.24755089  0.86529245  0.49931920  1
  O  O263  1  0.75757755  0.36553111  -0.00271627  1
  O  O264  1  0.75468569  0.36771775  0.50521427  1
  O  O265  1  0.76441844  0.88428721  0.00182786  1
  O  O266  1  0.76606426  0.86591641  0.49549324  1
  O  O267  1  0.13800960  0.50201345  0.25726544  1
  O  O268  1  0.12788667  0.49592714  0.74728377  1
  O  O269  1  0.12886270  0.99345213  0.24376659  1
  O  O270  1  0.12085941  0.99342687  0.73560115  1
  O  O271  1  0.64124478  0.50091566  0.23760066  1
  O  O272  1  0.62086178  0.49055612  0.74317802  1
  O  O273  1  0.63102744  0.99180486  0.24126297  1
  O  O274  1  0.63635387  0.98837209  0.75391360  1
  O  O275  1  0.36960671  0.00776604  0.25326883  1
  O  O276  1  0.37076343  0.01285937  0.75205910  1
  O  O277  1  0.37846591  0.50077391  0.26526694  1
  O  O278  1  0.36719088  0.51160581  0.75000941  1
  O  O279  1  0.86710770  0.00205868  0.25508855  1
  O  O280  1  0.85919267  0.00749558  0.74277649  1
  O  O281  1  0.87222272  0.50219722  0.25709468  1
  O  O282  1  0.88208477  0.51128347  0.76023296  1
  O  O283  1  0.11389457  0.37776949  0.38045905  1
  O  O284  1  0.11923866  0.36825950  0.86929755  1
  O  O285  1  0.12796237  0.87251827  0.36429821  1
  O  O286  1  0.10945704  0.86757195  0.86612311  1
  O  O287  1  0.61356327  0.40934399  0.36582056  1
  O  O288  1  0.61849906  0.38039731  0.86295600  1
  O  O289  1  0.61236130  0.86594492  0.36436789  1
  O  O290  1  0.62062641  0.86774282  0.86929481  1
  O  O291  1  0.37904431  0.12628224  0.13890414  1
  O  O292  1  0.37977899  0.13334754  0.63514040  1
  O  O293  1  0.38284679  0.63771342  0.12303835  1
  O  O294  1  0.38068732  0.63219213  0.63356118  1
  O  O295  1  0.88555718  0.12122937  0.13567813  1
  O  O296  1  0.88115180  0.13091730  0.63194646  1
  O  O297  1  0.88631267  0.63403843  0.12667132  1
  O  O298  1  0.88311193  0.62950852  0.63118859  1
  O  O299  1  0.25460602  0.26696127  0.12786699  1
  O  O300  1  0.26025488  0.25654082  0.61955442  1
  O  O301  1  0.25854821  0.75052065  0.11750171  1
  O  O302  1  0.25904974  0.74696693  0.61791773  1
  O  O303  1  0.75569206  0.24910321  0.11038045  1
  O  O304  1  0.75731830  0.25152647  0.61554548  1
  O  O305  1  0.76488890  0.75879009  0.13180461  1
  O  O306  1  0.76414232  0.74107306  0.62108291  1
  O  O307  1  0.25335575  0.24107830  0.37909491  1
  O  O308  1  0.23411984  0.25673594  0.87869113  1
  O  O309  1  0.23745624  0.75269049  0.38452806  1
  O  O310  1  0.24824836  0.74243940  0.89034676  1
  O  O311  1  0.75544765  0.25748800  0.39056160  1
  O  O312  1  0.75444939  0.23612786  0.88613694  1
  O  O313  1  0.75846645  0.73487554  0.37244791  1
  O  O314  1  0.74078045  0.75695674  0.87360842  1
  O  O315  1  -0.00714524  0.11641801  0.00768079  1
  O  O316  1  0.00715907  0.12464498  0.50579013  1
  O  O317  1  0.00934752  0.61653280  0.00927253  1
  O  O318  1  0.01048172  0.62097948  0.50725432  1
  O  O319  1  0.50638530  0.12390093  0.00059627  1
  O  O320  1  0.49067228  0.13061010  0.51889156  1
  O  O321  1  0.50205471  0.61248477  -0.00309498  1
  O  O322  1  0.50440768  0.62013984  0.50919902  1
  O  O323  1  0.49213834  0.38403641  0.50415548  1
  O  O324  1  0.49554696  0.38379621  0.99514551  1
  O  O325  1  0.50009393  0.86865395  0.48352033  1
  O  O326  1  0.49153162  0.87604884  0.99363930  1
  O  O327  1  0.99925392  0.38241981  0.49371362  1
  O  O328  1  0.99435006  0.38117501  0.99671226  1
  O  O329  1  0.98556097  0.87736060  0.49905164  1
  O  O330  1  0.99232071  0.87955874  0.99068334  1
  O  O331  1  0.48367211  0.50215194  0.39320927  1
  O  O332  1  0.49918197  0.49110722  0.88363584  1
  O  O333  1  0.50025041  0.98481183  0.37103422  1
  O  O334  1  0.49586224  0.98565203  0.87616871  1
  O  O335  1  0.99558537  0.49599628  0.37901776  1
  O  O336  1  0.99388159  0.49409611  0.88355956  1
  O  O337  1  0.98912585  1.00394526  0.37322024  1
  O  O338  1  1.00349001  0.99272843  0.88154048  1
  O  O339  1  0.00454143  0.00569033  0.11801508  1
  O  O340  1  0.00143477  0.01248996  0.62167075  1
  O  O341  1  -0.00447804  0.51196500  0.11925129  1
  O  O342  1  0.00629340  0.50562672  0.62036416  1
  O  O343  1  0.51259599  -0.00044245  0.12308659  1
  O  O344  1  0.50109646  0.00820023  0.62136531  1
  O  O345  1  0.50920719  0.50268892  0.12018613  1
  O  O346  1  0.50349606  0.50977203  0.61866011  1
  O  O347  1  0.25458072  0.38486124  0.24094178  1
  O  O348  1  0.24596654  0.38116385  0.74522785  1
  O  O349  1  0.24348942  0.87943343  0.24727552  1
  O  O350  1  0.23299108  0.86636556  0.75697303  1
  O  O351  1  0.75434474  0.38380919  0.24887458  1
  O  O352  1  0.73738828  0.37247411  0.75127430  1
  O  O353  1  0.73932312  0.88444397  0.24581686  1
  O  O354  1  0.74157202  0.88936119  0.74742131  1
  O  O355  1  0.25586045  0.12345696  0.25389782  1
  O  O356  1  0.26506980  0.13143589  0.74752501  1
  O  O357  1  0.24986727  0.61023048  0.24661626  1
  O  O358  1  0.25349452  0.62064420  0.75815178  1
  O  O359  1  0.75746203  0.11271343  0.24022951  1
  O  O360  1  0.75158263  0.11806742  0.75359891  1
  O  O361  1  0.75593386  0.61414984  0.25558542  1
  O  O362  1  0.76110150  0.62571498  0.74413853  1
  O  O363  1  0.36740950  0.12539340  0.36471017  1
  O  O364  1  0.37748818  0.12357831  0.86197956  1
  O  O365  1  0.37099757  0.61329868  0.38249775  1
  O  O366  1  0.37042916  0.62453952  0.86966008  1
  O  O367  1  0.87721104  0.11730307  0.36118217  1
  O  O368  1  0.86919262  0.12874288  0.86000782  1
  O  O369  1  0.87235200  0.61554623  0.37440421  1
  O  O370  1  0.87530042  0.61878254  0.86412677  1
  O  O371  1  0.13924471  0.37669782  0.12233114  1
  O  O372  1  0.12998100  0.38028144  0.63076140  1
  O  O373  1  0.13092538  0.87790689  0.13372885  1
  O  O374  1  0.11986662  0.89055105  0.62999024  1
  O  O375  1  0.62945604  0.38647915  0.12739832  1
  O  O376  1  0.62549617  0.38595002  0.63810621  1
  O  O377  1  0.62994789  0.87785415  0.12794309  1
  O  O378  1  0.62232609  0.86769063  0.63813319  1
  O  O379  1  0.11339193  0.24142676  0.24651579  1
  O  O380  1  0.11973033  0.25583182  0.75613438  1
  O  O381  1  0.12255705  0.75690778  0.25736777  1
  O  O382  1  0.11428671  0.75798687  0.74743848  1
  O  O383  1  0.61498678  0.25016276  0.24535606  1
  O  O384  1  0.62199937  0.26707207  0.74485461  1
  O  O385  1  0.62812147  0.74997892  0.24865633  1
  O  O386  1  0.63134421  0.76665697  0.76037895  1
  O  O387  1  0.38489617  0.24397508  0.24973791  1
  O  O388  1  0.37744640  0.24361126  0.74403488  1
  O  O389  1  0.36975312  0.75089319  0.23523331  1
  O  O390  1  0.36734800  0.73678081  0.74617869  1
  O  O391  1  0.88013884  0.24106452  0.24634060  1
  O  O392  1  0.87733284  0.24260982  0.73986313  1
  O  O393  1  0.88582701  0.75175722  0.24119992  1
  O  O394  1  0.87847887  0.74527470  0.74239869  1
  O  O395  1  0.37718139  0.49546392  0.49906543  1
  O  O396  1  0.38329921  0.49232256  1.00107154  1
  O  O397  1  0.36366951  0.99249330  0.49241758  1
  O  O398  1  0.37503662  0.98472473  1.00288604  1
  O  O399  1  0.88348507  0.50112417  0.49326667  1
  O  O400  1  0.88688017  0.49342359  0.99302401  1
  O  O401  1  0.87549051  0.99450705  0.48984133  1
  O  O402  1  0.88870294  0.99117307  1.00461132  1
  O  O403  1  0.11223102  -0.00650147  0.00685445  1
  O  O404  1  0.12386563  0.00963498  0.51048143  1
  O  O405  1  0.11282902  0.50528752  -0.00396366  1
  O  O406  1  0.12383296  0.50966701  0.50494318  1
  O  O407  1  0.62440165  0.00617194  0.00475564  1
  O  O408  1  0.64365469  0.01190434  0.48127709  1
  O  O409  1  0.61914021  0.50099564  0.00525533  1
  O  O410  1  0.61533631  0.51168428  0.50905908  1
  O  O411  1  0.36923603  0.37741307  0.11865581  1
  O  O412  1  0.36994460  0.37258144  0.61774607  1
  O  O413  1  0.37101094  0.86530470  0.12016569  1
  O  O414  1  0.38338980  0.86165107  0.63279188  1
  O  O415  1  0.87536179  0.37555013  0.11017428  1
  O  O416  1  0.87435197  0.36544008  0.62561117  1
  O  O417  1  0.87210618  0.86892932  0.11601750  1
  O  O418  1  0.87741627  0.86527331  0.61619561  1
  O  O419  1  0.13184514  0.12277147  0.38534937  1
  O  O420  1  0.11838272  0.14119268  0.87049748  1
  O  O421  1  0.12142725  0.63702010  0.38700172  1
  O  O422  1  0.12913232  0.62742748  0.88802209  1
  O  O423  1  0.63185877  0.12611655  0.36868532  1
  O  O424  1  0.62978732  0.11990870  0.88398743  1
  O  O425  1  0.62877775  0.62707099  0.37907388  1
  O  O426  1  0.62150411  0.64470985  0.87235968  1
