# generated using pymatgen
data_V85Zn86O256
_symmetry_space_group_name_H-M   'P 1'
_cell_length_a   16.92942992
_cell_length_b   16.94482451
_cell_length_c   16.93942128
_cell_angle_alpha   90.05964127
_cell_angle_beta   90.02648239
_cell_angle_gamma   89.99699827
_symmetry_Int_Tables_number   1
_chemical_formula_structural   V85Zn86O256
_chemical_formula_sum   'V85 Zn86 O256'
_cell_volume   4859.34457807
_cell_formula_units_Z   1
loop_
 _symmetry_equiv_pos_site_id
 _symmetry_equiv_pos_as_xyz
  1  'x, y, z'
loop_
 _atom_site_type_symbol
 _atom_site_label
 _atom_site_symmetry_multiplicity
 _atom_site_fract_x
 _atom_site_fract_y
 _atom_site_fract_z
 _atom_site_occupancy
  V  V0  1  0.12806263  0.87851520  0.24915369  1
  V  V1  1  0.26375775  0.12048265  0.36668078  1
  V  V2  1  0.12035126  0.86605145  0.74671010  1
  V  V3  1  0.11468979  0.12264770  -0.01078217  1
  V  V4  1  0.74569214  0.37671084  0.62478605  1
  V  V5  1  0.37452817  0.87377863  -0.00391122  1
  V  V6  1  0.49896165  0.24836589  0.24327897  1
  V  V7  1  0.62375753  0.12636479  0.50203805  1
  V  V8  1  0.36810983  0.24547391  0.12688165  1
  V  V9  1  0.37272790  0.37445154  0.51420272  1
  V  V10  1  0.67643420  0.54776583  0.67658333  1
  V  V11  1  0.25554632  0.25134462  0.51084634  1
  V  V12  1  0.49422727  0.62385901  0.62318784  1
  V  V13  1  0.12942349  0.24985837  0.37416681  1
  V  V14  1  0.49469893  0.00515998  0.00171534  1
  V  V15  1  0.51305210  0.49863247  0.50002601  1
  V  V16  1  0.61780682  0.12977459  0.00620169  1
  V  V17  1  0.74971380  0.26155700  0.00794164  1
  V  V18  1  0.26086664  0.87235970  0.62540002  1
  V  V19  1  0.00283349  0.62797659  0.63575411  1
  V  V20  1  0.37192199  0.12598257  0.74801038  1
  V  V21  1  0.49639394  0.75114120  0.74643023  1
  V  V22  1  0.24735618  -0.00211096  0.74995848  1
  V  V23  1  0.49360342  0.13025354  0.62380432  1
  V  V24  1  0.87281264  0.11683299  0.24918095  1
  V  V25  1  0.86457822  0.50113713  0.86576279  1
  V  V26  1  0.62513453  0.87687522  0.75255101  1
  V  V27  1  0.74793385  0.63148063  0.36937279  1
  V  V28  1  0.37592030  0.49193362  0.87301017  1
  V  V29  1  0.12841521  0.62138503  0.49728544  1
  V  V30  1  0.62214062  0.00154344  0.62726480  1
  V  V31  1  0.49938320  0.49360479  -0.00227496  1
  V  V32  1  0.61906126  -0.00021269  0.12706389  1
  V  V33  1  0.49959267  0.62287399  0.12422045  1
  V  V34  1  0.37331043  0.62692606  0.74727826  1
  V  V35  1  0.13375984  0.74440084  0.37380936  1
  V  V36  1  0.87882643  0.37723318  0.49983686  1
  V  V37  1  0.62642227  0.63490782  0.49367703  1
  V  V38  1  0.75092978  0.25006502  0.50023577  1
  V  V39  1  0.73035194  -0.01988778  0.26917031  1
  V  V40  1  0.00019820  0.36991495  0.87664782  1
  V  V41  1  0.00145056  0.62326680  0.12415448  1
  V  V42  1  0.75239463  0.12521721  0.37707735  1
  V  V43  1  0.87398670  0.62138393  0.24879468  1
  V  V44  1  0.24850371  0.49489435  0.74043169  1
  V  V45  1  0.86808686  0.26511185  0.12763801  1
  V  V46  1  0.63705581  0.49718178  0.13148643  1
  V  V47  1  0.87732519  0.50154082  0.37252723  1
  V  V48  1  0.75933314  0.87990764  0.62009170  1
  V  V49  1  0.36983856  0.62596374  0.25474008  1
  V  V50  1  0.36988985  0.50176161  0.37789953  1
  V  V51  1  0.51697711  0.75221850  0.26158727  1
  V  V52  1  0.25146641  0.49219824  0.24703768  1
  V  V53  1  0.87598711  0.12505835  0.75288040  1
  V  V54  1  -0.01012557  0.49607998  -0.00174228  1
  V  V55  1  0.49157174  0.25422237  0.75040617  1
  V  V56  1  -0.00000283  0.24881331  0.24915407  1
  V  V57  1  0.88557323  -0.00233683  0.39098986  1
  V  V58  1  0.61808540  0.25557500  0.87654649  1
  V  V59  1  0.74591522  0.87559252  0.12684685  1
  V  V60  1  0.49960560  0.37346139  0.37340753  1
  V  V61  1  0.62872392  0.62430727  -0.00698707  1
  V  V62  1  0.24899333  0.62193510  0.87316820  1
  V  V63  1  0.12220299  0.11766649  0.49959856  1
  V  V64  1  0.12788253  0.36518597  0.74568066  1
  V  V65  1  0.37418555  0.74505558  0.12300350  1
  V  V66  1  0.00396503  0.74978254  0.25097802  1
  V  V67  1  0.37928058  0.87424348  0.48590607  1
  V  V68  1  0.12871821  0.48852489  0.12204492  1
  V  V69  1  0.88057589  0.88810737  0.00313949  1
  V  V70  1  0.87623161  0.75101714  0.12353678  1
  V  V71  1  0.75125855  0.74913398  -0.00708097  1
  V  V72  1  0.00009140  0.87509484  0.87412550  1
  V  V73  1  0.00280616  0.87705104  0.38918440  1
  V  V74  1  0.24626897  0.75001288  -0.00360468  1
  V  V75  1  0.24057413  0.25242856  -0.00470071  1
  V  V76  1  0.12357358  0.62190203  -0.00050621  1
  V  V77  1  0.36701771  0.37607490  0.00606857  1
  V  V78  1  0.87918096  0.25108105  0.62890815  1
  V  V79  1  0.76166398  0.75582906  0.49753459  1
  V  V80  1  0.49431615  -0.00336515  0.49054233  1
  V  V81  1  0.74824913  0.12707519  0.87848739  1
  V  V82  1  0.25669830  0.74507384  0.50224243  1
  V  V83  1  0.11788773  0.00273559  0.12287507  1
  V  V84  1  0.62549767  0.37280421  0.74913243  1
  Zn  Zn85  1  0.62569005  0.74819321  0.87455943  1
  Zn  Zn86  1  0.24402784  0.12901627  0.87070238  1
  Zn  Zn87  1  -0.00606786  0.12141595  0.12030113  1
  Zn  Zn88  1  -0.00259664  0.11765341  0.62168437  1
  Zn  Zn89  1  0.37311399  0.00134328  0.87439336  1
  Zn  Zn90  1  0.87592225  0.62632981  0.75425485  1
  Zn  Zn91  1  0.00558218  0.24480751  0.75566946  1
  Zn  Zn92  1  0.11824872  -0.00857864  0.61819654  1
  Zn  Zn93  1  0.50065080  0.87484075  0.87551742  1
  Zn  Zn94  1  0.00446345  0.37656054  0.37503688  1
  Zn  Zn95  1  0.12621761  0.49381120  0.62105975  1
  Zn  Zn96  1  0.13008133  0.36941176  0.24604673  1
  Zn  Zn97  1  0.74907002  0.00259966  0.75343726  1
  Zn  Zn98  1  0.62382380  0.25039536  0.37111631  1
  Zn  Zn99  1  0.24741102  0.87756936  0.12282291  1
  Zn  Zn100  1  0.88012449  0.00715061  0.88195885  1
  Zn  Zn101  1  0.11119944  0.74193977  0.86940105  1
  Zn  Zn102  1  0.43113503  0.08062513  0.18908167  1
  Zn  Zn103  1  0.26282237  0.00293699  0.24734068  1
  Zn  Zn104  1  0.88536246  0.75709366  0.63127448  1
  Zn  Zn105  1  0.63976928  0.37005992  0.23863416  1
  Zn  Zn106  1  0.00394697  0.50093555  0.50118242  1
  Zn  Zn107  1  0.18821406  0.18521247  0.18262358  1
  Zn  Zn108  1  0.18724242  0.18660221  0.68422475  1
  Zn  Zn109  1  0.18962335  0.68230181  0.18546823  1
  Zn  Zn110  1  0.18862365  0.68681032  0.68338675  1
  Zn  Zn111  1  0.68640980  0.18302505  0.19093890  1
  Zn  Zn112  1  0.68806378  0.18971524  0.68916881  1
  Zn  Zn113  1  0.69067433  0.68270261  0.18037731  1
  Zn  Zn114  1  0.72299984  0.71944931  0.71213976  1
  Zn  Zn115  1  0.31445921  0.31234045  0.31566787  1
  Zn  Zn116  1  0.31079807  0.31251475  0.81510678  1
  Zn  Zn117  1  0.31287075  0.81034253  0.31105368  1
  Zn  Zn118  1  0.31201054  0.81065746  0.81288506  1
  Zn  Zn119  1  0.81427851  0.31267258  0.30923727  1
  Zn  Zn120  1  0.81151719  0.31547306  0.81530590  1
  Zn  Zn121  1  0.81915043  0.81175633  0.31546480  1
  Zn  Zn122  1  0.81743579  0.81835489  0.81410922  1
  Zn  Zn123  1  0.19118740  0.43456357  0.43570744  1
  Zn  Zn124  1  0.18467457  0.43460774  0.93274181  1
  Zn  Zn125  1  0.19441372  0.93628120  0.43284096  1
  Zn  Zn126  1  0.18280753  0.93952653  0.93490695  1
  Zn  Zn127  1  0.70438151  0.42672053  0.40357195  1
  Zn  Zn128  1  0.68393837  0.43660436  0.93804259  1
  Zn  Zn129  1  0.68777489  0.94093008  0.44012367  1
  Zn  Zn130  1  0.68701152  0.94003956  0.94029863  1
  Zn  Zn131  1  0.30002409  0.06185228  0.05848554  1
  Zn  Zn132  1  0.30949142  0.06058402  0.56145143  1
  Zn  Zn133  1  0.31004753  0.56096054  0.06300217  1
  Zn  Zn134  1  0.31440779  0.56210188  0.56098116  1
  Zn  Zn135  1  0.80258881  0.06543322  0.06881484  1
  Zn  Zn136  1  0.81402595  0.06278557  0.56511429  1
  Zn  Zn137  1  0.81253329  0.56243090  0.05878655  1
  Zn  Zn138  1  0.82001938  0.56899320  0.55639122  1
  Zn  Zn139  1  0.43907373  0.43463736  0.18687314  1
  Zn  Zn140  1  0.44321469  0.44118990  0.68679682  1
  Zn  Zn141  1  0.43672298  0.91897439  0.18728475  1
  Zn  Zn142  1  0.43672897  0.93977978  0.68437490  1
  Zn  Zn143  1  0.94087691  0.43702658  0.18971272  1
  Zn  Zn144  1  0.94171204  0.44075256  0.68888312  1
  Zn  Zn145  1  0.93729324  0.93776738  0.19521685  1
  Zn  Zn146  1  0.94126704  0.94335641  0.69039477  1
  Zn  Zn147  1  0.06559360  0.06364523  0.31246492  1
  Zn  Zn148  1  0.05915257  0.05441072  0.80844559  1
  Zn  Zn149  1  0.06445885  0.56141613  0.31182040  1
  Zn  Zn150  1  0.06363878  0.55466303  0.81266171  1
  Zn  Zn151  1  0.56060214  0.06525741  0.31692375  1
  Zn  Zn152  1  0.55855458  0.06533639  0.81657687  1
  Zn  Zn153  1  0.55992640  0.56528547  0.31244081  1
  Zn  Zn154  1  0.55689752  0.56400437  0.81659560  1
  Zn  Zn155  1  0.43647016  0.19016962  0.43748060  1
  Zn  Zn156  1  0.43301407  0.18966162  0.93527003  1
  Zn  Zn157  1  0.43740476  0.68942943  0.43566476  1
  Zn  Zn158  1  0.43863073  0.68523844  0.93263309  1
  Zn  Zn159  1  0.94005548  0.18920970  0.43580394  1
  Zn  Zn160  1  0.93307689  0.19282677  0.94227410  1
  Zn  Zn161  1  0.94381417  0.68909092  0.43972311  1
  Zn  Zn162  1  0.93429732  0.68710596  0.93499352  1
  Zn  Zn163  1  0.05702685  0.30795269  0.06109605  1
  Zn  Zn164  1  0.06385973  0.30790049  0.56320061  1
  Zn  Zn165  1  0.06142447  0.81377640  0.06024270  1
  Zn  Zn166  1  0.06851199  0.80668366  0.56486220  1
  Zn  Zn167  1  0.55698530  0.31592118  0.06426986  1
  Zn  Zn168  1  0.56218715  0.31246293  0.56157621  1
  Zn  Zn169  1  0.56164983  0.81190101  0.06532077  1
  Zn  Zn170  1  0.56329219  0.81178531  0.56480736  1
  O  O171  1  0.12023668  0.11810631  0.11594335  1
  O  O172  1  0.12655721  0.12546913  0.60821750  1
  O  O173  1  0.11932000  0.61437626  0.11898436  1
  O  O174  1  0.11780349  0.62213518  0.61770378  1
  O  O175  1  0.62767089  0.12111621  0.11050861  1
  O  O176  1  0.61919181  0.11917755  0.62220096  1
  O  O177  1  0.61761917  0.61483830  0.11438204  1
  O  O178  1  0.62193276  0.61369447  0.61672880  1
  O  O179  1  0.38382901  0.38150634  0.38325961  1
  O  O180  1  0.37103190  0.38632850  0.88454085  1
  O  O181  1  0.37298307  0.87450765  0.38704742  1
  O  O182  1  0.37646818  0.87556647  0.88577509  1
  O  O183  1  0.87933562  0.38458976  0.38340908  1
  O  O184  1  0.88869657  0.38667593  0.86666767  1
  O  O185  1  0.88818781  0.88582378  0.37351300  1
  O  O186  1  0.88145467  0.88121002  0.88391088  1
  O  O187  1  0.24836549  0.01646666  0.37057562  1
  O  O188  1  0.25091001  0.00030979  0.86115342  1
  O  O189  1  0.26327140  0.49714461  0.36787921  1
  O  O190  1  0.25574856  0.50432529  0.86574823  1
  O  O191  1  0.76779642  0.01373789  0.38355790  1
  O  O192  1  0.74836234  0.01657630  0.87728860  1
  O  O193  1  0.76946495  0.52137415  0.38472232  1
  O  O194  1  0.76647129  0.49192615  0.88148018  1
  O  O195  1  0.24008965  0.50233511  0.13237907  1
  O  O196  1  0.25061585  0.50159968  0.63737995  1
  O  O197  1  0.23476030  0.99746186  0.12760227  1
  O  O198  1  0.24546729  0.99154294  0.63365897  1
  O  O199  1  0.73591290  0.50442803  0.12238611  1
  O  O200  1  0.74680944  0.49612057  0.61885134  1
  O  O201  1  0.73888680  0.99226910  0.13816217  1
  O  O202  1  0.73948648  0.99656506  0.62553865  1
  O  O203  1  0.00233743  0.36046387  0.25286448  1
  O  O204  1  0.01027509  0.37251861  0.75740054  1
  O  O205  1  0.01274010  0.86747557  0.25651460  1
  O  O206  1  0.00728618  0.87315949  0.75937798  1
  O  O207  1  0.50183134  0.36635069  0.25762770  1
  O  O208  1  0.51304691  0.36561629  0.73929038  1
  O  O209  1  0.50593245  0.85058115  0.24124133  1
  O  O210  1  0.50541953  0.86806664  0.74775814  1
  O  O211  1  0.50020447  0.14235795  0.25459409  1
  O  O212  1  0.49218229  0.13206511  0.74390120  1
  O  O213  1  0.48957733  0.62931671  0.24147045  1
  O  O214  1  0.49589553  0.62974151  0.74203086  1
  O  O215  1  0.99088493  0.13315579  0.25040445  1
  O  O216  1  0.99050689  0.12850021  0.75146029  1
  O  O217  1  0.99637534  0.63064784  0.24342736  1
  O  O218  1  1.00435077  0.62374690  0.73889725  1
  O  O219  1  0.36879890  0.25879730  0.00606621  1
  O  O220  1  0.36409493  0.25825741  0.49795260  1
  O  O221  1  0.36890634  0.75338705  0.00081972  1
  O  O222  1  0.36985075  0.76040119  0.49701617  1
  O  O223  1  0.86241121  0.24486601  0.01604637  1
  O  O224  1  0.87150155  0.25597262  0.50737325  1
  O  O225  1  0.86818184  0.75700203  0.00624544  1
  O  O226  1  0.86455517  0.74659219  0.50512638  1
  O  O227  1  0.13687941  0.24489338  0.49320614  1
  O  O228  1  0.12945210  0.23666639  1.00629552  1
  O  O229  1  0.13563113  0.74256781  0.49165798  1
  O  O230  1  0.13146528  0.74170250  0.99763023  1
  O  O231  1  0.63205320  0.24319223  0.49804138  1
  O  O232  1  0.62387386  0.24659408  0.99505914  1
  O  O233  1  0.62880623  0.73869280  0.50137014  1
  O  O234  1  0.63102209  0.74192070  1.00056089  1
  O  O235  1  0.48526120  0.25461967  0.13068210  1
  O  O236  1  0.50568722  0.23686986  0.63249696  1
  O  O237  1  0.49515973  0.73499094  0.12511840  1
  O  O238  1  0.50898927  0.73744582  0.63702603  1
  O  O239  1  0.98774214  0.24587980  0.13244317  1
  O  O240  1  0.98768797  0.24617506  0.62803924  1
  O  O241  1  0.99619408  0.74369484  0.12948111  1
  O  O242  1  1.00077500  0.73508748  0.62295783  1
  O  O243  1  0.01012471  0.25062276  0.36698289  1
  O  O244  1  -0.00744531  0.26602256  0.87518106  1
  O  O245  1  0.01080967  0.75651235  0.36998228  1
  O  O246  1  -0.00445739  0.76533446  0.87741082  1
  O  O247  1  0.49692358  0.25783339  0.36637684  1
  O  O248  1  0.50695752  0.24740554  0.86426014  1
  O  O249  1  0.50359313  0.74402274  0.36128295  1
  O  O250  1  0.50442615  0.75101410  0.86163364  1
  O  O251  1  0.24607378  0.13467920  0.49188003  1
  O  O252  1  0.23582245  0.13290765  0.99397440  1
  O  O253  1  0.24045971  0.63192158  0.50526861  1
  O  O254  1  0.24410406  0.62900389  0.99355610  1
  O  O255  1  0.74570869  0.13021693  0.49699088  1
  O  O256  1  0.73872173  0.13278284  0.99489029  1
  O  O257  1  0.74409327  0.63603456  0.49438908  1
  O  O258  1  0.74110977  0.63611439  1.00588742  1
  O  O259  1  0.25437577  0.36814511  -0.00341585  1
  O  O260  1  0.25793614  0.36080875  0.49540015  1
  O  O261  1  0.25383227  0.86601641  -0.00283638  1
  O  O262  1  0.26102737  0.86983273  0.50465215  1
  O  O263  1  0.74327577  0.36029498  -0.00079217  1
  O  O264  1  0.76147371  0.37123217  0.50223223  1
  O  O265  1  0.75662036  0.87185886  0.00991298  1
  O  O266  1  0.74381197  0.86871948  0.50660691  1
  O  O267  1  0.13371145  0.49862579  0.24200116  1
  O  O268  1  0.13412423  0.48911915  0.74728154  1
  O  O269  1  0.12849570  0.99205350  0.24449518  1
  O  O270  1  0.13298025  0.98576605  0.74861450  1
  O  O271  1  0.61818897  0.50343476  0.23285625  1
  O  O272  1  0.61777738  0.49277465  0.74436413  1
  O  O273  1  0.62141332  1.02121440  0.22964782  1
  O  O274  1  0.62201188  0.99824838  0.74161051  1
  O  O275  1  0.37606617  -0.00302537  0.23626686  1
  O  O276  1  0.36747224  0.00747485  0.75021899  1
  O  O277  1  0.37107501  0.50418957  0.25516567  1
  O  O278  1  0.37042395  0.50213631  0.75679585  1
  O  O279  1  0.86392522  0.00394961  0.26063395  1
  O  O280  1  0.86951591  0.01503500  0.75435653  1
  O  O281  1  0.88283355  0.51285694  0.25638244  1
  O  O282  1  0.87512951  0.50423793  0.76074516  1
  O  O283  1  0.12564538  0.36167313  0.37209665  1
  O  O284  1  0.10997376  0.38049032  0.86217388  1
  O  O285  1  0.12335069  0.86741417  0.36823570  1
  O  O286  1  0.11378126  0.87125455  0.86977327  1
  O  O287  1  0.60433956  0.37107908  0.38767638  1
  O  O288  1  0.62703437  0.36391417  0.86619253  1
  O  O289  1  0.66567202  0.92709642  0.32989115  1
  O  O290  1  0.62321495  0.87956652  0.86297793  1
  O  O291  1  0.37139772  0.14109738  0.11214704  1
  O  O292  1  0.38131977  0.12062250  0.63544046  1
  O  O293  1  0.38162462  0.62634899  0.12990397  1
  O  O294  1  0.38502791  0.62261860  0.63079498  1
  O  O295  1  0.87190850  0.12464132  0.14045733  1
  O  O296  1  0.87260743  0.13495863  0.63452284  1
  O  O297  1  0.88040223  0.62845852  0.13096037  1
  O  O298  1  0.89146344  0.62543217  0.62690506  1
  O  O299  1  0.26007807  0.24979905  0.11424664  1
  O  O300  1  0.25072938  0.24776278  0.60937311  1
  O  O301  1  0.25428546  0.74670492  0.11066140  1
  O  O302  1  0.24768466  0.75665622  0.61043417  1
  O  O303  1  0.75535352  0.24551077  0.12140780  1
  O  O304  1  0.75925193  0.25791373  0.62053453  1
  O  O305  1  0.75536946  0.75737516  0.11609024  1
  O  O306  1  0.74443802  0.76657954  0.61088230  1
  O  O307  1  0.24551064  0.24166571  0.37942555  1
  O  O308  1  0.25265006  0.24764889  0.89004461  1
  O  O309  1  0.24245408  0.75324705  0.38588601  1
  O  O310  1  0.24969658  0.74099880  0.88502697  1
  O  O311  1  0.75425487  0.23609695  0.38145977  1
  O  O312  1  0.74249776  0.24328967  0.88313294  1
  O  O313  1  0.75545536  0.74180258  0.38157223  1
  O  O314  1  0.74690554  0.75945974  0.88976362  1
  O  O315  1  0.01018240  0.12920788  0.00107052  1
  O  O316  1  0.01914876  0.13283364  0.49795577  1
  O  O317  1  0.00439928  0.61677407  0.00411272  1
  O  O318  1  0.01485613  0.62493154  0.50662048  1
  O  O319  1  0.50545393  0.11836598  -0.00561640  1
  O  O320  1  0.50132715  0.12038273  0.50713468  1
  O  O321  1  0.50425878  0.61646626  0.00579749  1
  O  O322  1  0.50653917  0.62256405  0.50551402  1
  O  O323  1  0.49213989  0.38213382  0.49799410  1
  O  O324  1  0.49028536  0.38831908  1.00166061  1
  O  O325  1  0.48714071  0.87996221  0.50797127  1
  O  O326  1  0.49092285  0.88145562  0.99977747  1
  O  O327  1  0.98959555  0.37373158  0.50052038  1
  O  O328  1  1.00518769  0.38173685  0.98642198  1
  O  O329  1  1.01061773  0.86972822  0.48821709  1
  O  O330  1  0.99060582  0.87357500  0.99111747  1
  O  O331  1  0.49031778  0.49473962  0.38009920  1
  O  O332  1  0.48837753  0.50383540  0.88491578  1
  O  O333  1  0.50480093  1.00110034  0.39143058  1
  O  O334  1  0.49653976  0.99763196  0.88828465  1
  O  O335  1  0.99129999  0.49928528  0.37752952  1
  O  O336  1  0.99358556  0.49139674  0.88167376  1
  O  O337  1  0.99564598  0.99107769  0.36909928  1
  O  O338  1  0.99619950  0.98286948  0.87392813  1
  O  O339  1  0.01178312  0.00149101  0.13324485  1
  O  O340  1  0.00654221  0.00493500  0.62648047  1
  O  O341  1  0.00507403  0.50290534  0.11668235  1
  O  O342  1  0.00462547  0.51205856  0.62165469  1
  O  O343  1  0.50177161  0.00070593  0.11503015  1
  O  O344  1  0.50596414  0.01123229  0.62004290  1
  O  O345  1  0.50073550  0.50949619  0.11747208  1
  O  O346  1  0.49969204  0.51230592  0.61447180  1
  O  O347  1  0.25094403  0.38761288  0.25237886  1
  O  O348  1  0.23673616  0.37983379  0.75708511  1
  O  O349  1  0.23794408  0.87254187  0.24757472  1
  O  O350  1  0.24761830  0.87948540  0.74343836  1
  O  O351  1  0.73430095  0.38697579  0.29653231  1
  O  O352  1  0.73652138  0.37037183  0.74102287  1
  O  O353  1  0.76701606  0.87467894  0.23261958  1
  O  O354  1  0.74077010  0.88168717  0.74305535  1
  O  O355  1  0.24873701  0.12746683  0.26293850  1
  O  O356  1  0.25402584  0.11794840  0.74880379  1
  O  O357  1  0.26358766  0.61434788  0.24529481  1
  O  O358  1  0.25342853  0.61694964  0.75340744  1
  O  O359  1  0.75251362  0.11164257  0.26195877  1
  O  O360  1  0.75477358  0.12780818  0.76102110  1
  O  O361  1  0.76214031  0.63137230  0.25632930  1
  O  O362  1  0.73062166  0.60638160  0.73683684  1
  O  O363  1  0.36235003  0.12741961  0.37692107  1
  O  O364  1  0.37160168  0.12323957  0.86045040  1
  O  O365  1  0.38034925  0.61523483  0.36609901  1
  O  O366  1  0.36883986  0.61351427  0.86881723  1
  O  O367  1  0.87367211  0.12007359  0.36707228  1
  O  O368  1  0.86632311  0.12760144  0.87158235  1
  O  O369  1  0.87497802  0.62326593  0.36690143  1
  O  O370  1  0.87865417  0.60833964  0.87270889  1
  O  O371  1  0.11821407  0.38532803  0.12557062  1
  O  O372  1  0.11938338  0.37511956  0.64052523  1
  O  O373  1  0.12439783  0.88071645  0.13161206  1
  O  O374  1  0.13684927  0.87251587  0.63116210  1
  O  O375  1  0.62074243  0.39202894  0.12414360  1
  O  O376  1  0.63771859  0.37193376  0.62832899  1
  O  O377  1  0.63377588  0.88578430  0.11910838  1
  O  O378  1  0.62818858  0.88501946  0.63427940  1
  O  O379  1  0.11813860  0.24753085  0.25456048  1
  O  O380  1  0.12613511  0.26035037  0.74994051  1
  O  O381  1  0.12520303  0.75249954  0.25640906  1
  O  O382  1  0.13560052  0.76224053  0.75389302  1
  O  O383  1  0.61641727  0.25344332  0.25023787  1
  O  O384  1  0.61657029  0.25500253  0.75714353  1
  O  O385  1  0.61520722  0.73620259  0.24608684  1
  O  O386  1  0.62263918  0.76139790  0.75345598  1
  O  O387  1  0.37691223  0.25788067  0.23270268  1
  O  O388  1  0.38424913  0.24623092  0.75272811  1
  O  O389  1  0.37675631  0.74095569  0.24289249  1
  O  O390  1  0.38444848  0.74142266  0.75378289  1
  O  O391  1  0.87920478  0.24083189  0.24733434  1
  O  O392  1  0.87384955  0.24277923  0.74440030  1
  O  O393  1  0.88384785  0.74077179  0.24411401  1
  O  O394  1  0.84031207  0.73576812  0.74007787  1
  O  O395  1  0.38099844  0.49461057  0.49301805  1
  O  O396  1  0.37792751  0.49463411  0.99452442  1
  O  O397  1  0.38066718  0.98531544  0.50564170  1
  O  O398  1  0.37772280  0.99246478  1.00028636  1
  O  O399  1  0.88036391  0.49298555  0.49319765  1
  O  O400  1  0.88596560  0.50150828  0.99369692  1
  O  O401  1  0.88222870  1.00934376  0.48997067  1
  O  O402  1  0.86706719  0.99103359  1.00443630  1
  O  O403  1  0.12718905  0.01376228  0.00624075  1
  O  O404  1  0.13509685  0.01520978  0.49676832  1
  O  O405  1  0.11834172  0.50352809  0.00509587  1
  O  O406  1  0.12758374  0.50629035  0.49941806  1
  O  O407  1  0.61626470  0.00850814  0.00714528  1
  O  O408  1  0.61698107  0.00429858  0.51112718  1
  O  O409  1  0.61674420  0.50448116  0.00569505  1
  O  O410  1  0.61351690  0.50909595  0.49034366  1
  O  O411  1  0.37523529  0.36909900  0.11212344  1
  O  O412  1  0.37803866  0.38112635  0.61346558  1
  O  O413  1  0.36897111  0.86231974  0.10998522  1
  O  O414  1  0.36406945  0.87509133  0.62067362  1
  O  O415  1  0.87081863  0.36464917  0.13581748  1
  O  O416  1  0.86712726  0.37146078  0.62158791  1
  O  O417  1  0.87388139  0.87089417  0.11824754  1
  O  O418  1  0.86238385  0.87692206  0.63264892  1
  O  O419  1  0.13224086  0.13387189  0.38293550  1
  O  O420  1  0.12152629  0.11954438  0.88572095  1
  O  O421  1  0.12236431  0.63519917  0.38139377  1
  O  O422  1  0.12949041  0.62374925  0.88062031  1
  O  O423  1  0.63599932  0.12559810  0.38395878  1
  O  O424  1  0.62884173  0.13618726  0.88217470  1
  O  O425  1  0.63623882  0.62064319  0.38111255  1
  O  O426  1  0.62265516  0.62448575  0.88874252  1
