# generated using pymatgen
data_V85Zn86O256
_symmetry_space_group_name_H-M   'P 1'
_cell_length_a   16.90564154
_cell_length_b   16.90740006
_cell_length_c   16.89963629
_cell_angle_alpha   90.01495968
_cell_angle_beta   90.00048539
_cell_angle_gamma   89.90977823
_symmetry_Int_Tables_number   1
_chemical_formula_structural   V85Zn86O256
_chemical_formula_sum   'V85 Zn86 O256'
_cell_volume   4830.42440453
_cell_formula_units_Z   1
loop_
 _symmetry_equiv_pos_site_id
 _symmetry_equiv_pos_as_xyz
  1  'x, y, z'
loop_
 _atom_site_type_symbol
 _atom_site_label
 _atom_site_symmetry_multiplicity
 _atom_site_fract_x
 _atom_site_fract_y
 _atom_site_fract_z
 _atom_site_occupancy
  V  V0  1  -0.00247214  0.62109989  0.62530463  1
  V  V1  1  0.63027780  0.87406078  0.24594119  1
  V  V2  1  0.24505822  0.12493459  0.37517772  1
  V  V3  1  0.50358383  0.74406241  0.24702823  1
  V  V4  1  0.87058070  0.87326103  0.49776662  1
  V  V5  1  0.25019614  0.11739148  0.87860221  1
  V  V6  1  0.38090267  0.74168192  0.12365547  1
  V  V7  1  -0.00748116  0.12271388  0.62779620  1
  V  V8  1  0.62202242  0.27013528  0.87305164  1
  V  V9  1  0.12016839  0.12860282  0.49899399  1
  V  V10  1  0.62680763  0.87663913  0.74933999  1
  V  V11  1  0.37625676  0.38280501  0.49300855  1
  V  V12  1  0.24888827  0.49713454  0.75246332  1
  V  V13  1  0.62454929  0.00318365  0.62049053  1
  V  V14  1  0.75164759  0.62051916  0.87711759  1
  V  V15  1  0.25341941  0.87527674  0.12399356  1
  V  V16  1  0.74750175  0.86944623  0.62121953  1
  V  V17  1  -0.00293492  0.35759223  0.37125644  1
  V  V18  1  0.62540815  -0.00171022  0.11801080  1
  V  V19  1  0.37536313  0.62440634  0.75139769  1
  V  V20  1  0.00129313  0.00601727  -0.00006847  1
  V  V21  1  0.24855836  0.25044919  0.49619697  1
  V  V22  1  0.37975417  0.12140989  0.75456776  1
  V  V23  1  0.75134943  0.25320402  0.01162395  1
  V  V24  1  0.37730655  0.12215961  0.25643395  1
  V  V25  1  0.62231557  0.13049281  0.49427320  1
  V  V26  1  0.87708523  0.00076801  0.37278347  1
  V  V27  1  0.75611999  0.49634116  0.24911875  1
  V  V28  1  0.87199987  0.00741079  0.86916967  1
  V  V29  1  0.50304612  0.25039261  0.25886731  1
  V  V30  1  0.62180426  0.12500253  -0.00624599  1
  V  V31  1  -0.01045015  0.50374031  0.00267246  1
  V  V32  1  -0.00003698  0.13671479  0.12475785  1
  V  V33  1  0.12742310  0.74935452  0.37627044  1
  V  V34  1  0.38148280  0.61684402  0.25845854  1
  V  V35  1  0.74703401  0.13200605  0.37226644  1
  V  V36  1  0.12197043  0.24415430  0.87953385  1
  V  V37  1  0.50010317  0.26525419  0.75268696  1
  V  V38  1  0.12170474  0.37173333  0.75194079  1
  V  V39  1  0.62559992  0.75020523  0.87714512  1
  V  V40  1  0.12172089  0.49731887  0.62552701  1
  V  V41  1  0.61789245  0.62502867  0.00918819  1
  V  V42  1  0.24651340  0.24778082  0.00192556  1
  V  V43  1  -0.00809183  0.24555929  0.75177524  1
  V  V44  1  0.25281816  0.74911606  0.00039086  1
  V  V45  1  0.75565719  0.62516329  0.37962512  1
  V  V46  1  0.49750055  0.89077918  0.87721578  1
  V  V47  1  0.87462478  0.75336834  0.12672876  1
  V  V48  1  0.75000497  0.75426052  0.00630877  1
  V  V49  1  0.63190298  0.75284446  0.38385754  1
  V  V50  1  0.75493694  -0.00244861  0.23987044  1
  V  V51  1  0.50090838  0.49522370  -0.00015286  1
  V  V52  1  0.37974176  0.88683816  -0.00213655  1
  V  V53  1  0.74661434  0.48855153  0.74862950  1
  V  V54  1  0.12578772  0.87529441  0.25051658  1
  V  V55  1  0.62642866  0.49453805  0.12736062  1
  V  V56  1  0.25070716  0.61910071  0.87861770  1
  V  V57  1  0.87979387  0.13780214  0.24350776  1
  V  V58  1  0.00462312  0.74504424  0.24217379  1
  V  V59  1  0.49049527  0.88076638  0.37219076  1
  V  V60  1  0.25534226  -0.00200175  0.25507844  1
  V  V61  1  -0.00247059  0.87405669  0.87643361  1
  V  V62  1  0.12850589  0.87354545  0.74344021  1
  V  V63  1  0.87033884  0.37478447  0.00802802  1
  V  V64  1  0.62993807  0.37011623  0.25510339  1
  V  V65  1  0.86707884  0.25598258  0.62698869  1
  V  V66  1  0.12146068  0.62254859  0.01032631  1
  V  V67  1  0.12735437  0.62303293  0.50031703  1
  V  V68  1  0.87297181  0.61925715  0.75325709  1
  V  V69  1  0.88112949  0.61937780  0.24918610  1
  V  V70  1  0.37773689  0.37247466  -0.00337944  1
  V  V71  1  0.49917229  0.75137425  0.75254606  1
  V  V72  1  0.49833952  0.12289569  0.12074860  1
  V  V73  1  0.12500458  0.00439780  0.12097094  1
  V  V74  1  0.25340601  -0.00233830  0.74397699  1
  V  V75  1  0.12470903  0.74908082  0.87589724  1
  V  V76  1  0.87171986  0.74661786  0.61918439  1
  V  V77  1  0.62626694  0.48349171  0.62463679  1
  V  V78  1  0.74572326  0.26013631  0.49972003  1
  V  V79  1  0.50498396  0.62674528  0.62430237  1
  V  V80  1  -0.00579412  0.49822029  0.48686945  1
  V  V81  1  0.36766631  0.88333854  0.50836374  1
  V  V82  1  0.12469352  0.36009264  0.25447091  1
  V  V83  1  0.25063560  0.49849557  0.25600330  1
  V  V84  1  0.24929885  0.37165003  0.62499199  1
  Zn  Zn85  1  0.49591487  0.38502613  0.36824898  1
  Zn  Zn86  1  0.75219399  0.13303244  0.86718336  1
  Zn  Zn87  1  0.24891419  0.37691798  0.12533752  1
  Zn  Zn88  1  0.38778549  0.49333854  0.87119537  1
  Zn  Zn89  1  -0.00012534  0.87418821  0.37524189  1
  Zn  Zn90  1  -0.00182473  0.74750560  0.75122585  1
  Zn  Zn91  1  -0.00783987  0.38118944  0.87475184  1
  Zn  Zn92  1  0.49705751  0.50972301  0.49165112  1
  Zn  Zn93  1  0.37553200  0.25135070  0.12583025  1
  Zn  Zn94  1  0.12396389  -0.00319633  0.62279358  1
  Zn  Zn95  1  0.49944326  0.12694353  0.62481903  1
  Zn  Zn96  1  0.86886771  0.37961688  0.49550161  1
  Zn  Zn97  1  0.12208957  0.50001718  0.12949358  1
  Zn  Zn98  1  0.25798085  0.62136825  0.38094163  1
  Zn  Zn99  1  0.62993152  0.62752664  0.50199929  1
  Zn  Zn100  1  0.75544827  0.00841899  0.74260037  1
  Zn  Zn101  1  -0.00059968  -0.00100519  0.50107223  1
  Zn  Zn102  1  0.24775899  0.75670029  0.50809017  1
  Zn  Zn103  1  0.49546554  0.00639949  0.49256720  1
  Zn  Zn104  1  0.86965828  0.87798001  0.00407208  1
  Zn  Zn105  1  0.37568763  0.24862261  0.62618192  1
  Zn  Zn106  1  0.36883719  0.75394522  0.62625767  1
  Zn  Zn107  1  0.18723909  0.18515036  0.18519547  1
  Zn  Zn108  1  0.18424992  0.18440799  0.68707411  1
  Zn  Zn109  1  0.19551934  0.68505719  0.19006300  1
  Zn  Zn110  1  0.18816713  0.68858133  0.68734569  1
  Zn  Zn111  1  0.68495450  0.18467615  0.18835410  1
  Zn  Zn112  1  0.68663605  0.18962166  0.68878118  1
  Zn  Zn113  1  0.69132039  0.68372193  0.18907235  1
  Zn  Zn114  1  0.68837941  0.68689394  0.68901643  1
  Zn  Zn115  1  0.31111490  0.30869623  0.31256728  1
  Zn  Zn116  1  0.31299995  0.30952519  0.81624774  1
  Zn  Zn117  1  0.31320523  0.80716923  0.31380682  1
  Zn  Zn118  1  0.31332568  0.81351033  0.81418674  1
  Zn  Zn119  1  0.81349151  0.31509564  0.31250128  1
  Zn  Zn120  1  0.81473387  0.31248084  0.82199425  1
  Zn  Zn121  1  0.81317675  0.81158265  0.30993193  1
  Zn  Zn122  1  0.81296293  0.81153934  0.81080951  1
  Zn  Zn123  1  0.18493991  0.43674505  0.43294829  1
  Zn  Zn124  1  0.18363897  0.43440532  0.93986613  1
  Zn  Zn125  1  0.18596757  0.94148029  0.43695930  1
  Zn  Zn126  1  0.18740013  0.93696842  0.93606185  1
  Zn  Zn127  1  0.68119320  0.44382461  0.43217593  1
  Zn  Zn128  1  0.69283856  0.43940616  0.94014999  1
  Zn  Zn129  1  0.68960986  0.94134986  0.43356528  1
  Zn  Zn130  1  0.68753211  0.93704893  0.93640912  1
  Zn  Zn131  1  0.31202840  0.06597425  0.06506545  1
  Zn  Zn132  1  0.31376043  0.06248067  0.56568647  1
  Zn  Zn133  1  0.31414263  0.55811124  0.06858040  1
  Zn  Zn134  1  0.31173799  0.56441629  0.56822591  1
  Zn  Zn135  1  0.81297558  0.06695656  0.05775892  1
  Zn  Zn136  1  0.81053149  0.06537557  0.56072130  1
  Zn  Zn137  1  0.81239712  0.56639942  0.06889582  1
  Zn  Zn138  1  0.80955924  0.55756720  0.56287777  1
  Zn  Zn139  1  0.44015447  0.43761213  0.18011468  1
  Zn  Zn140  1  0.43543584  0.43997392  0.68035160  1
  Zn  Zn141  1  0.43970681  0.93684464  0.18482344  1
  Zn  Zn142  1  0.44028748  0.94239920  0.68790569  1
  Zn  Zn143  1  0.94164189  0.43460649  0.18524589  1
  Zn  Zn144  1  0.93446324  0.43536312  0.68615946  1
  Zn  Zn145  1  0.94005405  0.93556315  0.18639992  1
  Zn  Zn146  1  0.93902859  0.93492406  0.68846735  1
  Zn  Zn147  1  0.06227860  0.06465196  0.31050818  1
  Zn  Zn148  1  0.06340826  0.06254308  0.81109596  1
  Zn  Zn149  1  0.06617376  0.56097524  0.31156934  1
  Zn  Zn150  1  0.06035961  0.56134699  0.81773882  1
  Zn  Zn151  1  0.56568177  0.06133290  0.30907157  1
  Zn  Zn152  1  0.56742169  0.06600329  0.80703155  1
  Zn  Zn153  1  0.56652117  0.56224975  0.31532030  1
  Zn  Zn154  1  0.56740018  0.56014274  0.81343776  1
  Zn  Zn155  1  0.43268319  0.19028128  0.43672560  1
  Zn  Zn156  1  0.43742127  0.18762857  0.93512619  1
  Zn  Zn157  1  0.44013607  0.69635100  0.43852907  1
  Zn  Zn158  1  0.43863154  0.68751761  0.93663489  1
  Zn  Zn159  1  0.93157027  0.18750410  0.43954934  1
  Zn  Zn160  1  0.93626138  0.18944996  0.94165268  1
  Zn  Zn161  1  0.93996931  0.68726338  0.43424889  1
  Zn  Zn162  1  0.93661427  0.68516955  0.93905020  1
  Zn  Zn163  1  0.06286932  0.32019888  0.06236034  1
  Zn  Zn164  1  0.05900436  0.30971265  0.56125457  1
  Zn  Zn165  1  0.06282174  0.81493551  0.06211038  1
  Zn  Zn166  1  0.05646140  0.81011417  0.56197133  1
  Zn  Zn167  1  0.56260415  0.31197047  0.06716326  1
  Zn  Zn168  1  0.55789907  0.30884756  0.56082899  1
  Zn  Zn169  1  0.56151892  0.81445895  0.06256694  1
  Zn  Zn170  1  0.55621980  0.81482717  0.56092382  1
  O  O171  1  0.11668641  0.11113498  0.13242838  1
  O  O172  1  0.11142037  0.12398309  0.61747411  1
  O  O173  1  0.13028205  0.62871635  0.11263936  1
  O  O174  1  0.11683561  0.61877500  0.61947223  1
  O  O175  1  0.61901286  0.11802930  0.11551081  1
  O  O176  1  0.62441508  0.11766026  0.61443767  1
  O  O177  1  0.63056483  0.61461551  0.11777592  1
  O  O178  1  0.61456927  0.62734477  0.62373019  1
  O  O179  1  0.37232908  0.37133819  0.38981567  1
  O  O180  1  0.36837716  0.37824820  0.88994813  1
  O  O181  1  0.38733757  0.87179019  0.37774272  1
  O  O182  1  0.38545030  0.86996876  0.88553965  1
  O  O183  1  0.89199067  0.37265550  0.37503760  1
  O  O184  1  0.87832708  0.37059562  0.89601010  1
  O  O185  1  0.87417498  0.88137117  0.38092875  1
  O  O186  1  0.88317076  0.88041564  0.87772264  1
  O  O187  1  0.24748797  0.00640609  0.36172270  1
  O  O188  1  0.24286378  0.01254662  0.86798587  1
  O  O189  1  0.24926077  0.50230149  0.36272248  1
  O  O190  1  0.24725903  0.50919791  0.87263564  1
  O  O191  1  0.75992119  0.00931743  0.36427783  1
  O  O192  1  0.76548289  -0.00201389  0.87669105  1
  O  O193  1  0.74546945  0.51098795  0.36074999  1
  O  O194  1  0.74223370  0.51385669  0.86738801  1
  O  O195  1  0.24601128  0.49777130  0.13861386  1
  O  O196  1  0.24149140  0.49301413  0.63267066  1
  O  O197  1  0.24294994  0.99715878  0.13325640  1
  O  O198  1  0.24410212  1.00457776  0.63965888  1
  O  O199  1  0.74279503  0.50476074  0.13873925  1
  O  O200  1  0.73486830  0.50288461  0.63240219  1
  O  O201  1  0.74415561  1.00591587  0.13274622  1
  O  O202  1  0.74148844  0.98987649  0.62126940  1
  O  O203  1  0.01109190  0.37696540  0.26157025  1
  O  O204  1  0.00467473  0.36777577  0.75306999  1
  O  O205  1  0.00905406  0.86608864  0.25194695  1
  O  O206  1  0.00683437  0.87265912  0.76223441  1
  O  O207  1  0.50557937  0.36572551  0.24641058  1
  O  O208  1  0.49082448  0.36412612  0.75098600  1
  O  O209  1  0.50564348  0.86843846  0.25772505  1
  O  O210  1  0.50427905  0.86855605  0.75590870  1
  O  O211  1  0.49399666  0.12928955  0.24732394  1
  O  O212  1  0.49263107  0.13216963  0.74985207  1
  O  O213  1  0.49738094  0.63700074  0.25251929  1
  O  O214  1  0.49705949  0.63254070  0.74745410  1
  O  O215  1  0.98744218  0.12133250  0.24226118  1
  O  O216  1  1.00265909  0.13402573  0.74151853  1
  O  O217  1  0.99450675  0.63242520  0.25470605  1
  O  O218  1  0.99064091  0.62284868  0.74582112  1
  O  O219  1  0.36755605  0.25552382  0.00006708  1
  O  O220  1  0.36541791  0.25811316  0.50461134  1
  O  O221  1  0.37161021  0.75296775  0.00760161  1
  O  O222  1  0.37386889  0.76724030  0.50104338  1
  O  O223  1  0.85773540  0.25291778  -0.00119635  1
  O  O224  1  0.86307896  0.25222836  0.50714970  1
  O  O225  1  0.86796285  0.74832682  0.00907406  1
  O  O226  1  0.87913875  0.75568942  0.51069576  1
  O  O227  1  0.13171060  0.23699421  0.50378095  1
  O  O228  1  0.13204023  0.25602194  0.99015700  1
  O  O229  1  0.12305126  0.74241504  0.49327887  1
  O  O230  1  0.13094824  0.74458514  0.99498568  1
  O  O231  1  0.62984356  0.23899226  0.50285032  1
  O  O232  1  0.62833373  0.24649314  0.99080546  1
  O  O233  1  0.62302953  0.75366879  0.48695152  1
  O  O234  1  0.63081238  0.74279735  1.00000108  1
  O  O235  1  0.50024780  0.23645518  0.13414243  1
  O  O236  1  0.50015252  0.24822017  0.64128062  1
  O  O237  1  0.49322709  0.75534821  0.13503174  1
  O  O238  1  0.49808766  0.74625177  0.63755406  1
  O  O239  1  1.00765374  0.23547838  0.11711487  1
  O  O240  1  0.99235904  0.24365122  0.63282419  1
  O  O241  1  0.99793721  0.75179749  0.13580679  1
  O  O242  1  0.99034358  0.73945162  0.62818006  1
  O  O243  1  0.00062722  0.25874460  0.37831417  1
  O  O244  1  0.00538907  0.24755214  0.86880468  1
  O  O245  1  0.01213608  0.75109293  0.36495630  1
  O  O246  1  0.00476365  0.75763636  0.87593986  1
  O  O247  1  0.49577332  0.25324121  0.36168600  1
  O  O248  1  0.51237389  0.24855616  0.86675871  1
  O  O249  1  0.51051309  0.76197371  0.36617107  1
  O  O250  1  0.50628754  0.75321732  0.86516942  1
  O  O251  1  0.24541533  0.12952832  0.49405304  1
  O  O252  1  0.25525583  0.13256986  0.99051843  1
  O  O253  1  0.23733045  0.62193328  0.50046609  1
  O  O254  1  0.24564606  0.62728361  0.99481615  1
  O  O255  1  0.74320792  0.13218444  0.48976519  1
  O  O256  1  0.74201541  0.13705608  0.99493485  1
  O  O257  1  0.75222490  0.62091521  0.48444592  1
  O  O258  1  0.74349419  0.63179320  0.99424753  1
  O  O259  1  0.25438842  0.36542290  0.00218697  1
  O  O260  1  0.25373498  0.36850882  0.50254671  1
  O  O261  1  0.25742963  0.86805745  0.00276396  1
  O  O262  1  0.26451450  0.87832708  0.49366855  1
  O  O263  1  0.75416151  0.36388299  0.00094423  1
  O  O264  1  0.74663500  0.36331607  0.48761083  1
  O  O265  1  0.74934196  0.85841389  -0.00474317  1
  O  O266  1  0.76132590  0.87828985  0.50463997  1
  O  O267  1  0.13433577  0.49369878  0.24883768  1
  O  O268  1  0.12788609  0.49201244  0.74716437  1
  O  O269  1  0.13172194  0.99338385  0.24366647  1
  O  O270  1  0.13162823  0.99023863  0.74987078  1
  O  O271  1  0.63257374  0.49480254  0.24258172  1
  O  O272  1  0.63165720  0.50401974  0.73578236  1
  O  O273  1  0.63458370  0.99464738  0.24005745  1
  O  O274  1  0.62643709  0.99243832  0.73810262  1
  O  O275  1  0.36630224  0.00725496  0.24337559  1
  O  O276  1  0.36751918  0.00724695  0.74915352  1
  O  O277  1  0.37098768  0.50958826  0.24191671  1
  O  O278  1  0.36854429  0.50526829  0.75254163  1
  O  O279  1  0.86947031  0.00274672  0.25343327  1
  O  O280  1  0.87580700  -0.00536746  0.76545523  1
  O  O281  1  0.87066134  0.50769382  0.24350996  1
  O  O282  1  0.86501312  0.51253277  0.73982851  1
  O  O283  1  0.11515404  0.37554230  0.36338470  1
  O  O284  1  0.12351871  0.36280785  0.86665945  1
  O  O285  1  0.12387377  0.86758656  0.37013015  1
  O  O286  1  0.11785744  0.86858047  0.86888160  1
  O  O287  1  0.62079284  0.37702882  0.35907967  1
  O  O288  1  0.62236413  0.36814549  0.87878005  1
  O  O289  1  0.62119080  0.87140006  0.36425766  1
  O  O290  1  0.61836478  0.86948328  0.87077279  1
  O  O291  1  0.38274991  0.12540034  0.13578687  1
  O  O292  1  0.37659856  0.12824179  0.63842363  1
  O  O293  1  0.37267193  0.63729326  0.13398302  1
  O  O294  1  0.38806901  0.62414807  0.63389180  1
  O  O295  1  0.88268976  0.11944954  0.13633248  1
  O  O296  1  0.88542793  0.13503833  0.61805225  1
  O  O297  1  0.87389806  0.63765690  0.13931536  1
  O  O298  1  0.87618088  0.63104845  0.62858573  1
  O  O299  1  0.25050374  0.24683250  0.11175078  1
  O  O300  1  0.24827075  0.25425100  0.61528062  1
  O  O301  1  0.25916598  0.75647222  0.12073757  1
  O  O302  1  0.25504790  0.74598437  0.62175051  1
  O  O303  1  0.74051760  0.24740466  0.10991033  1
  O  O304  1  0.75579167  0.24686274  0.61470068  1
  O  O305  1  0.75910994  0.74593209  0.11789302  1
  O  O306  1  0.75487215  0.76087140  0.62563839  1
  O  O307  1  0.25127623  0.24106001  0.38769401  1
  O  O308  1  0.24194595  0.24079872  0.88196997  1
  O  O309  1  0.23787998  0.74658880  0.37859579  1
  O  O310  1  0.24622556  0.73848143  0.88046735  1
  O  O311  1  0.75591506  0.23773247  0.38040151  1
  O  O312  1  0.73345467  0.25126114  0.88149460  1
  O  O313  1  0.74146410  0.74188910  0.36645968  1
  O  O314  1  0.74501532  0.74130213  0.88069228  1
  O  O315  1  -0.00458244  0.11330980  0.00769095  1
  O  O316  1  0.00544582  0.12450655  0.50480121  1
  O  O317  1  0.00745463  0.61549882  -0.00245568  1
  O  O318  1  0.00826411  0.61707544  0.50273125  1
  O  O319  1  0.50675835  0.12910426  0.00863620  1
  O  O320  1  0.50635182  0.12598082  0.49900768  1
  O  O321  1  0.51347372  0.62272751  -0.00130050  1
  O  O322  1  0.50203389  0.62936895  0.51041152  1
  O  O323  1  0.48326981  0.37277722  0.49963512  1
  O  O324  1  0.49185856  0.38161081  1.00491321  1
  O  O325  1  0.49203484  0.87837324  0.48606584  1
  O  O326  1  0.49265642  0.87107180  0.98954277  1
  O  O327  1  1.00365696  0.38000701  0.48605062  1
  O  O328  1  0.99438827  0.38693198  0.99780938  1
  O  O329  1  0.98580112  0.87762705  0.49789329  1
  O  O330  1  1.00026637  0.88438265  0.98984631  1
  O  O331  1  0.50243913  0.49859937  0.37921635  1
  O  O332  1  0.50430035  0.50583808  0.89212182  1
  O  O333  1  0.50528134  0.98426626  0.37114298  1
  O  O334  1  0.50504941  0.98948685  0.86998557  1
  O  O335  1  1.00434232  0.49491683  0.38472727  1
  O  O336  1  1.00559162  0.49845508  0.89471361  1
  O  O337  1  0.98724520  0.99896126  0.37350155  1
  O  O338  1  0.99277255  0.99582549  0.88064687  1
  O  O339  1  0.00690356  0.00295986  0.11725142  1
  O  O340  1  -0.00095075  0.00840112  0.62381062  1
  O  O341  1  0.00451047  0.49971689  0.10932586  1
  O  O342  1  0.00535015  0.50309339  0.61811076  1
  O  O343  1  0.51126480  0.01243535  0.13180083  1
  O  O344  1  0.51422202  0.00119936  0.61916476  1
  O  O345  1  0.51155768  0.50245461  0.11234954  1
  O  O346  1  0.51119822  0.50851336  0.62313501  1
  O  O347  1  0.24097296  0.37864272  0.25203713  1
  O  O348  1  0.24342314  0.37673780  0.74631973  1
  O  O349  1  0.24837846  0.88080610  0.24568976  1
  O  O350  1  0.24102260  0.88458636  0.76001075  1
  O  O351  1  0.74457884  0.38326267  0.25307451  1
  O  O352  1  0.75681539  0.38990204  0.75824394  1
  O  O353  1  0.74224584  0.88503396  0.25243239  1
  O  O354  1  0.74439987  0.87818586  0.73980922  1
  O  O355  1  0.25579591  0.11927144  0.25591375  1
  O  O356  1  0.25564394  0.11916308  0.75691297  1
  O  O357  1  0.26174270  0.61711303  0.25475430  1
  O  O358  1  0.25311774  0.61763548  0.75968341  1
  O  O359  1  0.75912211  0.11907616  0.25304457  1
  O  O360  1  0.74337115  0.12026019  0.75518104  1
  O  O361  1  0.76033177  0.61829520  0.25736859  1
  O  O362  1  0.75509560  0.62024148  0.75810150  1
  O  O363  1  0.36391679  0.12636011  0.36433413  1
  O  O364  1  0.36522305  0.12901390  0.86409340  1
  O  O365  1  0.37628554  0.63508923  0.36247554  1
  O  O366  1  0.36687038  0.62128642  0.87057908  1
  O  O367  1  0.87072798  0.11870621  0.36329890  1
  O  O368  1  0.87498971  0.11038907  0.87930817  1
  O  O369  1  0.86895282  0.63288444  0.36176683  1
  O  O370  1  0.86574399  0.63065270  0.86464476  1
  O  O371  1  0.12602805  0.37588131  0.14154087  1
  O  O372  1  0.12853578  0.37700303  0.63173562  1
  O  O373  1  0.13303316  0.88310629  0.12962198  1
  O  O374  1  0.11578168  0.87333829  0.63967081  1
  O  O375  1  0.62271286  0.38684510  0.13456935  1
  O  O376  1  0.62012889  0.38524511  0.62336910  1
  O  O377  1  0.61903214  0.88357675  0.13629525  1
  O  O378  1  0.63120728  0.87954536  0.62506600  1
  O  O379  1  0.13144593  0.26100634  0.25230889  1
  O  O380  1  0.11452615  0.25433571  0.75480454  1
  O  O381  1  0.12265434  0.75260339  0.25473712  1
  O  O382  1  0.12241460  0.75457900  0.75977698  1
  O  O383  1  0.61750097  0.25759884  0.24482037  1
  O  O384  1  0.61351838  0.25086568  0.76315687  1
  O  O385  1  0.62076466  0.75723687  0.25237176  1
  O  O386  1  0.61867186  0.75653282  0.75527024  1
  O  O387  1  0.38096755  0.24087474  0.24684002  1
  O  O388  1  0.38642864  0.24426809  0.75262107  1
  O  O389  1  0.38436591  0.74471487  0.24335995  1
  O  O390  1  0.38330499  0.74367183  0.75152865  1
  O  O391  1  0.87154039  0.23594635  0.24873781  1
  O  O392  1  0.88375810  0.25440707  0.74536615  1
  O  O393  1  0.88573091  0.74623705  0.24488666  1
  O  O394  1  0.87402446  0.73995561  0.73797822  1
  O  O395  1  0.37337751  0.48607264  0.50676089  1
  O  O396  1  0.38464529  0.49375871  1.00097539  1
  O  O397  1  0.37748456  0.98971188  0.50042393  1
  O  O398  1  0.37150174  0.98596327  1.00756919  1
  O  O399  1  0.88798983  0.49578968  0.50690034  1
  O  O400  1  0.88222188  0.49783585  1.00474241  1
  O  O401  1  0.87358764  0.99428828  0.48936845  1
  O  O402  1  0.88216876  0.99635225  0.99210046  1
  O  O403  1  0.11671398  -0.00479735  0.00929822  1
  O  O404  1  0.12232052  0.01180443  0.50238014  1
  O  O405  1  0.11950266  0.50800935  0.00468745  1
  O  O406  1  0.11835523  0.50555674  0.50490117  1
  O  O407  1  0.63216709  0.00673245  0.01072500  1
  O  O408  1  0.62489553  0.01108787  0.50246209  1
  O  O409  1  0.62377588  0.50574304  0.00820826  1
  O  O410  1  0.62417186  0.50438941  0.51406037  1
  O  O411  1  0.37036763  0.37115811  0.11316401  1
  O  O412  1  0.36470176  0.37192980  0.61596485  1
  O  O413  1  0.37214675  0.86560431  0.11908117  1
  O  O414  1  0.38210642  0.87636778  0.61122115  1
  O  O415  1  0.88338012  0.37157238  0.10957019  1
  O  O416  1  0.87969703  0.35980910  0.61796344  1
  O  O417  1  0.87969932  0.86043339  0.12296743  1
  O  O418  1  0.86816303  0.86815401  0.61971528  1
  O  O419  1  0.13617209  0.12120677  0.38041627  1
  O  O420  1  0.13263195  0.13643183  0.86978590  1
  O  O421  1  0.12653038  0.63163869  0.38472524  1
  O  O422  1  0.13235105  0.63063139  0.88361479  1
  O  O423  1  0.63572334  0.11994631  0.37955021  1
  O  O424  1  0.62400659  0.12576091  0.88773361  1
  O  O425  1  0.63531572  0.63713135  0.37530467  1
  O  O426  1  0.63229087  0.63260982  0.88377686  1
