# generated using pymatgen
data_V85Zn86O256
_symmetry_space_group_name_H-M   'P 1'
_cell_length_a   16.95530699
_cell_length_b   16.96436204
_cell_length_c   16.94505264
_cell_angle_alpha   90.08078044
_cell_angle_beta   90.01927143
_cell_angle_gamma   90.02877421
_symmetry_Int_Tables_number   1
_chemical_formula_structural   V85Zn86O256
_chemical_formula_sum   'V85 Zn86 O256'
_cell_volume   4874.00085541
_cell_formula_units_Z   1
loop_
 _symmetry_equiv_pos_site_id
 _symmetry_equiv_pos_as_xyz
  1  'x, y, z'
loop_
 _atom_site_type_symbol
 _atom_site_label
 _atom_site_symmetry_multiplicity
 _atom_site_fract_x
 _atom_site_fract_y
 _atom_site_fract_z
 _atom_site_occupancy
  V  V0  1  0.75112877  0.74741155  0.49759979  1
  V  V1  1  0.62580251  0.12390606  0.50046995  1
  V  V2  1  0.74797888  0.87720712  0.12238128  1
  V  V3  1  0.49817215  0.24989866  0.74982600  1
  V  V4  1  0.62636192  0.74979804  0.86246456  1
  V  V5  1  0.87443980  0.37595930  0.00010077  1
  V  V6  1  0.49961546  0.49925332  0.50489392  1
  V  V7  1  0.63158305  0.49702324  0.62321046  1
  V  V8  1  0.00610005  0.74568880  0.74445363  1
  V  V9  1  0.87511696  0.74882060  0.12485758  1
  V  V10  1  0.49960198  -0.00279116  -0.00222751  1
  V  V11  1  -0.00204472  0.00961711  0.50910903  1
  V  V12  1  0.36833045  0.25342998  0.62363193  1
  V  V13  1  0.62299693  0.62638050  0.50498432  1
  V  V14  1  0.50667072  0.62503348  0.12212231  1
  V  V15  1  0.26142088  -0.00290705  0.26098408  1
  V  V16  1  0.75284225  0.49987540  0.74983950  1
  V  V17  1  0.50153727  0.24658064  0.24636876  1
  V  V18  1  0.87552019  -0.00406658  0.87526881  1
  V  V19  1  0.12520222  -0.00053502  0.13657340  1
  V  V20  1  0.37639364  0.87327802  0.00107549  1
  V  V21  1  0.48399509  0.12964035  0.12493381  1
  V  V22  1  0.47764139  0.83790463  0.82892679  1
  V  V23  1  0.87638716  0.12501377  0.24979774  1
  V  V24  1  0.86926288  0.49801933  0.36618014  1
  V  V25  1  0.74927187  0.12251950  0.37424817  1
  V  V26  1  0.13341677  0.50060825  0.12684278  1
  V  V27  1  0.24824171  0.89182241  0.62712806  1
  V  V28  1  0.00111074  0.13116100  0.12591594  1
  V  V29  1  0.87340773  0.50610508  0.87419815  1
  V  V30  1  0.49634684  -0.00012882  0.49501371  1
  V  V31  1  0.00120489  0.37505429  0.87223765  1
  V  V32  1  0.12230678  0.37427443  0.25637321  1
  V  V33  1  0.32200230  0.17228354  0.30906280  1
  V  V34  1  0.38753342  0.51799893  0.84519760  1
  V  V35  1  0.63064410  0.25241756  0.36701831  1
  V  V36  1  0.30186419  0.70847036  0.55251680  1
  V  V37  1  0.62658164  0.24953121  0.87388966  1
  V  V38  1  0.74435606  -0.00589425  0.75068107  1
  V  V39  1  0.00422856  0.86669391  0.87720552  1
  V  V40  1  0.00097399  0.62188301  0.12498098  1
  V  V41  1  0.37370740  0.74971063  0.12297815  1
  V  V42  1  0.12244356  0.50432873  0.62783880  1
  V  V43  1  0.37691699  0.37651591  -0.00319388  1
  V  V44  1  0.24478853  0.87582981  0.12754125  1
  V  V45  1  0.00252333  0.75145619  0.24957998  1
  V  V46  1  0.12660587  0.25197310  0.87519587  1
  V  V47  1  0.75140982  0.12082643  0.87531833  1
  V  V48  1  0.11078057  0.63104405  0.50195715  1
  V  V49  1  0.36450829  0.88156874  0.50107865  1
  V  V50  1  0.74489232  0.87273521  0.62681345  1
  V  V51  1  0.13411540  0.13695421  0.49596773  1
  V  V52  1  -0.00073210  0.49723382  0.49638549  1
  V  V53  1  0.48938490  0.87649776  0.37574339  1
  V  V54  1  0.62769117  0.61887785  -0.00578003  1
  V  V55  1  0.25701580  0.25076563  0.00396019  1
  V  V56  1  0.50150171  0.49923562  0.00125879  1
  V  V57  1  0.74828617  0.74504725  -0.00499216  1
  V  V58  1  0.87713797  0.62419411  0.74259342  1
  V  V59  1  0.37032174  0.50360335  0.37237535  1
  V  V60  1  0.62437813  0.12510924  0.00381906  1
  V  V61  1  0.88112668  0.24583728  0.62659961  1
  V  V62  1  0.24708836  0.62195118  0.85938447  1
  V  V63  1  0.12707444  0.12527174  0.00080589  1
  V  V64  1  0.12956765  0.75083116  0.37511657  1
  V  V65  1  0.87472283  0.37781959  0.50644928  1
  V  V66  1  0.00113602  -0.00281264  0.00264930  1
  V  V67  1  0.49934768  0.12312178  0.62577550  1
  V  V68  1  0.49426678  0.75377319  0.24955026  1
  V  V69  1  0.75230242  0.25130999  -0.00104238  1
  V  V70  1  0.24286853  0.74736081  -0.00632729  1
  V  V71  1  0.13241263  0.37782491  0.74863968  1
  V  V72  1  0.87694542  0.87345992  0.49943125  1
  V  V73  1  0.74636235  0.25575279  0.51091660  1
  V  V74  1  0.25911110  0.38002152  0.12612410  1
  V  V75  1  0.63227310  0.37110042  0.74335274  1
  V  V76  1  0.62288141  0.87871371  0.25117169  1
  V  V77  1  0.24866300  0.12230933  0.86602600  1
  V  V78  1  0.74558481  0.37420224  0.14417303  1
  V  V79  1  0.50807629  0.37640344  0.37393771  1
  V  V80  1  0.00351680  0.87558958  0.37247169  1
  V  V81  1  0.12533972  0.88497020  0.75226821  1
  V  V82  1  0.62086995  0.75398771  0.37885552  1
  V  V83  1  0.36801221  0.61771050  0.24819356  1
  V  V84  1  0.37355510  0.00101836  0.86751100  1
  Zn  Zn85  1  0.00316246  0.50142260  -0.00020876  1
  Zn  Zn86  1  0.74348716  0.62216940  0.36461528  1
  Zn  Zn87  1  0.24971178  0.25287697  0.47968448  1
  Zn  Zn88  1  0.24811239  0.62478367  0.37083412  1
  Zn  Zn89  1  0.50184547  0.37343372  0.87650987  1
  Zn  Zn90  1  0.87993957  0.11747782  0.74154761  1
  Zn  Zn91  1  0.87380301  0.87160671  0.00008303  1
  Zn  Zn92  1  0.74949937  -0.00093244  0.25001699  1
  Zn  Zn93  1  0.68431981  0.52892566  0.20331595  1
  Zn  Zn94  1  0.87481345  -0.00202558  0.37358509  1
  Zn  Zn95  1  0.87991809  0.25101523  0.12126048  1
  Zn  Zn96  1  0.88009096  0.74403640  0.62037547  1
  Zn  Zn97  1  0.62296303  0.00163002  0.12508240  1
  Zn  Zn98  1  0.36921698  0.12146001  0.74583335  1
  Zn  Zn99  1  0.86285167  0.61975603  0.24457259  1
  Zn  Zn100  1  0.62098420  -0.00472271  0.63012564  1
  Zn  Zn101  1  0.12646492  0.62546364  -0.00330415  1
  Zn  Zn102  1  0.00377756  0.24481865  0.74422432  1
  Zn  Zn103  1  0.24886167  0.37514637  0.62197572  1
  Zn  Zn104  1  0.37253725  0.37354755  0.49881566  1
  Zn  Zn105  1  0.12035783  0.01212012  0.63058628  1
  Zn  Zn106  1  0.01859039  0.24531881  0.27959929  1
  Zn  Zn107  1  0.18729509  0.19280754  0.18465405  1
  Zn  Zn108  1  0.18005498  0.18698563  0.68389518  1
  Zn  Zn109  1  0.18541971  0.68897220  0.18711748  1
  Zn  Zn110  1  0.17747632  0.69038907  0.68789874  1
  Zn  Zn111  1  0.69104463  0.19029729  0.18566669  1
  Zn  Zn112  1  0.69051792  0.18090875  0.68896497  1
  Zn  Zn113  1  0.68383449  0.69960082  0.18496535  1
  Zn  Zn114  1  0.69257506  0.68183388  0.68271954  1
  Zn  Zn115  1  0.32026283  0.33597339  0.30205785  1
  Zn  Zn116  1  0.31496796  0.31537895  0.81438556  1
  Zn  Zn117  1  0.31127614  0.81425813  0.31101614  1
  Zn  Zn118  1  0.29912608  0.81534994  0.81592250  1
  Zn  Zn119  1  0.84337994  0.30204306  0.32326272  1
  Zn  Zn120  1  0.81235953  0.31552752  0.81163718  1
  Zn  Zn121  1  0.81348885  0.81023193  0.31169042  1
  Zn  Zn122  1  0.81397294  0.80996346  0.81148838  1
  Zn  Zn123  1  0.18821403  0.43782400  0.44004300  1
  Zn  Zn124  1  0.19228046  0.44601168  0.93625245  1
  Zn  Zn125  1  0.18013471  0.94133478  0.43940379  1
  Zn  Zn126  1  0.18612296  0.93907374  0.93885697  1
  Zn  Zn127  1  0.69172919  0.43617079  0.43398715  1
  Zn  Zn128  1  0.68962876  0.43686862  0.93382801  1
  Zn  Zn129  1  0.68465647  0.93815001  0.44068545  1
  Zn  Zn130  1  0.67907264  0.92815236  0.93250999  1
  Zn  Zn131  1  0.30922187  0.05975872  0.05986518  1
  Zn  Zn132  1  0.31168384  0.06638610  0.55668236  1
  Zn  Zn133  1  0.31825578  0.56276547  0.05535660  1
  Zn  Zn134  1  0.30507398  0.54606945  0.55874187  1
  Zn  Zn135  1  0.81387639  0.05932981  0.06114305  1
  Zn  Zn136  1  0.81231774  0.06166910  0.56198370  1
  Zn  Zn137  1  0.81206590  0.55876815  0.06295335  1
  Zn  Zn138  1  0.81171835  0.56214905  0.56283651  1
  Zn  Zn139  1  0.49274303  0.45712988  0.20913480  1
  Zn  Zn140  1  0.44278859  0.43965407  0.68804755  1
  Zn  Zn141  1  0.43507632  0.94274192  0.18429359  1
  Zn  Zn142  1  0.43513081  0.93079790  0.68136611  1
  Zn  Zn143  1  0.94181613  0.43429380  0.18527269  1
  Zn  Zn144  1  0.94282365  0.43445011  0.68350384  1
  Zn  Zn145  1  0.93565840  0.93746721  0.18877680  1
  Zn  Zn146  1  0.93305978  0.93174041  0.68819697  1
  Zn  Zn147  1  0.06324065  0.06026005  0.31686266  1
  Zn  Zn148  1  0.05720643  0.06404833  0.81375456  1
  Zn  Zn149  1  0.06054595  0.56008048  0.31154297  1
  Zn  Zn150  1  0.06409197  0.56240782  0.81385363  1
  Zn  Zn151  1  0.55863558  0.06368991  0.31196546  1
  Zn  Zn152  1  0.56112338  0.06059199  0.81412574  1
  Zn  Zn153  1  0.55113395  0.57431129  0.32302216  1
  Zn  Zn154  1  0.56688277  0.56178417  0.81548459  1
  Zn  Zn155  1  0.44253750  0.19227923  0.44216151  1
  Zn  Zn156  1  0.43625063  0.18738075  0.93721058  1
  Zn  Zn157  1  0.47404513  0.66037891  0.60174361  1
  Zn  Zn158  1  0.43477958  0.67989734  0.77856943  1
  Zn  Zn159  1  0.93458627  0.18768687  0.43908163  1
  Zn  Zn160  1  0.93957854  0.18536292  0.93334276  1
  Zn  Zn161  1  0.93443687  0.68283288  0.42949249  1
  Zn  Zn162  1  0.93739540  0.68601802  0.93700512  1
  Zn  Zn163  1  0.06681052  0.31667972  0.06211975  1
  Zn  Zn164  1  0.06102940  0.31587193  0.55800298  1
  Zn  Zn165  1  0.06413279  0.81266983  0.06478417  1
  Zn  Zn166  1  0.06543728  0.81649891  0.56347542  1
  Zn  Zn167  1  0.56590388  0.31427423  0.06700857  1
  Zn  Zn168  1  0.56135053  0.31212769  0.56243765  1
  Zn  Zn169  1  0.56362023  0.80981280  0.05749851  1
  Zn  Zn170  1  0.55548676  0.81125904  0.57288651  1
  O  O171  1  0.11968136  0.11894084  0.12115453  1
  O  O172  1  0.12260303  0.12528041  0.60707560  1
  O  O173  1  0.11938731  0.61801655  0.12362931  1
  O  O174  1  0.12597461  0.61904842  0.61364819  1
  O  O175  1  0.62361466  0.12433215  0.11270963  1
  O  O176  1  0.61279228  0.12433148  0.62071432  1
  O  O177  1  0.61429124  0.62836688  0.12097878  1
  O  O178  1  0.62705645  0.61494976  0.61497034  1
  O  O179  1  0.38989814  0.38528809  0.37630775  1
  O  O180  1  0.38019885  0.37773240  0.88665259  1
  O  O181  1  0.38338936  0.87280680  0.38124157  1
  O  O182  1  0.38390571  0.88319990  0.88381104  1
  O  O183  1  0.86452282  0.39339898  0.39093484  1
  O  O184  1  0.88313885  0.38192409  0.87922497  1
  O  O185  1  0.88166285  0.87410117  0.38447512  1
  O  O186  1  0.88125877  0.88261244  0.87731586  1
  O  O187  1  0.24351039  -0.00510496  0.35908041  1
  O  O188  1  0.26044097  0.01062926  0.88451790  1
  O  O189  1  0.26656148  0.50275612  0.38079592  1
  O  O190  1  0.26393297  0.51682945  0.87712192  1
  O  O191  1  0.74822833  0.01183063  0.37606264  1
  O  O192  1  0.75488474  -0.00343277  0.87062594  1
  O  O193  1  0.76278010  0.50592903  0.37839686  1
  O  O194  1  0.76255998  0.49514994  0.86422683  1
  O  O195  1  0.24444489  0.49398099  0.11632808  1
  O  O196  1  0.22947159  0.49301407  0.61980954  1
  O  O197  1  0.24348483  0.99468359  0.13130500  1
  O  O198  1  0.24681491  0.99506307  0.62484910  1
  O  O199  1  0.75516688  0.48202957  0.12851485  1
  O  O200  1  0.73838487  0.49909902  0.62925912  1
  O  O201  1  0.74634527  0.98735543  0.12390732  1
  O  O202  1  0.75085467  0.99255562  0.63350590  1
  O  O203  1  0.01864656  0.36850076  0.23851436  1
  O  O204  1  0.00653222  0.36909637  0.75881592  1
  O  O205  1  -0.00691217  0.86623553  0.26059945  1
  O  O206  1  0.00273983  0.86657191  0.75759596  1
  O  O207  1  0.49424363  0.35533134  0.26003096  1
  O  O208  1  0.51023207  0.36159618  0.75018488  1
  O  O209  1  0.50241651  0.87630869  0.25545313  1
  O  O210  1  0.51377933  0.89812496  0.75816981  1
  O  O211  1  0.50449515  0.13436863  0.23960819  1
  O  O212  1  0.50042042  0.13373604  0.74282630  1
  O  O213  1  0.48996052  0.63700894  0.24200889  1
  O  O214  1  0.46838855  0.57578964  0.76212081  1
  O  O215  1  0.99540828  0.12778295  0.24462545  1
  O  O216  1  0.98869421  0.13476267  0.76448799  1
  O  O217  1  0.99796938  0.63141217  0.23777853  1
  O  O218  1  0.99671660  0.64005754  0.75669749  1
  O  O219  1  0.36738612  0.25994795  -0.00531797  1
  O  O220  1  0.37291068  0.25129793  0.50963240  1
  O  O221  1  0.36410344  0.76613327  0.00634894  1
  O  O222  1  0.36579148  0.76323827  0.49755614  1
  O  O223  1  0.86965662  0.25636765  -0.00173126  1
  O  O224  1  0.86547008  0.25680530  0.51174976  1
  O  O225  1  0.86562836  0.74924432  0.00562981  1
  O  O226  1  0.86834283  0.75393491  0.49813016  1
  O  O227  1  0.12719746  0.24189412  0.49990499  1
  O  O228  1  0.13321168  0.24571024  0.99371921  1
  O  O229  1  0.11495271  0.74230629  0.48995648  1
  O  O230  1  0.13959826  0.75031813  1.00502533  1
  O  O231  1  0.63046319  0.24490607  0.49245033  1
  O  O232  1  0.63114869  0.24349729  0.99427200  1
  O  O233  1  0.62960518  0.74381311  0.49910811  1
  O  O234  1  0.63075112  0.73941903  0.99308829  1
  O  O235  1  0.50575812  0.24248851  0.13471555  1
  O  O236  1  0.49258047  0.24252233  0.63043803  1
  O  O237  1  0.49335572  0.74476175  0.12703933  1
  O  O238  1  0.50754221  0.75015579  0.64980615  1
  O  O239  1  1.00245153  0.23590715  0.11901383  1
  O  O240  1  0.98386279  0.25376668  0.62327777  1
  O  O241  1  0.99600668  0.74612531  0.13147891  1
  O  O242  1  0.99720435  0.75776283  0.64088913  1
  O  O243  1  -0.04968828  0.26510783  0.36353684  1
  O  O244  1  0.00764867  0.26348779  0.88016087  1
  O  O245  1  0.00422307  0.75458797  0.36684356  1
  O  O246  1  -0.00680180  0.76163537  0.86720766  1
  O  O247  1  0.51130964  0.25621001  0.37168501  1
  O  O248  1  0.50790808  0.24789842  0.86595927  1
  O  O249  1  0.50681792  0.76470251  0.36649456  1
  O  O250  1  0.51542264  0.73899965  0.85736806  1
  O  O251  1  0.23891390  0.13080074  0.49448892  1
  O  O252  1  0.24575938  0.13360015  0.99509912  1
  O  O253  1  0.24536101  0.63724419  0.49761426  1
  O  O254  1  0.25200683  0.63619586  0.99547585  1
  O  O255  1  0.74453250  0.13070529  0.49358952  1
  O  O256  1  0.74354405  0.12950741  0.99640843  1
  O  O257  1  0.74337348  0.63486810  0.50036707  1
  O  O258  1  0.73893361  0.63225480  1.01002389  1
  O  O259  1  0.25770419  0.36949386  0.00005064  1
  O  O260  1  0.25278329  0.36786075  0.50126985  1
  O  O261  1  0.25607242  0.87199999  0.00581301  1
  O  O262  1  0.25555740  0.88444703  0.50698637  1
  O  O263  1  0.76166981  0.36897185  -0.00256005  1
  O  O264  1  0.75533737  0.36381247  0.49841452  1
  O  O265  1  0.74669182  0.86655440  0.00747807  1
  O  O266  1  0.75800214  0.86716456  0.50111404  1
  O  O267  1  0.11999133  0.49282103  0.23532483  1
  O  O268  1  0.11488396  0.49162387  0.73932821  1
  O  O269  1  0.13331054  1.00685616  0.23991472  1
  O  O270  1  0.11530926  0.98953222  0.74795120  1
  O  O271  1  0.59251933  0.49727584  0.25290655  1
  O  O272  1  0.63355869  0.49315025  0.74364812  1
  O  O273  1  0.62416068  0.98934251  0.24756407  1
  O  O274  1  0.64021408  1.00631079  0.75042822  1
  O  O275  1  0.36099068  0.00185431  0.24942629  1
  O  O276  1  0.37982382  0.00041496  0.76426074  1
  O  O277  1  0.39198922  0.50801632  0.25921886  1
  O  O278  1  0.36097534  0.46979994  0.76184614  1
  O  O279  1  0.87116299  0.00988532  0.25149166  1
  O  O280  1  0.86642958  -0.00244375  0.75894849  1
  O  O281  1  0.88127272  0.49643870  0.26360101  1
  O  O282  1  0.87299376  0.50287857  0.75272988  1
  O  O283  1  0.12935994  0.38737598  0.35494371  1
  O  O284  1  0.11933553  0.37554667  0.87023027  1
  O  O285  1  0.11064425  0.86688520  0.38207736  1
  O  O286  1  0.11553430  0.88028339  0.86819276  1
  O  O287  1  0.61676314  0.36710731  0.37830733  1
  O  O288  1  0.62501367  0.36702673  0.86267137  1
  O  O289  1  0.61696365  0.87335748  0.36905704  1
  O  O290  1  0.60693519  0.85256133  0.88100654  1
  O  O291  1  0.38505787  0.12519283  0.11613162  1
  O  O292  1  0.38484865  0.12981506  0.62622064  1
  O  O293  1  0.38604382  0.62975449  0.12713348  1
  O  O294  1  0.35798502  0.64027318  0.60817551  1
  O  O295  1  0.88643615  0.12043316  0.12873289  1
  O  O296  1  0.86897920  0.14113234  0.62414431  1
  O  O297  1  0.88226104  0.62971504  0.12568031  1
  O  O298  1  0.87599426  0.62410112  0.63783751  1
  O  O299  1  0.24649430  0.26055042  0.11055836  1
  O  O300  1  0.26389357  0.24841353  0.63050780  1
  O  O301  1  0.25417791  0.75926216  0.12132973  1
  O  O302  1  0.24353055  0.76128338  0.61846162  1
  O  O303  1  0.75391769  0.25794038  0.11342300  1
  O  O304  1  0.75244003  0.24586464  0.61461467  1
  O  O305  1  0.75325763  0.76070301  0.11545220  1
  O  O306  1  0.75410245  0.75515506  0.61378071  1
  O  O307  1  0.26837874  0.24303607  0.36124573  1
  O  O308  1  0.24562834  0.24297593  0.88363265  1
  O  O309  1  0.23249374  0.75147253  0.36585537  1
  O  O310  1  0.25310790  0.73717013  0.88355661  1
  O  O311  1  0.74638855  0.23936418  0.38277634  1
  O  O312  1  0.74707847  0.24329015  0.88028644  1
  O  O313  1  0.74171810  0.74989909  0.38374578  1
  O  O314  1  0.74356844  0.75669097  0.88870672  1
  O  O315  1  0.00587879  0.11709338  0.00640021  1
  O  O316  1  -0.00867200  0.11088004  0.50064070  1
  O  O317  1  0.00341411  0.62740554  0.01178056  1
  O  O318  1  0.00606616  0.62016695  0.49782238  1
  O  O319  1  0.50696333  0.12206309  0.00636019  1
  O  O320  1  0.50475488  0.11804064  0.50660765  1
  O  O321  1  0.51353213  0.61708333  0.00772907  1
  O  O322  1  0.50971744  0.61291637  0.50461490  1
  O  O323  1  0.50012916  0.37996056  0.49093105  1
  O  O324  1  0.49538427  0.38079469  1.00291669  1
  O  O325  1  0.49149783  0.88160818  0.49486814  1
  O  O326  1  0.49021767  0.88459773  1.00787983  1
  O  O327  1  0.98927146  0.38508878  0.49918564  1
  O  O328  1  0.98895983  0.37585901  0.99457346  1
  O  O329  1  0.99201435  0.88090441  0.49479420  1
  O  O330  1  1.00002355  0.87833561  0.99397398  1
  O  O331  1  0.49546509  0.49347571  0.38928634  1
  O  O332  1  0.49596968  0.49391524  0.88678004  1
  O  O333  1  0.50554071  0.99207803  0.38661436  1
  O  O334  1  0.49032391  1.00962517  0.89015001  1
  O  O335  1  0.98496895  0.50823096  0.38656423  1
  O  O336  1  0.99410117  0.48948423  0.87705868  1
  O  O337  1  0.99721535  0.98993040  0.38433600  1
  O  O338  1  0.99172780  0.98937685  0.88156508  1
  O  O339  1  0.00831562  0.00598387  0.12391881  1
  O  O340  1  -0.00377200  -0.00656513  0.61171881  1
  O  O341  1  0.00610650  0.50838150  0.12160828  1
  O  O342  1  0.00999946  0.49711972  0.61091646  1
  O  O343  1  0.50094035  0.00977770  0.11411345  1
  O  O344  1  0.50012688  0.00677493  0.61569452  1
  O  O345  1  0.49433963  0.51117302  0.10953125  1
  O  O346  1  0.51296293  0.49197952  0.61346756  1
  O  O347  1  0.24115558  0.37729901  0.23437770  1
  O  O348  1  0.23457855  0.36814937  0.75023650  1
  O  O349  1  0.25297789  0.88729421  0.24056845  1
  O  O350  1  0.23598090  0.87307694  0.74202958  1
  O  O351  1  0.76261194  0.36177966  0.24081514  1
  O  O352  1  0.74374671  0.38607199  0.75074472  1
  O  O353  1  0.74080602  0.87471300  0.24319729  1
  O  O354  1  0.75675102  0.88050293  0.73889366  1
  O  O355  1  0.25389282  0.11799288  0.24816356  1
  O  O356  1  0.24805529  0.12886158  0.76280095  1
  O  O357  1  0.26396218  0.62728312  0.24588273  1
  O  O358  1  0.24616241  0.63367456  0.76001852  1
  O  O359  1  0.75341140  0.12077718  0.25671849  1
  O  O360  1  0.75735467  0.11511029  0.75865454  1
  O  O361  1  0.74278425  0.62290705  0.24491092  1
  O  O362  1  0.76075135  0.60940419  0.74628277  1
  O  O363  1  0.37971779  0.12269033  0.37306044  1
  O  O364  1  0.36602110  0.11806604  0.87391897  1
  O  O365  1  0.37327061  0.61695354  0.36132487  1
  O  O366  1  0.36355748  0.62214083  0.86635091  1
  O  O367  1  0.86468154  0.11957516  0.36725518  1
  O  O368  1  0.86773943  0.10831733  0.88179915  1
  O  O369  1  0.86696579  0.61393738  0.36758509  1
  O  O370  1  0.88238827  0.61171638  0.86476224  1
  O  O371  1  0.13654089  0.38361731  0.12599420  1
  O  O372  1  0.12254652  0.37987232  0.63364555  1
  O  O373  1  0.13664728  0.88419905  0.12195615  1
  O  O374  1  0.13096003  0.88201415  0.63254695  1
  O  O375  1  0.64535036  0.36866427  0.12961630  1
  O  O376  1  0.62349190  0.37905217  0.63579621  1
  O  O377  1  0.63049903  0.87462519  0.13235910  1
  O  O378  1  0.64190486  0.87918357  0.61286663  1
  O  O379  1  0.12736672  0.26521991  0.24877221  1
  O  O380  1  0.12248080  0.25730686  0.75773324  1
  O  O381  1  0.11020317  0.74597970  0.25649789  1
  O  O382  1  0.11009076  0.76117306  0.75022552  1
  O  O383  1  0.62039509  0.24481004  0.26202711  1
  O  O384  1  0.62250904  0.25423265  0.75196479  1
  O  O385  1  0.61597723  0.76402362  0.25495181  1
  O  O386  1  0.64726678  0.74488360  0.76576364  1
  O  O387  1  0.38144320  0.23972601  0.25512009  1
  O  O388  1  0.38466344  0.24765060  0.74556892  1
  O  O389  1  0.37787397  0.74570423  0.24228896  1
  O  O390  1  0.39878105  0.78480175  0.77123642  1
  O  O391  1  0.86626342  0.22934955  0.23544356  1
  O  O392  1  0.86968806  0.25479861  0.73263153  1
  O  O393  1  0.88347760  0.74594286  0.24317833  1
  O  O394  1  0.88315249  0.74062806  0.74888758  1
  O  O395  1  0.38519520  0.49842052  0.49357409  1
  O  O396  1  0.38627503  0.49523163  0.98848079  1
  O  O397  1  0.38296367  0.99240514  0.50108663  1
  O  O398  1  0.37919200  0.99065218  0.99453601  1
  O  O399  1  0.88007638  0.49560795  0.49876995  1
  O  O400  1  0.87632820  0.49325279  0.99033584  1
  O  O401  1  0.88206199  0.99146931  0.49785574  1
  O  O402  1  0.88226184  0.99360343  0.99388367  1
  O  O403  1  0.12054482  0.00604790  0.01158788  1
  O  O404  1  0.10945603  0.00836136  0.50372234  1
  O  O405  1  0.12264187  0.50147277  0.01154501  1
  O  O406  1  0.11584507  0.50895011  0.50075225  1
  O  O407  1  0.61620302  0.00616781  -0.00163370  1
  O  O408  1  0.61628216  0.00787705  0.50376637  1
  O  O409  1  0.61898664  0.50718047  -0.00848063  1
  O  O410  1  0.62307608  0.50478455  0.50528181  1
  O  O411  1  0.36225956  0.38224229  0.10951909  1
  O  O412  1  0.37549011  0.36634784  0.62271748  1
  O  O413  1  0.36420977  0.87411711  0.11881834  1
  O  O414  1  0.36162330  0.87757552  0.61479058  1
  O  O415  1  0.86975768  0.37286096  0.11470143  1
  O  O416  1  0.87424724  0.36766631  0.61418239  1
  O  O417  1  0.86563532  0.86811643  0.12378030  1
  O  O418  1  0.86599231  0.87092401  0.61194156  1
  O  O419  1  0.11002076  0.12616600  0.39690119  1
  O  O420  1  0.13194157  0.12781302  0.88285007  1
  O  O421  1  0.12670392  0.63086732  0.38209892  1
  O  O422  1  0.14049880  0.61732555  0.87915422  1
  O  O423  1  0.63002135  0.13246448  0.37970956  1
  O  O424  1  0.63077279  0.12873614  0.88549274  1
  O  O425  1  0.62398057  0.63423057  0.38910770  1
  O  O426  1  0.62703070  0.63347030  0.88409905  1
