# generated using pymatgen
data_V85Zn86O256
_symmetry_space_group_name_H-M   'P 1'
_cell_length_a   16.92597533
_cell_length_b   16.92093741
_cell_length_c   16.92353051
_cell_angle_alpha   90.07272501
_cell_angle_beta   90.01003125
_cell_angle_gamma   90.03739675
_symmetry_Int_Tables_number   1
_chemical_formula_structural   V85Zn86O256
_chemical_formula_sum   'V85 Zn86 O256'
_cell_volume   4846.95114602
_cell_formula_units_Z   1
loop_
 _symmetry_equiv_pos_site_id
 _symmetry_equiv_pos_as_xyz
  1  'x, y, z'
loop_
 _atom_site_type_symbol
 _atom_site_label
 _atom_site_symmetry_multiplicity
 _atom_site_fract_x
 _atom_site_fract_y
 _atom_site_fract_z
 _atom_site_occupancy
  V  V0  1  0.00411376  0.75659551  0.75258681  1
  V  V1  1  0.49450113  0.62540028  0.62732136  1
  V  V2  1  0.49902895  0.24800817  0.25028264  1
  V  V3  1  0.49692483  0.37137347  0.37790028  1
  V  V4  1  0.37607517  0.74386658  0.12638929  1
  V  V5  1  0.13123743  0.37304451  0.74377424  1
  V  V6  1  0.62943902  0.62730129  -0.00242947  1
  V  V7  1  0.62736212  0.12353981  0.00103870  1
  V  V8  1  0.13407644  0.49607217  0.62107378  1
  V  V9  1  0.11482058  0.62229521  -0.00388364  1
  V  V10  1  0.24886332  0.24709810  -0.00333944  1
  V  V11  1  0.11533954  0.50099776  0.12082826  1
  V  V12  1  0.75340360  0.12305821  0.86508061  1
  V  V13  1  0.37900230  0.87450277  0.00134360  1
  V  V14  1  0.24886894  0.62323839  0.87059140  1
  V  V15  1  0.12359021  0.37615660  0.25015421  1
  V  V16  1  0.25079156  0.51096261  0.24968960  1
  V  V17  1  0.49539042  0.12362169  0.62797991  1
  V  V18  1  -0.00449029  0.37256671  0.38321742  1
  V  V19  1  0.64177289  -0.00962962  0.13253962  1
  V  V20  1  0.87732549  0.62715323  0.24794226  1
  V  V21  1  0.62661042  0.62504552  0.50364036  1
  V  V22  1  -0.00439563  0.50135226  0.50872398  1
  V  V23  1  0.37351403  0.49305659  0.37402000  1
  V  V24  1  0.12103611  0.11987483  -0.00284643  1
  V  V25  1  0.49862877  0.49186216  0.50272424  1
  V  V26  1  0.37503913  0.24714855  0.12436413  1
  V  V27  1  0.24746187  0.74758186  0.00070562  1
  V  V28  1  0.74986431  0.62580520  0.37645795  1
  V  V29  1  0.88125586  0.75042518  0.62468540  1
  V  V30  1  0.25823688  0.87994601  0.64097917  1
  V  V31  1  0.11946036  -0.00247044  0.12173243  1
  V  V32  1  0.88063528  0.38023263  0.00778466  1
  V  V33  1  0.11882611  0.62744518  0.50287758  1
  V  V34  1  -0.00409772  0.12815547  0.12008384  1
  V  V35  1  0.49858717  0.11733915  0.12342705  1
  V  V36  1  -0.00125032  0.11886593  0.61794622  1
  V  V37  1  -0.00718236  0.25087016  0.24660965  1
  V  V38  1  0.74940989  0.11304837  0.37411408  1
  V  V39  1  0.12694547  0.24716338  0.87321346  1
  V  V40  1  0.62283577  0.12294938  0.50058851  1
  V  V41  1  0.37278145  0.87905564  0.48753287  1
  V  V42  1  0.50177743  0.62963030  0.12298503  1
  V  V43  1  0.25399652  0.12011166  0.37881560  1
  V  V44  1  0.25166254  0.26164285  0.50029089  1
  V  V45  1  0.43258154  0.68322496  0.30061330  1
  V  V46  1  -0.00596957  0.24382193  0.75019128  1
  V  V47  1  0.24880529  0.75371669  0.50760125  1
  V  V48  1  0.88909770  0.87835108  0.49697194  1
  V  V49  1  0.62371643  -0.00830123  0.63088815  1
  V  V50  1  0.12474354  0.24759841  0.37588846  1
  V  V51  1  0.37663619  0.37557927  -0.00046540  1
  V  V52  1  0.75542091  0.37934898  0.62766576  1
  V  V53  1  0.25461497  0.00102077  0.24693111  1
  V  V54  1  0.89154139  -0.00411833  0.37615787  1
  V  V55  1  0.75134046  0.75555053  0.49827429  1
  V  V56  1  0.86986398  0.12144194  0.24665405  1
  V  V57  1  0.37076576  0.26245937  0.62120390  1
  V  V58  1  0.75292569  0.75904691  0.00333965  1
  V  V59  1  0.87298174  0.49518143  0.38169349  1
  V  V60  1  0.87325489  0.24403204  0.62644481  1
  V  V61  1  0.62443445  0.37239441  0.24927198  1
  V  V62  1  0.75475694  0.25292151  0.49934822  1
  V  V63  1  0.62533636  0.24763122  0.37619270  1
  V  V64  1  0.88417069  0.88488226  0.00432437  1
  V  V65  1  0.50394204  0.87741083  0.87000008  1
  V  V66  1  0.75026367  0.49821353  0.25107935  1
  V  V67  1  0.37406068  0.12189148  0.25057781  1
  V  V68  1  0.35807796  0.12379656  0.75234258  1
  V  V69  1  0.11596249  0.87698098  0.25768882  1
  V  V70  1  0.25016602  0.37708652  0.12741703  1
  V  V71  1  0.88429876  0.00279478  0.86535899  1
  V  V72  1  -0.00028110  0.38276057  0.87474490  1
  V  V73  1  0.75231586  0.61896487  0.86798039  1
  V  V74  1  0.12332101  -0.00877268  0.63180825  1
  V  V75  1  0.75764140  0.24894636  0.00644066  1
  V  V76  1  0.37549685  0.49961666  0.87255952  1
  V  V77  1  0.63007854  0.38228295  0.75209969  1
  V  V78  1  0.62634471  0.24993993  0.87365580  1
  V  V79  1  0.49542093  0.75253300  0.74620669  1
  V  V80  1  0.87984545  0.61658414  0.74270637  1
  V  V81  1  0.49493297  -0.00291311  0.48791249  1
  V  V82  1  0.63144865  0.75646375  0.86353874  1
  V  V83  1  0.62693214  0.49902848  0.12333231  1
  V  V84  1  0.62604605  0.86485230  0.26224395  1
  Zn  Zn85  1  0.12320069  0.11895906  0.49929113  1
  Zn  Zn86  1  0.01135650  0.88534782  0.87502745  1
  Zn  Zn87  1  0.24770781  0.63088599  0.37603635  1
  Zn  Zn88  1  0.62998164  0.50094587  0.63032692  1
  Zn  Zn89  1  0.49881943  0.25121204  0.74963214  1
  Zn  Zn90  1  0.50560471  -0.00272140  -0.00211057  1
  Zn  Zn91  1  0.74517817  -0.01114682  0.75388397  1
  Zn  Zn92  1  0.24711239  0.87133532  0.12592225  1
  Zn  Zn93  1  0.74933164  0.87306143  0.63020397  1
  Zn  Zn94  1  0.50226301  0.37578157  0.87447795  1
  Zn  Zn95  1  0.87582318  0.49995482  0.87423280  1
  Zn  Zn96  1  0.75418930  0.36873239  0.12759795  1
  Zn  Zn97  1  0.11675755  0.75628332  0.38159757  1
  Zn  Zn98  1  0.36879109  0.00041624  0.86373872  1
  Zn  Zn99  1  0.37120922  0.62562325  0.74284433  1
  Zn  Zn100  1  -0.00612597  0.62738035  0.11916336  1
  Zn  Zn101  1  0.50090953  0.50044614  -0.00068408  1
  Zn  Zn102  1  -0.00662274  0.75709362  0.25331788  1
  Zn  Zn103  1  0.60861790  0.75037286  0.37656096  1
  Zn  Zn104  1  0.13012987  0.76043895  0.86755981  1
  Zn  Zn105  1  0.25459755  0.49555547  0.74215374  1
  Zn  Zn106  1  0.87397194  0.75721043  0.12768478  1
  Zn  Zn107  1  0.18524751  0.18782599  0.18588160  1
  Zn  Zn108  1  0.18474114  0.18676843  0.68222618  1
  Zn  Zn109  1  0.18156672  0.68923307  0.18540796  1
  Zn  Zn110  1  0.18618523  0.68562135  0.68219887  1
  Zn  Zn111  1  0.68712609  0.18314575  0.18699469  1
  Zn  Zn112  1  0.68455479  0.18714137  0.68698800  1
  Zn  Zn113  1  0.68930705  0.69187642  0.18949410  1
  Zn  Zn114  1  0.69137742  0.68945297  0.68647051  1
  Zn  Zn115  1  0.31086747  0.31239195  0.31327814  1
  Zn  Zn116  1  0.31258369  0.30891784  0.81126112  1
  Zn  Zn117  1  0.29744642  0.81781284  0.31804450  1
  Zn  Zn118  1  0.31759666  0.80915142  0.81625900  1
  Zn  Zn119  1  0.81206061  0.31000119  0.31329029  1
  Zn  Zn120  1  0.81329352  0.31235645  0.81366771  1
  Zn  Zn121  1  0.80498034  0.81886406  0.31000306  1
  Zn  Zn122  1  0.81612608  0.81645143  0.81088195  1
  Zn  Zn123  1  0.18465342  0.43957738  0.43464236  1
  Zn  Zn124  1  0.18811147  0.43624210  0.93602197  1
  Zn  Zn125  1  0.18509419  0.94327905  0.44257954  1
  Zn  Zn126  1  0.19427158  0.94016633  0.92308890  1
  Zn  Zn127  1  0.68580547  0.43496833  0.44132402  1
  Zn  Zn128  1  0.69265899  0.43667231  0.93944428  1
  Zn  Zn129  1  0.68561281  0.93458709  0.44032532  1
  Zn  Zn130  1  0.68914992  0.93910632  0.93801012  1
  Zn  Zn131  1  0.29683128  0.04622555  0.03528607  1
  Zn  Zn132  1  0.30920627  0.06016388  0.56508896  1
  Zn  Zn133  1  0.31032065  0.56353261  0.06145865  1
  Zn  Zn134  1  0.31147399  0.56107726  0.55764208  1
  Zn  Zn135  1  0.81501711  0.06356089  0.05722406  1
  Zn  Zn136  1  0.81190501  0.06168768  0.56088685  1
  Zn  Zn137  1  0.81111355  0.56234803  0.05989220  1
  Zn  Zn138  1  0.81345637  0.56326461  0.56397463  1
  Zn  Zn139  1  0.43788429  0.44066151  0.18916176  1
  Zn  Zn140  1  0.44328558  0.43718155  0.69132818  1
  Zn  Zn141  1  0.44150774  0.93276508  0.18895281  1
  Zn  Zn142  1  0.43539825  0.93938297  0.68613702  1
  Zn  Zn143  1  0.93690342  0.43895306  0.19059091  1
  Zn  Zn144  1  0.93914129  0.42987252  0.68651845  1
  Zn  Zn145  1  0.93414208  0.94406831  0.18540955  1
  Zn  Zn146  1  0.93531064  0.93697448  0.68626131  1
  Zn  Zn147  1  0.06478195  0.06454992  0.30843513  1
  Zn  Zn148  1  0.06614001  0.06536225  0.80551823  1
  Zn  Zn149  1  0.06091580  0.56412802  0.31742093  1
  Zn  Zn150  1  0.06290570  0.56469139  0.80516087  1
  Zn  Zn151  1  0.56479385  0.05758135  0.30737609  1
  Zn  Zn152  1  0.55830202  0.06368898  0.81228031  1
  Zn  Zn153  1  0.56804126  0.55749605  0.31776619  1
  Zn  Zn154  1  0.56256440  0.56399281  0.81355205  1
  Zn  Zn155  1  0.43375665  0.18448718  0.44022422  1
  Zn  Zn156  1  0.43946081  0.18671531  0.93574065  1
  Zn  Zn157  1  0.42916568  0.68591935  0.46517783  1
  Zn  Zn158  1  0.43995539  0.68805835  0.93570412  1
  Zn  Zn159  1  0.93399406  0.18588503  0.43799770  1
  Zn  Zn160  1  0.93658076  0.19002236  0.93501535  1
  Zn  Zn161  1  0.93998970  0.68853292  0.43374888  1
  Zn  Zn162  1  0.93471303  0.69170604  0.93155307  1
  Zn  Zn163  1  0.06033677  0.31224501  0.06212295  1
  Zn  Zn164  1  0.06277874  0.30872976  0.56199112  1
  Zn  Zn165  1  0.05908578  0.80839963  0.06580579  1
  Zn  Zn166  1  0.06328292  0.81440776  0.56918070  1
  Zn  Zn167  1  0.56294095  0.30975785  0.06111813  1
  Zn  Zn168  1  0.56448498  0.31057884  0.56702951  1
  Zn  Zn169  1  0.56551331  0.81199065  0.06215249  1
  Zn  Zn170  1  0.55687280  0.81285558  0.55985103  1
  O  O171  1  0.11554760  0.12146397  0.11903109  1
  O  O172  1  0.11541564  0.11949233  0.62143072  1
  O  O173  1  0.12202336  0.61735711  0.11522220  1
  O  O174  1  0.12594326  0.61212770  0.61254001  1
  O  O175  1  0.61832682  0.11758738  0.12083240  1
  O  O176  1  0.61531447  0.12020143  0.61810607  1
  O  O177  1  0.62069164  0.61973676  0.12102443  1
  O  O178  1  0.62107875  0.62229830  0.61665152  1
  O  O179  1  0.38346347  0.38155473  0.37179687  1
  O  O180  1  0.37584335  0.38056878  0.88178840  1
  O  O181  1  0.36879217  0.87676208  0.38820903  1
  O  O182  1  0.38311049  0.87626436  0.88534123  1
  O  O183  1  0.88135487  0.38506513  0.37060169  1
  O  O184  1  0.88258728  0.37828681  0.88122696  1
  O  O185  1  0.87092820  0.88989226  0.37843861  1
  O  O186  1  0.88039129  0.88912295  0.88219942  1
  O  O187  1  0.24456304  0.01324109  0.36379327  1
  O  O188  1  0.27469950  0.01313049  0.92425738  1
  O  O189  1  0.25822078  0.50330696  0.36937136  1
  O  O190  1  0.26027537  0.50477241  0.87322432  1
  O  O191  1  0.75092371  0.01155617  0.38011559  1
  O  O192  1  0.75771572  0.00809888  0.87427623  1
  O  O193  1  0.75549125  0.50226669  0.37372680  1
  O  O194  1  0.75018308  0.51534947  0.87713935  1
  O  O195  1  0.24491223  0.49604714  0.13310350  1
  O  O196  1  0.23921488  0.49678124  0.62101951  1
  O  O197  1  0.23599566  1.00057971  0.12857680  1
  O  O198  1  0.24273364  0.98676289  0.62656021  1
  O  O199  1  0.73833241  0.49829576  0.12943669  1
  O  O200  1  0.74974195  0.48351961  0.61738682  1
  O  O201  1  0.73913401  1.00685770  0.12237044  1
  O  O202  1  0.73323768  1.00343755  0.62373067  1
  O  O203  1  0.00193572  0.36820726  0.25842047  1
  O  O204  1  0.00893363  0.36469809  0.75654876  1
  O  O205  1  0.01336989  0.88192953  0.24650205  1
  O  O206  1  -0.00586560  0.85998072  0.75098917  1
  O  O207  1  0.50533782  0.36782440  0.25447863  1
  O  O208  1  0.51215738  0.36966087  0.75424085  1
  O  O209  1  0.52497467  0.88059526  0.24256769  1
  O  O210  1  0.49466749  0.86861857  0.76011972  1
  O  O211  1  0.49439929  0.12856625  0.24401842  1
  O  O212  1  0.49897266  0.13040890  0.73664377  1
  O  O213  1  0.49783411  0.62307008  0.24661145  1
  O  O214  1  0.50027597  0.63081933  0.74176712  1
  O  O215  1  0.99203493  0.13250617  0.24301663  1
  O  O216  1  1.00351540  0.13860714  0.73860056  1
  O  O217  1  0.98362184  0.61794448  0.25085408  1
  O  O218  1  0.98543985  0.63457815  0.75312522  1
  O  O219  1  0.36796038  0.25469776  0.00302847  1
  O  O220  1  0.36823506  0.24794445  0.51276899  1
  O  O221  1  0.37112513  0.75321496  0.00754925  1
  O  O222  1  0.36327098  0.76628419  0.50424290  1
  O  O223  1  0.86662398  0.26301805  -0.00659251  1
  O  O224  1  0.86373162  0.24726914  0.50710337  1
  O  O225  1  0.86610808  0.76092318  -0.00262812  1
  O  O226  1  0.87015557  0.75413185  0.50585363  1
  O  O227  1  0.13334115  0.24582938  0.49329307  1
  O  O228  1  0.13018136  0.24719771  0.99263216  1
  O  O229  1  0.12729073  0.74280366  0.50411056  1
  O  O230  1  0.13361439  0.74060613  1.00018742  1
  O  O231  1  0.62931372  0.24157040  0.49531854  1
  O  O232  1  0.63323109  0.24491678  0.99290995  1
  O  O233  1  0.63043881  0.74351388  0.49780865  1
  O  O234  1  0.63759355  0.74784210  0.99083576  1
  O  O235  1  0.49690908  0.23909462  0.12948377  1
  O  O236  1  0.48759877  0.24186441  0.62239039  1
  O  O237  1  0.49663287  0.73728997  0.12339387  1
  O  O238  1  0.50753528  0.74033329  0.63417373  1
  O  O239  1  1.00445347  0.24340204  0.13692514  1
  O  O240  1  0.99132375  0.24585383  0.63061887  1
  O  O241  1  0.99289442  0.74482759  0.13449570  1
  O  O242  1  0.98834961  0.75143145  0.63380074  1
  O  O243  1  0.00268925  0.25546579  0.37049908  1
  O  O244  1  0.00537807  0.25728906  0.86674510  1
  O  O245  1  0.00540848  0.74583656  0.36555993  1
  O  O246  1  0.00230355  0.75306754  0.86120221  1
  O  O247  1  0.50397923  0.25244107  0.37218701  1
  O  O248  1  0.51572734  0.25177223  0.87630384  1
  O  O249  1  0.48710623  0.73502629  0.36946141  1
  O  O250  1  0.51068253  0.75455421  0.86736937  1
  O  O251  1  0.25273009  0.13175189  0.49040064  1
  O  O252  1  0.23633442  0.14334171  1.01311529  1
  O  O253  1  0.24402078  0.63674320  0.50121120  1
  O  O254  1  0.24385285  0.63231795  0.99278960  1
  O  O255  1  0.74391854  0.13321323  0.49233695  1
  O  O256  1  0.74695257  0.13290761  0.99115293  1
  O  O257  1  0.74265268  0.63007390  0.49758608  1
  O  O258  1  0.74870199  0.63558489  0.98975558  1
  O  O259  1  0.25908899  0.36758674  0.00542149  1
  O  O260  1  0.24798154  0.36108360  0.48894272  1
  O  O261  1  0.25993275  0.85857856  0.00447917  1
  O  O262  1  0.25750814  0.87318061  0.50534056  1
  O  O263  1  0.76212683  0.36727844  0.00199376  1
  O  O264  1  0.74152375  0.35988456  0.50893908  1
  O  O265  1  0.76094820  0.86364014  -0.00810273  1
  O  O266  1  0.75722558  0.86707271  0.50342510  1
  O  O267  1  0.13045593  0.49545156  0.24483429  1
  O  O268  1  0.12462352  0.49208529  0.73775539  1
  O  O269  1  0.13221088  0.99436049  0.24185224  1
  O  O270  1  0.13115823  1.00895087  0.73219608  1
  O  O271  1  0.63063852  0.49388951  0.24416104  1
  O  O272  1  0.62333568  0.48713139  0.75141703  1
  O  O273  1  0.63000496  0.99697748  0.23734498  1
  O  O274  1  0.62233617  1.00514027  0.73394682  1
  O  O275  1  0.36168491  0.00301291  0.23913476  1
  O  O276  1  0.37537281  0.01811674  0.74718270  1
  O  O277  1  0.36596688  0.49759073  0.26121498  1
  O  O278  1  0.37364048  0.50211556  0.75787527  1
  O  O279  1  0.87684167  0.00874504  0.26318906  1
  O  O280  1  0.87053437  -0.00103255  0.76256030  1
  O  O281  1  0.86721737  0.50369280  0.25845094  1
  O  O282  1  0.88222773  0.51301791  0.74757219  1
  O  O283  1  0.11519401  0.37039568  0.36804413  1
  O  O284  1  0.11802561  0.36545917  0.87157677  1
  O  O285  1  0.12839759  0.88184660  0.36038611  1
  O  O286  1  0.12372375  0.87361422  0.87722629  1
  O  O287  1  0.61829593  0.36795747  0.36936281  1
  O  O288  1  0.62871197  0.36770356  0.87073732  1
  O  O289  1  0.62331250  0.86930663  0.36928047  1
  O  O290  1  0.61781258  0.86721952  0.87893933  1
  O  O291  1  0.38273104  0.13021771  0.12938597  1
  O  O292  1  0.37864303  0.13095766  0.63319543  1
  O  O293  1  0.38391932  0.63330744  0.12165455  1
  O  O294  1  0.38928514  0.62078285  0.62165714  1
  O  O295  1  0.88297113  0.11812110  0.13364165  1
  O  O296  1  0.87985098  0.13424150  0.62240254  1
  O  O297  1  0.87425373  0.62245425  0.13403440  1
  O  O298  1  0.87169577  0.63213183  0.63578898  1
  O  O299  1  0.25459192  0.25911137  0.12126202  1
  O  O300  1  0.26133142  0.24804710  0.61574267  1
  O  O301  1  0.25850719  0.74582086  0.11783447  1
  O  O302  1  0.24111766  0.76574427  0.61709098  1
  O  O303  1  0.74475979  0.24943873  0.11102079  1
  O  O304  1  0.75563952  0.25169378  0.61880554  1
  O  O305  1  0.75196278  0.74454875  0.10628420  1
  O  O306  1  0.76013843  0.74842804  0.61318558  1
  O  O307  1  0.24552541  0.24070424  0.37856840  1
  O  O308  1  0.24014211  0.25486534  0.88493438  1
  O  O309  1  0.23922741  0.75004006  0.39004873  1
  O  O310  1  0.24992063  0.74006382  0.88171742  1
  O  O311  1  0.74535323  0.24329469  0.38277391  1
  O  O312  1  0.74293174  0.24371276  0.88227019  1
  O  O313  1  0.75348232  0.74284177  0.38796680  1
  O  O314  1  0.74626384  0.74365361  0.88059840  1
  O  O315  1  0.00665572  0.13712485  0.01152351  1
  O  O316  1  0.00018031  0.13141846  0.51403598  1
  O  O317  1  0.01132554  0.62902659  -0.00525206  1
  O  O318  1  0.00514244  0.61268332  0.49780794  1
  O  O319  1  0.50636339  0.12359808  0.00793994  1
  O  O320  1  0.50022506  0.11745292  0.51012419  1
  O  O321  1  0.51007932  0.62424911  0.00695989  1
  O  O322  1  0.50814041  0.61570685  0.50729382  1
  O  O323  1  0.50672637  0.38599064  0.49790751  1
  O  O324  1  0.48775403  0.37555885  0.99944856  1
  O  O325  1  0.48272764  0.88128123  0.50368520  1
  O  O326  1  0.49591976  0.86828602  0.98714374  1
  O  O327  1  1.00304348  0.37858658  0.48777290  1
  O  O328  1  0.98769588  0.36852483  0.99200763  1
  O  O329  1  0.98826714  0.87031170  0.50122603  1
  O  O330  1  0.98621553  0.86983554  0.99594091  1
  O  O331  1  0.49430113  0.49277631  0.38123388  1
  O  O332  1  0.48780390  0.50051722  0.87864509  1
  O  O333  1  0.50203827  1.00822224  0.38872432  1
  O  O334  1  0.49485453  0.99192774  0.87754099  1
  O  O335  1  0.99177483  0.49131215  0.38340921  1
  O  O336  1  1.00303604  0.48576107  0.86919373  1
  O  O337  1  0.98987665  1.00613227  0.37571232  1
  O  O338  1  0.98844332  1.00557695  0.86910341  1
  O  O339  1  0.01126609  0.01279362  0.12887674  1
  O  O340  1  0.00899948  0.00658598  0.63119098  1
  O  O341  1  0.01237649  0.50108465  0.12778925  1
  O  O342  1  0.00583157  0.48977209  0.61170373  1
  O  O343  1  0.50940994  0.01118404  0.12728709  1
  O  O344  1  0.50746578  0.00591321  0.61865627  1
  O  O345  1  0.50955959  0.51049340  0.12582529  1
  O  O346  1  0.50442697  0.50525957  0.61809586  1
  O  O347  1  0.24333370  0.38392636  0.24642933  1
  O  O348  1  0.23499036  0.37577572  0.75610012  1
  O  O349  1  0.24083559  0.88589993  0.24500414  1
  O  O350  1  0.25847922  0.87067345  0.74027857  1
  O  O351  1  0.74376120  0.37835489  0.24754365  1
  O  O352  1  0.74377825  0.36907218  0.74047522  1
  O  O353  1  0.72893281  0.87440015  0.24687584  1
  O  O354  1  0.74870380  0.87426381  0.74442797  1
  O  O355  1  0.25409814  0.12001209  0.25340700  1
  O  O356  1  0.25940234  0.13095654  0.75042901  1
  O  O357  1  0.24206199  0.61421908  0.25287181  1
  O  O358  1  0.25142109  0.62168010  0.75619395  1
  O  O359  1  0.76262874  0.13388343  0.25912432  1
  O  O360  1  0.74551007  0.12379713  0.76302910  1
  O  O361  1  0.75616932  0.61820073  0.25618535  1
  O  O362  1  0.76526995  0.63189638  0.75614474  1
  O  O363  1  0.36622878  0.13004018  0.36305002  1
  O  O364  1  0.38207335  0.13073606  0.85450310  1
  O  O365  1  0.37686491  0.62363577  0.36854623  1
  O  O366  1  0.36464587  0.61695905  0.87738047  1
  O  O367  1  0.86897127  0.11509484  0.37015875  1
  O  O368  1  0.86801784  0.11158652  0.88271801  1
  O  O369  1  0.86760391  0.61317578  0.36983259  1
  O  O370  1  0.86946645  0.62189689  0.86412397  1
  O  O371  1  0.12953474  0.38193405  0.12868501  1
  O  O372  1  0.11992172  0.38012298  0.63311489  1
  O  O373  1  0.12472299  0.88393586  0.12965578  1
  O  O374  1  0.13371053  0.88498721  0.62738056  1
  O  O375  1  0.62420409  0.38296860  0.12983620  1
  O  O376  1  0.63469582  0.37343122  0.63530001  1
  O  O377  1  0.62732597  0.88799776  0.12151365  1
  O  O378  1  0.62342348  0.88965071  0.61735509  1
  O  O379  1  0.11548132  0.25511016  0.25613530  1
  O  O380  1  0.11968578  0.25465922  0.75551809  1
  O  O381  1  0.12795668  0.76923542  0.24914805  1
  O  O382  1  0.10710752  0.73850762  0.74774172  1
  O  O383  1  0.61907285  0.25205515  0.25557383  1
  O  O384  1  0.62538174  0.25768515  0.75906116  1
  O  O385  1  0.62486057  0.75675452  0.25758587  1
  O  O386  1  0.61806482  0.74508909  0.75959375  1
  O  O387  1  0.37991065  0.24520345  0.24277691  1
  O  O388  1  0.37549378  0.24299593  0.73842743  1
  O  O389  1  0.36882333  0.74710158  0.24868250  1
  O  O390  1  0.39120313  0.74277613  0.75612855  1
  O  O391  1  0.88582080  0.24076112  0.25636210  1
  O  O392  1  0.88356847  0.25142193  0.74330655  1
  O  O393  1  0.86845343  0.74126619  0.24870050  1
  O  O394  1  0.88345503  0.74285802  0.74285903  1
  O  O395  1  0.38433351  0.50658065  0.48457937  1
  O  O396  1  0.37445365  0.49111091  0.99444687  1
  O  O397  1  0.38039835  0.98954745  0.50365755  1
  O  O398  1  0.38990837  0.97602697  1.02520912  1
  O  O399  1  0.88084050  0.50287246  0.49155220  1
  O  O400  1  0.87088322  0.48454176  0.99576606  1
  O  O401  1  0.87186552  0.99368291  0.48628880  1
  O  O402  1  0.87254025  0.98883354  0.98986564  1
  O  O403  1  0.12520944  0.01546523  0.00543928  1
  O  O404  1  0.12987883  0.00459856  0.51980806  1
  O  O405  1  0.13376412  0.50843994  0.00945691  1
  O  O406  1  0.11681042  0.50287644  0.50463537  1
  O  O407  1  0.62470842  0.00640955  0.00936823  1
  O  O408  1  0.61593802  0.00494841  0.50720721  1
  O  O409  1  0.62482702  0.50524664  0.00797541  1
  O  O410  1  0.61665924  0.50807879  0.50131510  1
  O  O411  1  0.37187174  0.37061384  0.11836762  1
  O  O412  1  0.37908645  0.36100781  0.62972993  1
  O  O413  1  0.37744270  0.85612782  0.12401056  1
  O  O414  1  0.36095044  0.87995273  0.61949748  1
  O  O415  1  0.87602920  0.37776415  0.11236586  1
  O  O416  1  0.86658263  0.36000351  0.62865747  1
  O  O417  1  0.87563540  0.87903920  0.10942343  1
  O  O418  1  0.87281756  0.86836977  0.61487255  1
  O  O419  1  0.13232019  0.13114017  0.37540112  1
  O  O420  1  0.11698851  0.13795024  0.88282135  1
  O  O421  1  0.12811925  0.62104912  0.39101126  1
  O  O422  1  0.13617008  0.62142674  0.87943552  1
  O  O423  1  0.63160040  0.12886148  0.37785614  1
  O  O424  1  0.63121901  0.12994471  0.88069880  1
  O  O425  1  0.62988367  0.62719513  0.38697430  1
  O  O426  1  0.63287069  0.63348283  0.87811155  1
