# generated using pymatgen
data_V85Zn86O256
_symmetry_space_group_name_H-M   'P 1'
_cell_length_a   16.93974664
_cell_length_b   16.94051240
_cell_length_c   16.93679263
_cell_angle_alpha   90.04448462
_cell_angle_beta   90.04907515
_cell_angle_gamma   89.99196593
_symmetry_Int_Tables_number   1
_chemical_formula_structural   V85Zn86O256
_chemical_formula_sum   'V85 Zn86 O256'
_cell_volume   4860.31400857
_cell_formula_units_Z   1
loop_
 _symmetry_equiv_pos_site_id
 _symmetry_equiv_pos_as_xyz
  1  'x, y, z'
loop_
 _atom_site_type_symbol
 _atom_site_label
 _atom_site_symmetry_multiplicity
 _atom_site_fract_x
 _atom_site_fract_y
 _atom_site_fract_z
 _atom_site_occupancy
  V  V0  1  0.75317754  0.74802542  0.01609437  1
  V  V1  1  0.87827818  0.62826512  0.75321135  1
  V  V2  1  0.24843031  0.75005196  0.49618470  1
  V  V3  1  0.12615069  0.74908864  0.87455199  1
  V  V4  1  0.37175957  0.74854498  0.62688307  1
  V  V5  1  0.25657113  0.62395393  0.36756731  1
  V  V6  1  0.87243296  0.00152826  0.88050680  1
  V  V7  1  0.75784236  0.88687176  0.13239320  1
  V  V8  1  0.25567437  0.49916533  0.25132359  1
  V  V9  1  0.11862598  0.49872376  0.61999613  1
  V  V10  1  0.75051193  0.62590164  0.88098092  1
  V  V11  1  0.25386968  0.37317013  0.62081658  1
  V  V12  1  0.11243701  0.25037004  0.36620141  1
  V  V13  1  0.24942015  0.37879337  0.12730685  1
  V  V14  1  0.86957148  0.75074493  0.62308306  1
  V  V15  1  0.86517134  0.87312807  0.49906391  1
  V  V16  1  0.12408677  0.62098332  0.00351466  1
  V  V17  1  0.49977625  0.50167839  0.50261785  1
  V  V18  1  0.74822960  0.12025162  0.37012694  1
  V  V19  1  0.25720077  0.62162526  0.87654668  1
  V  V20  1  0.12634291  0.12095497  0.49493969  1
  V  V21  1  0.11850445  0.62015971  0.49534536  1
  V  V22  1  0.25519040  0.49903708  0.75208848  1
  V  V23  1  0.14716533  -0.00079598  0.13101816  1
  V  V24  1  0.49710986  0.38687432  0.87697501  1
  V  V25  1  0.51031887  0.37748443  0.37826170  1
  V  V26  1  0.62407025  0.88586987  0.24196599  1
  V  V27  1  0.00231288  0.00022779  0.01208890  1
  V  V28  1  0.12703197  0.37439496  0.74953800  1
  V  V29  1  0.36945094  0.00249283  0.87693550  1
  V  V30  1  0.13266855  0.24616526  0.87386041  1
  V  V31  1  0.87286454  0.12546594  0.75746037  1
  V  V32  1  0.61328938  0.61330479  0.01463731  1
  V  V33  1  0.49842516  0.87557717  0.87909548  1
  V  V34  1  0.74969028  0.00174825  0.75473843  1
  V  V35  1  0.87773071  0.50048737  0.87124921  1
  V  V36  1  -0.00251606  -0.01073874  0.49610673  1
  V  V37  1  0.37766689  0.38622390  -0.00414791  1
  V  V38  1  0.49359049  0.12793328  0.62456040  1
  V  V39  1  0.49851677  0.00149590  0.50018367  1
  V  V40  1  0.24948047  0.12458589  0.36312439  1
  V  V41  1  0.87288527  -0.00749644  0.36346661  1
  V  V42  1  0.87673468  0.24952393  0.61988050  1
  V  V43  1  0.24975994  0.75334212  0.00980112  1
  V  V44  1  0.63313507  0.24538940  0.87517052  1
  V  V45  1  0.37495790  0.37257102  0.50164940  1
  V  V46  1  0.62651004  0.50116864  0.62326159  1
  V  V47  1  0.50668981  0.11776377  0.12320558  1
  V  V48  1  0.11288542  0.37692787  0.24707728  1
  V  V49  1  0.37282533  0.87527843  0.01214427  1
  V  V50  1  0.37048869  0.12580632  0.75300334  1
  V  V51  1  0.12994337  0.12230863  -0.00597370  1
  V  V52  1  0.75452515  0.37274791  0.62390275  1
  V  V53  1  0.37921936  0.25437924  0.12499827  1
  V  V54  1  0.57022364  0.43256241  0.19190141  1
  V  V55  1  0.87347788  0.37402582  0.00146669  1
  V  V56  1  0.62483295  0.37501408  0.75113196  1
  V  V57  1  0.74848674  0.37813606  0.12952404  1
  V  V58  1  0.62731011  0.25028933  0.37600967  1
  V  V59  1  0.25561996  0.24910877  0.49778212  1
  V  V60  1  0.50810583  0.24983974  0.24798199  1
  V  V61  1  -0.00655443  0.64532554  0.12737754  1
  V  V62  1  0.62773531  0.75307986  0.38248627  1
  V  V63  1  0.75487448  0.62648646  0.38391647  1
  V  V64  1  0.00252730  0.24896265  0.75252510  1
  V  V65  1  0.63551483  0.11744495  0.00034242  1
  V  V66  1  0.25578654  0.24610244  -0.00314481  1
  V  V67  1  0.49968214  0.62621026  0.62732388  1
  V  V68  1  0.49557805  0.73977903  0.24643366  1
  V  V69  1  0.49890146  0.87542628  0.37506849  1
  V  V70  1  0.00031756  0.12062999  0.62630773  1
  V  V71  1  0.00320265  0.49922496  0.01171256  1
  V  V72  1  0.62609040  0.74946853  0.88041648  1
  V  V73  1  -0.00033910  0.87562953  0.87659338  1
  V  V74  1  0.88093882  0.13055948  0.25032889  1
  V  V75  1  0.12621923  -0.00238300  0.62309566  1
  V  V76  1  0.75792740  0.50642678  0.24688467  1
  V  V77  1  0.49874942  0.75023750  0.75308758  1
  V  V78  1  0.36932966  0.00022216  0.36908829  1
  V  V79  1  0.12743111  0.87471227  0.74864559  1
  V  V80  1  0.00380206  0.37570122  0.87572779  1
  V  V81  1  0.62509652  0.00029021  0.62715118  1
  V  V82  1  0.49633433  0.24978059  0.74897727  1
  V  V83  1  0.12996203  0.87171377  0.24550738  1
  V  V84  1  0.11145348  0.75463886  0.37002201  1
  Zn  Zn85  1  0.24885675  0.00436224  0.75088209  1
  Zn  Zn86  1  0.75707939  0.24968247  0.49635487  1
  Zn  Zn87  1  0.75249961  0.24771982  0.00167211  1
  Zn  Zn88  1  0.37748644  0.61999704  0.75579338  1
  Zn  Zn89  1  0.50454269  -0.00288830  0.00458815  1
  Zn  Zn90  1  0.87636567  0.63854613  0.24992196  1
  Zn  Zn91  1  0.74619470  0.87174164  0.62572927  1
  Zn  Zn92  1  0.62747234  0.63556369  0.50682592  1
  Zn  Zn93  1  0.00055413  0.74928515  0.74778662  1
  Zn  Zn94  1  -0.09875828  0.47669807  0.39631562  1
  Zn  Zn95  1  0.62633371  0.87592179  0.75435456  1
  Zn  Zn96  1  0.37499379  0.12292133  0.24545252  1
  Zn  Zn97  1  0.88022032  0.25500103  0.13297270  1
  Zn  Zn98  1  0.37786709  0.50279881  0.37205457  1
  Zn  Zn99  1  0.25053650  0.87502807  0.62499607  1
  Zn  Zn100  1  0.62786659  0.12484239  0.50104907  1
  Zn  Zn101  1  0.87946661  0.86992585  0.01009981  1
  Zn  Zn102  1  0.37248514  0.87573925  0.50070480  1
  Zn  Zn103  1  -0.00636464  0.61970158  0.61875438  1
  Zn  Zn104  1  0.37161059  0.74221334  0.13209127  1
  Zn  Zn105  1  0.00933411  0.13046695  0.13403023  1
  Zn  Zn106  1  0.75086907  0.50047506  0.75236885  1
  Zn  Zn107  1  0.18767546  0.19022473  0.18420778  1
  Zn  Zn108  1  0.19034725  0.18662493  0.68225601  1
  Zn  Zn109  1  0.18303421  0.68478192  0.18725679  1
  Zn  Zn110  1  0.18642396  0.68451333  0.68644858  1
  Zn  Zn111  1  0.69335493  0.18755602  0.18692925  1
  Zn  Zn112  1  0.68796903  0.18429213  0.68945677  1
  Zn  Zn113  1  0.68131499  0.68871592  0.19355342  1
  Zn  Zn114  1  0.69055110  0.68776777  0.69374365  1
  Zn  Zn115  1  0.31669879  0.31450913  0.31413606  1
  Zn  Zn116  1  0.31494559  0.31275859  0.81213851  1
  Zn  Zn117  1  0.30957021  0.81553857  0.31089186  1
  Zn  Zn118  1  0.31209984  0.81136001  0.81670048  1
  Zn  Zn119  1  0.81369448  0.31316701  0.31007979  1
  Zn  Zn120  1  0.81402487  0.31398237  0.81037055  1
  Zn  Zn121  1  0.80811870  0.81054399  0.31322697  1
  Zn  Zn122  1  0.81184606  0.81436262  0.81535522  1
  Zn  Zn123  1  0.07191363  0.43493064  0.43451019  1
  Zn  Zn124  1  0.18997569  0.43727109  0.93949700  1
  Zn  Zn125  1  0.18825219  0.93343122  0.43225057  1
  Zn  Zn126  1  0.19067164  0.93686829  0.93712586  1
  Zn  Zn127  1  0.72341014  0.42203572  0.42160782  1
  Zn  Zn128  1  0.68742765  0.43866980  0.93907657  1
  Zn  Zn129  1  0.68737498  0.93920440  0.43719918  1
  Zn  Zn130  1  0.69097523  0.93475508  0.94268293  1
  Zn  Zn131  1  0.32009695  0.06838364  0.05815861  1
  Zn  Zn132  1  0.31243232  0.06179984  0.56019402  1
  Zn  Zn133  1  0.30872585  0.56169802  0.06248240  1
  Zn  Zn134  1  0.30873956  0.56198763  0.55946134  1
  Zn  Zn135  1  0.81341762  0.05941509  0.06734551  1
  Zn  Zn136  1  0.81102120  0.06289548  0.56135726  1
  Zn  Zn137  1  0.81295668  0.56211025  0.06348985  1
  Zn  Zn138  1  0.80856922  0.56425729  0.56462413  1
  Zn  Zn139  1  0.43229078  0.56708728  0.18853886  1
  Zn  Zn140  1  0.43683342  0.43597983  0.68708242  1
  Zn  Zn141  1  0.43750532  0.93618393  0.19098796  1
  Zn  Zn142  1  0.43696401  0.93624644  0.69002736  1
  Zn  Zn143  1  0.93413628  0.44474995  0.19001587  1
  Zn  Zn144  1  0.93746814  0.43183445  0.56752161  1
  Zn  Zn145  1  0.94676742  0.82357829  0.20276406  1
  Zn  Zn146  1  0.93741292  0.93533706  0.68760249  1
  Zn  Zn147  1  0.05910954  0.05046285  0.30979211  1
  Zn  Zn148  1  0.06220245  0.05989101  0.81514745  1
  Zn  Zn149  1  0.06819540  0.56427265  0.30368765  1
  Zn  Zn150  1  0.06450711  0.56016033  0.81290396  1
  Zn  Zn151  1  0.56028660  0.06378896  0.31219122  1
  Zn  Zn152  1  0.56063435  0.06281432  0.81660199  1
  Zn  Zn153  1  0.57069797  0.56513789  0.32146590  1
  Zn  Zn154  1  0.56557980  0.56489649  0.81460822  1
  Zn  Zn155  1  0.43765792  0.18719066  0.43589942  1
  Zn  Zn156  1  0.44484986  0.18957381  0.93548916  1
  Zn  Zn157  1  0.43803420  0.68892884  0.43896051  1
  Zn  Zn158  1  0.43592770  0.68660433  0.94539638  1
  Zn  Zn159  1  0.93872424  0.18020260  0.43789215  1
  Zn  Zn160  1  0.94270508  0.18832705  0.94363286  1
  Zn  Zn161  1  0.93308360  0.68655896  0.43874193  1
  Zn  Zn162  1  0.93707736  0.69061395  0.94100491  1
  Zn  Zn163  1  0.06221052  0.30886891  0.06615432  1
  Zn  Zn164  1  0.07088904  0.30283527  0.56398770  1
  Zn  Zn165  1  0.07265433  0.81910735  0.06104728  1
  Zn  Zn166  1  0.05738792  0.80755381  0.56253538  1
  Zn  Zn167  1  0.56136400  0.30802206  0.05371665  1
  Zn  Zn168  1  0.56522826  0.31088703  0.56236190  1
  Zn  Zn169  1  0.56383369  0.80833173  0.06477635  1
  Zn  Zn170  1  0.55985080  0.81694958  0.56458263  1
  O  O171  1  0.12937034  0.11600067  0.11477579  1
  O  O172  1  0.12055501  0.11701942  0.61774607  1
  O  O173  1  0.11276009  0.63172489  0.10994861  1
  O  O174  1  0.12535366  0.61620589  0.61493922  1
  O  O175  1  0.62043741  0.13241550  0.11133149  1
  O  O176  1  0.61516272  0.11455270  0.62715784  1
  O  O177  1  0.62416688  0.62870421  0.11381150  1
  O  O178  1  0.62210467  0.61860090  0.62816617  1
  O  O179  1  0.39160063  0.37556282  0.38443640  1
  O  O180  1  0.38533850  0.36822400  0.88315375  1
  O  O181  1  0.38259297  0.88221438  0.37678260  1
  O  O182  1  0.38242499  0.88015683  0.88307542  1
  O  O183  1  0.82964654  0.38968775  0.38736167  1
  O  O184  1  0.88119680  0.38325414  0.87894029  1
  O  O185  1  0.86795632  0.88622665  0.38197842  1
  O  O186  1  0.88436314  0.88301143  0.87888979  1
  O  O187  1  0.25808099  0.01128330  0.38308264  1
  O  O188  1  0.26518808  -0.00238436  0.87225228  1
  O  O189  1  0.25252655  0.51118143  0.36453108  1
  O  O190  1  0.24234966  0.50889063  0.86515873  1
  O  O191  1  0.76288198  0.00685755  0.38067628  1
  O  O192  1  0.76477972  -0.00508025  0.87276411  1
  O  O193  1  0.73318563  0.52135654  0.36322692  1
  O  O194  1  0.75974554  0.50618481  0.87605601  1
  O  O195  1  0.25062933  0.48421120  0.12928328  1
  O  O196  1  0.24199012  0.49347109  0.63037216  1
  O  O197  1  0.24513439  1.00527337  0.11975412  1
  O  O198  1  0.24147435  0.99616456  0.62578584  1
  O  O199  1  0.75283270  0.49568085  0.13457012  1
  O  O200  1  0.74257308  0.49220776  0.63092347  1
  O  O201  1  0.74649435  0.98468050  0.12413964  1
  O  O202  1  0.74093559  1.00126975  0.63465518  1
  O  O203  1  0.01411370  0.37686932  0.23799659  1
  O  O204  1  0.01232157  0.36348084  0.76066158  1
  O  O205  1  0.02641901  0.88835835  0.24956275  1
  O  O206  1  0.01091088  0.87595436  0.75869929  1
  O  O207  1  0.51335309  0.37051634  0.25804306  1
  O  O208  1  0.50540119  0.36674697  0.75293667  1
  O  O209  1  0.50855039  0.87032076  0.25850099  1
  O  O210  1  0.50179614  0.86776831  0.76074802  1
  O  O211  1  0.49977755  0.13429777  0.24200031  1
  O  O212  1  0.49381735  0.13090603  0.74481170  1
  O  O213  1  0.50013702  0.63573398  0.25876460  1
  O  O214  1  0.49738938  0.63201603  0.74673786  1
  O  O215  1  0.98499694  0.11848622  0.25126795  1
  O  O216  1  0.99480044  0.12797413  0.74661010  1
  O  O217  1  1.00501116  0.62549873  0.22793741  1
  O  O218  1  0.98769777  0.62555462  0.75360076  1
  O  O219  1  0.37049283  0.25282563  0.00332200  1
  O  O220  1  0.36746589  0.25734378  0.49431059  1
  O  O221  1  0.36628878  0.75900199  0.00169067  1
  O  O222  1  0.36621300  0.75082578  0.50820943  1
  O  O223  1  0.87129695  0.26611142  -0.00981263  1
  O  O224  1  0.87742720  0.23963439  0.51620810  1
  O  O225  1  0.85755678  0.75347289  -0.00434754  1
  O  O226  1  0.87817444  0.76079551  0.50862129  1
  O  O227  1  0.13374657  0.24041634  0.48498273  1
  O  O228  1  0.13431631  0.24219506  0.99307935  1
  O  O229  1  0.13013996  0.74601371  0.49014855  1
  O  O230  1  0.13225744  0.74540822  0.99292205  1
  O  O231  1  0.62265866  0.24439024  0.48688332  1
  O  O232  1  0.62976500  0.24036440  0.99091000  1
  O  O233  1  0.61873956  0.75579963  0.48766356  1
  O  O234  1  0.63269391  0.74387021  0.99377959  1
  O  O235  1  0.49731730  0.24609654  0.13117689  1
  O  O236  1  0.50740239  0.23983574  0.63556536  1
  O  O237  1  0.50088014  0.75257433  0.14428702  1
  O  O238  1  0.49355262  0.74564633  0.63129226  1
  O  O239  1  0.98919243  0.23804489  0.10836106  1
  O  O240  1  0.99635208  0.24059989  0.63391884  1
  O  O241  1  0.99988967  0.74921587  0.11890408  1
  O  O242  1  0.98636559  0.74464769  0.62897986  1
  O  O243  1  0.01454712  0.24191977  0.37680103  1
  O  O244  1  0.01461095  0.25353047  0.87398743  1
  O  O245  1  0.01371463  0.74493678  0.37674019  1
  O  O246  1  0.00504181  0.76282200  0.87664633  1
  O  O247  1  0.50590811  0.25606990  0.36674476  1
  O  O248  1  0.51308580  0.25734481  0.86567563  1
  O  O249  1  0.50327628  0.75911102  0.36984090  1
  O  O250  1  0.50498801  0.75860977  0.87501898  1
  O  O251  1  0.24505816  0.13104859  0.49226949  1
  O  O252  1  0.24690105  0.13810766  1.00027698  1
  O  O253  1  0.24060424  0.63423024  0.49303160  1
  O  O254  1  0.24001634  0.62911293  0.99361820  1
  O  O255  1  0.74905343  0.12815855  0.48802515  1
  O  O256  1  0.73964986  0.12580047  1.00445763  1
  O  O257  1  0.74481282  0.62481632  0.48804998  1
  O  O258  1  0.74466276  0.63380978  0.99917685  1
  O  O259  1  0.25345586  0.36405173  0.00626693  1
  O  O260  1  0.26191185  0.36543030  0.50127521  1
  O  O261  1  0.25951308  0.86412345  -0.00661493  1
  O  O262  1  0.24999500  0.86121370  0.50126694  1
  O  O263  1  0.75740340  0.37765874  0.00996710  1
  O  O264  1  0.73507694  0.36549686  0.52212018  1
  O  O265  1  0.74891678  0.86662251  0.01657644  1
  O  O266  1  0.76102814  0.88131931  0.50592394  1
  O  O267  1  0.13718863  0.48112931  0.25019267  1
  O  O268  1  0.13493522  0.49429684  0.74356241  1
  O  O269  1  0.13118798  1.00130651  0.23461838  1
  O  O270  1  0.12746550  0.99298993  0.74474421  1
  O  O271  1  0.62943118  0.49749483  0.24609934  1
  O  O272  1  0.62604629  0.49203907  0.74255136  1
  O  O273  1  0.61980603  0.98428623  0.25333568  1
  O  O274  1  0.63282268  1.00145276  0.74783998  1
  O  O275  1  0.38026979  0.00338915  0.26440951  1
  O  O276  1  0.37458074  0.00741047  0.75781901  1
  O  O277  1  0.36184021  0.49800088  0.25263878  1
  O  O278  1  0.35992387  0.50057514  0.74426151  1
  O  O279  1  0.87418599  0.00531896  0.26544913  1
  O  O280  1  0.87081513  0.00569572  0.75833170  1
  O  O281  1  0.86442305  0.50938509  0.25416779  1
  O  O282  1  0.87471905  0.50895806  0.76601066  1
  O  O283  1  0.12686312  0.35863852  0.36001257  1
  O  O284  1  0.12377801  0.36635433  0.87128743  1
  O  O285  1  0.12431633  0.86012061  0.37091749  1
  O  O286  1  0.11895238  0.87209952  0.86882212  1
  O  O287  1  0.61799311  0.36726730  0.38304176  1
  O  O288  1  0.62075314  0.37086161  0.86575765  1
  O  O289  1  0.61969761  0.87181563  0.36786701  1
  O  O290  1  0.61789799  0.86739842  0.87901378  1
  O  O291  1  0.38565789  0.13799184  0.12420491  1
  O  O292  1  0.38768834  0.11861631  0.63291260  1
  O  O293  1  0.37463884  0.62949845  0.11851473  1
  O  O294  1  0.37802168  0.63527628  0.62642874  1
  O  O295  1  0.87135237  0.12075456  0.14462606  1
  O  O296  1  0.87981566  0.12792177  0.63805403  1
  O  O297  1  0.89109150  0.62722509  0.12184938  1
  O  O298  1  0.87345584  0.63173260  0.63711543  1
  O  O299  1  0.26002100  0.25471581  0.11757238  1
  O  O300  1  0.24311477  0.25677031  0.60724299  1
  O  O301  1  0.24745041  0.74731029  0.11312025  1
  O  O302  1  0.25610519  0.74912984  0.61752853  1
  O  O303  1  0.75784813  0.26126271  0.12351612  1
  O  O304  1  0.76023230  0.25294328  0.62916458  1
  O  O305  1  0.74242354  0.75684975  0.11830275  1
  O  O306  1  0.76274330  0.75311919  0.63300250  1
  O  O307  1  0.24593140  0.24276880  0.38140020  1
  O  O308  1  0.24055339  0.25423693  0.88114845  1
  O  O309  1  0.24489918  0.74408952  0.38102425  1
  O  O310  1  0.24388006  0.74079088  0.88206330  1
  O  O311  1  0.74094090  0.24208185  0.37532804  1
  O  O312  1  0.73659808  0.25615530  0.87405690  1
  O  O313  1  0.73922347  0.73841285  0.37223865  1
  O  O314  1  0.74130704  0.74823684  0.88419390  1
  O  O315  1  0.01339405  0.11401041  -0.00438508  1
  O  O316  1  0.00651237  0.11277115  0.50641799  1
  O  O317  1  0.00474726  0.62119183  0.00680402  1
  O  O318  1  0.01488914  0.63066327  0.50012202  1
  O  O319  1  0.51123716  0.12507846  0.00790243  1
  O  O320  1  0.50073510  0.12029023  0.50860513  1
  O  O321  1  0.51454551  0.62614673  -0.00333020  1
  O  O322  1  0.50329428  0.61961204  0.50817759  1
  O  O323  1  0.49683567  0.37995135  0.49623703  1
  O  O324  1  0.49089773  0.37108457  0.98908042  1
  O  O325  1  0.49795337  0.88133285  0.48844396  1
  O  O326  1  0.49372161  0.87452407  0.99605390  1
  O  O327  1  1.00922115  0.37220441  0.50448061  1
  O  O328  1  0.99572398  0.38271338  0.99616193  1
  O  O329  1  0.99069916  0.88515679  0.50469846  1
  O  O330  1  1.00055115  0.88288698  0.99421938  1
  O  O331  1  0.50241528  0.49292073  0.38233812  1
  O  O332  1  0.50121475  0.48590253  0.86547049  1
  O  O333  1  0.49447155  0.99397565  0.38024399  1
  O  O334  1  0.49348274  0.98674702  0.87629158  1
  O  O335  1  1.00669729  0.49657381  0.36579477  1
  O  O336  1  0.99523617  0.49495320  0.88352445  1
  O  O337  1  0.98440301  1.00360289  0.38468328  1
  O  O338  1  0.99379949  0.99067157  0.88239284  1
  O  O339  1  0.01388553  0.00636281  0.11252452  1
  O  O340  1  0.00593861  0.00312731  0.61931416  1
  O  O341  1  -0.00300333  0.50758029  0.11316099  1
  O  O342  1  0.01610350  0.50055065  0.63189328  1
  O  O343  1  0.49545904  0.01446087  0.12602760  1
  O  O344  1  0.50546156  0.00518967  0.62217386  1
  O  O345  1  0.50495052  0.48670530  0.14215904  1
  O  O346  1  0.50567885  0.50735311  0.62472180  1
  O  O347  1  0.24819364  0.37754518  0.24337889  1
  O  O348  1  0.24752136  0.37935731  0.74399802  1
  O  O349  1  0.23297634  0.88177899  0.26106833  1
  O  O350  1  0.23754286  0.87474814  0.75041854  1
  O  O351  1  0.75119943  0.38521479  0.23592356  1
  O  O352  1  0.74081301  0.37589668  0.74295521  1
  O  O353  1  0.73553520  0.87010590  0.24050114  1
  O  O354  1  0.74877492  0.88886280  0.75017209  1
  O  O355  1  0.25497446  0.13226926  0.25991780  1
  O  O356  1  0.26678387  0.12735874  0.74434837  1
  O  O357  1  0.24057746  0.61419482  0.25604112  1
  O  O358  1  0.24929144  0.61686666  0.75910503  1
  O  O359  1  0.75945117  0.12597156  0.26232454  1
  O  O360  1  0.75924642  0.11310083  0.75062388  1
  O  O361  1  0.75058047  0.62175819  0.25627800  1
  O  O362  1  0.76193446  0.62397423  0.76193765  1
  O  O363  1  0.36743829  0.11873159  0.37287391  1
  O  O364  1  0.38665884  0.11472222  0.86638782  1
  O  O365  1  0.36057128  0.62582447  0.38078767  1
  O  O366  1  0.36076999  0.62851641  0.87693049  1
  O  O367  1  0.86896665  0.11735593  0.36802548  1
  O  O368  1  0.88378506  0.11753286  0.86569269  1
  O  O369  1  0.85986034  0.62630614  0.37441893  1
  O  O370  1  0.87118709  0.62036900  0.87433562  1
  O  O371  1  0.13659083  0.36185218  0.13807342  1
  O  O372  1  0.13484357  0.37924433  0.63126635  1
  O  O373  1  0.13284331  0.88994653  0.12882869  1
  O  O374  1  0.12352486  0.87833460  0.63291370  1
  O  O375  1  0.62749032  0.37558871  0.12423363  1
  O  O376  1  0.62666074  0.37946894  0.63766772  1
  O  O377  1  0.62880890  0.87276657  0.13758617  1
  O  O378  1  0.62372433  0.88759807  0.63097227  1
  O  O379  1  0.12803678  0.25591735  0.25921320  1
  O  O380  1  0.12517382  0.25058405  0.75709317  1
  O  O381  1  0.12708935  0.75660064  0.26011141  1
  O  O382  1  0.12259824  0.75638666  0.75531336  1
  O  O383  1  0.61628964  0.24483258  0.25989139  1
  O  O384  1  0.61855582  0.25494955  0.75470912  1
  O  O385  1  0.61203547  0.75806159  0.26202833  1
  O  O386  1  0.61996479  0.75112711  0.76483902  1
  O  O387  1  0.38950571  0.25290029  0.24176298  1
  O  O388  1  0.38815479  0.24265121  0.75538787  1
  O  O389  1  0.39119036  0.75766582  0.25177191  1
  O  O390  1  0.37960094  0.74727429  0.74439878  1
  O  O391  1  0.87574230  0.23537516  0.25392070  1
  O  O392  1  0.88139752  0.24128736  0.74720262  1
  O  O393  1  0.88131161  0.75198024  0.25514032  1
  O  O394  1  0.87740624  0.74429537  0.74822579  1
  O  O395  1  0.38238369  0.49275037  0.49782620  1
  O  O396  1  0.36420622  0.48453845  0.99705607  1
  O  O397  1  0.38154522  0.99787953  0.49071438  1
  O  O398  1  0.38004070  0.99357623  0.99354514  1
  O  O399  1  0.88329113  0.50836497  0.50621570  1
  O  O400  1  0.88201880  0.49177278  0.99183168  1
  O  O401  1  0.88116272  0.99370084  0.49627172  1
  O  O402  1  0.88449791  0.99940894  0.99578484  1
  O  O403  1  0.12548639  0.00573137  0.00474612  1
  O  O404  1  0.11730238  0.00075824  0.50131952  1
  O  O405  1  0.11602561  0.50906249  -0.00507495  1
  O  O406  1  0.13111778  0.50891843  0.50722613  1
  O  O407  1  0.62335250  0.01364228  -0.00591154  1
  O  O408  1  0.61806769  0.00197299  0.50976998  1
  O  O409  1  0.62848502  0.51462142  -0.00097357  1
  O  O410  1  0.61837200  0.49942074  0.51763951  1
  O  O411  1  0.36767763  0.36135616  0.11362439  1
  O  O412  1  0.37143105  0.37735134  0.61086167  1
  O  O413  1  0.37883360  0.87252193  0.11492570  1
  O  O414  1  0.37407397  0.86204721  0.62446504  1
  O  O415  1  0.86844754  0.37756617  0.11687727  1
  O  O416  1  0.86669199  0.36235314  0.63202296  1
  O  O417  1  0.86143669  0.87659212  0.12956261  1
  O  O418  1  0.87290754  0.86890686  0.61871749  1
  O  O419  1  0.13122160  0.12968616  0.37335722  1
  O  O420  1  0.12673387  0.12945613  0.88476743  1
  O  O421  1  0.13390372  0.63529912  0.37797891  1
  O  O422  1  0.12888250  0.63058614  0.88393091  1
  O  O423  1  0.63166984  0.12978900  0.37507316  1
  O  O424  1  0.62041160  0.13234723  0.88823287  1
  O  O425  1  0.63128593  0.63843019  0.38178924  1
  O  O426  1  0.63256212  0.63299172  0.88126746  1
