# generated using pymatgen
data_V85Zn86O256
_symmetry_space_group_name_H-M   'P 1'
_cell_length_a   16.91263022
_cell_length_b   16.92463631
_cell_length_c   16.92189420
_cell_angle_alpha   89.94063151
_cell_angle_beta   90.01948456
_cell_angle_gamma   89.96702433
_symmetry_Int_Tables_number   1
_chemical_formula_structural   V85Zn86O256
_chemical_formula_sum   'V85 Zn86 O256'
_cell_volume   4843.72126855
_cell_formula_units_Z   1
loop_
 _symmetry_equiv_pos_site_id
 _symmetry_equiv_pos_as_xyz
  1  'x, y, z'
loop_
 _atom_site_type_symbol
 _atom_site_label
 _atom_site_symmetry_multiplicity
 _atom_site_fract_x
 _atom_site_fract_y
 _atom_site_fract_z
 _atom_site_occupancy
  V  V0  1  0.86548071  0.62586710  0.74463751  1
  V  V1  1  0.62462881  0.49871469  0.12244544  1
  V  V2  1  0.12156873  0.12243819  -0.00157838  1
  V  V3  1  0.11847444  0.62616319  0.00747348  1
  V  V4  1  0.49023349  0.12281393  0.12844891  1
  V  V5  1  0.49224058  0.74345590  0.25466899  1
  V  V6  1  0.49037002  0.49635133  0.00109093  1
  V  V7  1  0.74939586  0.86115302  0.12073061  1
  V  V8  1  0.74668918  0.11846858  0.87275960  1
  V  V9  1  0.74909287  0.25049040  0.00089906  1
  V  V10  1  0.12724860  0.62148089  0.49822165  1
  V  V11  1  0.00514139  0.37597875  0.37336358  1
  V  V12  1  0.87297726  0.86653246  -0.00142876  1
  V  V13  1  0.12146883  0.38407443  0.74619090  1
  V  V14  1  0.75045367  0.50493146  0.25068922  1
  V  V15  1  -0.00185706  0.13053033  0.62089676  1
  V  V16  1  0.00600742  0.86125680  0.36920392  1
  V  V17  1  0.63820303  0.37814952  0.75110839  1
  V  V18  1  0.24414441  0.74837085  0.49704700  1
  V  V19  1  0.00442626  0.49695387  0.50650461  1
  V  V20  1  0.12571567  0.85830296  0.24926778  1
  V  V21  1  0.25486196  0.12755538  0.37004054  1
  V  V22  1  0.86983796  0.12233039  0.74740679  1
  V  V23  1  0.75288471  0.62578853  0.88494103  1
  V  V24  1  0.25597415  0.25517281  0.49685143  1
  V  V25  1  0.37758510  0.25498650  0.62220722  1
  V  V26  1  0.87225547  0.49617919  0.86873535  1
  V  V27  1  0.49239344  0.37502543  0.87497250  1
  V  V28  1  0.00023531  0.00256266  0.49303842  1
  V  V29  1  0.86958846  0.12622732  0.25320691  1
  V  V30  1  0.86512121  0.25674754  0.62411119  1
  V  V31  1  0.37734036  0.49792537  0.37352116  1
  V  V32  1  0.37845370  0.25931207  0.12674141  1
  V  V33  1  0.87673364  -0.00471381  0.37351116  1
  V  V34  1  0.12464727  0.12963977  0.49472997  1
  V  V35  1  0.63952547  0.49805298  0.62853324  1
  V  V36  1  0.50447565  0.86813915  0.37811736  1
  V  V37  1  0.50207901  0.62525831  0.63465603  1
  V  V38  1  -0.00041196  0.25673418  0.75047635  1
  V  V39  1  -0.00835705  0.75826076  0.74137565  1
  V  V40  1  0.51008916  0.11859897  0.62350885  1
  V  V41  1  0.62411586  -0.00480733  0.12415917  1
  V  V42  1  0.00753090  0.25498873  0.24864543  1
  V  V43  1  0.62980885  0.74956819  0.87304901  1
  V  V44  1  0.49133998  0.62344695  0.12798031  1
  V  V45  1  0.11946604  0.49391548  0.13107960  1
  V  V46  1  0.24882949  0.12742254  0.87388831  1
  V  V47  1  0.24928945  0.38149257  0.61990770  1
  V  V48  1  0.63364389  0.88426079  0.74298888  1
  V  V49  1  0.37597133  0.87544004  0.50153504  1
  V  V50  1  0.62307551  0.12376472  0.00356418  1
  V  V51  1  0.37714613  0.00138790  0.37634266  1
  V  V52  1  0.37440158  0.87150990  -0.00052274  1
  V  V53  1  0.37820817  0.74877291  0.63295366  1
  V  V54  1  0.37312492  -0.00033286  0.87348116  1
  V  V55  1  0.49629950  0.49341335  0.50525572  1
  V  V56  1  0.88142637  0.37466727  -0.00520673  1
  V  V57  1  0.49784315  -0.00210567  -0.00135965  1
  V  V58  1  0.25050168  0.50384539  0.74807370  1
  V  V59  1  0.87377668  0.25031210  0.12416652  1
  V  V60  1  0.62684896  0.86363036  0.25384838  1
  V  V61  1  0.12185865  0.00244313  0.62377082  1
  V  V62  1  0.49859906  0.86498295  0.86476180  1
  V  V63  1  0.86438394  0.37989167  0.50200413  1
  V  V64  1  0.00210078  0.88300590  0.87743121  1
  V  V65  1  0.12214259  -0.00025227  0.12511310  1
  V  V66  1  0.37357930  0.12718122  0.74778607  1
  V  V67  1  0.62289379  0.63341382  0.49504962  1
  V  V68  1  0.25548080  0.25959474  -0.00048930  1
  V  V69  1  0.24774038  0.87580930  0.62491243  1
  V  V70  1  0.24979064  0.74719917  0.00470589  1
  V  V71  1  0.25338326  0.62663987  0.36441662  1
  V  V72  1  0.50787241  0.24396559  0.25531676  1
  V  V73  1  0.88837086  0.63174090  0.24604977  1
  V  V74  1  0.87957928  0.00470222  0.88647215  1
  V  V75  1  0.76293463  0.75166812  0.50068473  1
  V  V76  1  -0.00032336  0.12232901  0.12312917  1
  V  V77  1  0.12316580  0.74821424  0.87248725  1
  V  V78  1  0.25123579  0.49082397  0.25057526  1
  V  V79  1  0.12122540  0.25761614  0.87525914  1
  V  V80  1  -0.00247725  0.50320949  -0.00113874  1
  V  V81  1  0.74929453  -0.00081531  0.25193932  1
  V  V82  1  0.25275290  0.00140453  0.25032796  1
  V  V83  1  0.50525361  0.36956526  0.37959003  1
  V  V84  1  0.00293783  0.62402115  0.62734504  1
  Zn  Zn85  1  0.24944134  0.62211835  0.87588451  1
  Zn  Zn86  1  0.24653928  0.00168413  0.74854486  1
  Zn  Zn87  1  0.88613790  0.74636458  0.12291278  1
  Zn  Zn88  1  0.62341164  0.25165314  0.87415403  1
  Zn  Zn89  1  0.76847944  0.87239778  0.63007594  1
  Zn  Zn90  1  0.25238720  0.87669327  0.12613994  1
  Zn  Zn91  1  0.74786245  0.63054152  0.37214938  1
  Zn  Zn92  1  0.38034969  0.62573455  0.75577973  1
  Zn  Zn93  1  0.13077181  0.25580963  0.36741403  1
  Zn  Zn94  1  0.51833936  -0.00529592  0.50762494  1
  Zn  Zn95  1  0.12149488  0.87770931  0.74889983  1
  Zn  Zn96  1  0.62985253  0.37218708  0.25386864  1
  Zn  Zn97  1  0.62535843  0.62950962  0.00186504  1
  Zn  Zn98  1  0.37141032  0.74659170  0.12893919  1
  Zn  Zn99  1  0.50160577  0.25405066  0.74942860  1
  Zn  Zn100  1  0.75007579  0.37851578  0.12372603  1
  Zn  Zn101  1  0.87542059  0.50366090  0.37452464  1
  Zn  Zn102  1  0.37146200  0.50028551  0.87736213  1
  Zn  Zn103  1  0.74457029  0.24891721  0.48202407  1
  Zn  Zn104  1  0.25035023  0.37611458  0.12529451  1
  Zn  Zn105  1  0.64249056  0.12184890  0.47959449  1
  Zn  Zn106  1  0.88445506  0.86772752  0.50927053  1
  Zn  Zn107  1  0.19126886  0.18746412  0.18571897  1
  Zn  Zn108  1  0.18757988  0.19178654  0.68476431  1
  Zn  Zn109  1  0.06141267  0.68632368  0.18526171  1
  Zn  Zn110  1  0.18168103  0.68867516  0.68410132  1
  Zn  Zn111  1  0.68867137  0.18793213  0.31486902  1
  Zn  Zn112  1  0.68587978  0.19270685  0.68503070  1
  Zn  Zn113  1  0.68352192  0.68382435  0.18713950  1
  Zn  Zn114  1  0.68477772  0.69450898  0.68839662  1
  Zn  Zn115  1  0.32559769  0.31371582  0.31066359  1
  Zn  Zn116  1  0.31106716  0.31520653  0.80941837  1
  Zn  Zn117  1  0.31144583  0.81296487  0.31376988  1
  Zn  Zn118  1  0.30689327  0.81196098  0.81169289  1
  Zn  Zn119  1  0.82031943  0.32390535  0.30932826  1
  Zn  Zn120  1  0.81203659  0.30909885  0.81562098  1
  Zn  Zn121  1  0.81134775  0.80801130  0.31784987  1
  Zn  Zn122  1  0.81208635  0.81250483  0.81440752  1
  Zn  Zn123  1  0.18660518  0.43846816  0.43733591  1
  Zn  Zn124  1  0.18415788  0.43876847  0.93511991  1
  Zn  Zn125  1  0.18535334  0.93672599  0.43593504  1
  Zn  Zn126  1  0.18731577  0.93901452  0.93756173  1
  Zn  Zn127  1  0.68433115  0.44407617  0.43622462  1
  Zn  Zn128  1  0.68744898  0.44000456  0.93705366  1
  Zn  Zn129  1  0.68953224  0.93593516  0.44056797  1
  Zn  Zn130  1  0.68839776  0.93546168  0.93474134  1
  Zn  Zn131  1  0.30919645  0.06517223  0.06030054  1
  Zn  Zn132  1  0.31457512  0.06419523  0.55954774  1
  Zn  Zn133  1  0.30909336  0.56285138  0.06548152  1
  Zn  Zn134  1  0.31603571  0.56257339  0.56184273  1
  Zn  Zn135  1  0.81003565  0.05865970  0.06557601  1
  Zn  Zn136  1  0.79256459  0.05878814  0.56053315  1
  Zn  Zn137  1  0.81504681  0.56482376  0.06526894  1
  Zn  Zn138  1  0.81523058  0.56804213  0.56123770  1
  Zn  Zn139  1  0.43816450  0.43542332  0.19391997  1
  Zn  Zn140  1  0.43852578  0.43721861  0.68969257  1
  Zn  Zn141  1  0.43606512  0.93312353  0.18927501  1
  Zn  Zn142  1  0.43682430  0.93788255  0.69050166  1
  Zn  Zn143  1  0.93582933  0.43958891  0.18565632  1
  Zn  Zn144  1  0.93488733  0.44020898  0.68589182  1
  Zn  Zn145  1  0.93961829  0.93165296  0.18558627  1
  Zn  Zn146  1  0.90765345  0.95348933  0.67356320  1
  Zn  Zn147  1  0.06383185  0.06419977  0.30864322  1
  Zn  Zn148  1  0.05811424  0.06608944  0.80965878  1
  Zn  Zn149  1  0.06901422  0.55704911  0.31951288  1
  Zn  Zn150  1  0.05703867  0.56418648  0.81596110  1
  Zn  Zn151  1  0.55905761  0.05343762  0.30976589  1
  Zn  Zn152  1  0.55938443  0.06095405  0.81196442  1
  Zn  Zn153  1  0.56183367  0.55914743  0.31255916  1
  Zn  Zn154  1  0.56604245  0.55909537  0.81414327  1
  Zn  Zn155  1  0.44371129  0.18365595  0.43974737  1
  Zn  Zn156  1  0.43719396  0.19097156  0.93724791  1
  Zn  Zn157  1  0.43438148  0.68503836  0.44353078  1
  Zn  Zn158  1  0.43865418  0.68338929  0.93582689  1
  Zn  Zn159  1  0.92357184  0.19081339  0.43404452  1
  Zn  Zn160  1  0.94028429  0.18876043  0.93600497  1
  Zn  Zn161  1  0.93948398  0.68108001  0.43124155  1
  Zn  Zn162  1  0.93921182  0.68802297  0.93344799  1
  Zn  Zn163  1  0.06163293  0.31488521  0.06087139  1
  Zn  Zn164  1  0.06436872  0.31399877  0.56130586  1
  Zn  Zn165  1  0.06220681  0.81959365  0.05848072  1
  Zn  Zn166  1  0.05943814  0.81317155  0.56044268  1
  Zn  Zn167  1  0.56269356  0.31363150  0.06369314  1
  Zn  Zn168  1  0.57063085  0.30947159  0.56183586  1
  Zn  Zn169  1  0.56091765  0.80677146  0.06026465  1
  Zn  Zn170  1  0.56377039  0.81154310  0.56758168  1
  O  O171  1  0.12194052  0.12026108  0.11726933  1
  O  O172  1  0.12049356  0.12182322  0.61636152  1
  O  O173  1  0.12058814  0.61308250  0.11320974  1
  O  O174  1  0.11303186  0.62579151  0.61437620  1
  O  O175  1  0.61238132  0.11336309  0.11043324  1
  O  O176  1  0.60836827  0.12031876  0.64262002  1
  O  O177  1  0.61419143  0.61518131  0.12313479  1
  O  O178  1  0.62029003  0.61624599  0.62136216  1
  O  O179  1  0.38729862  0.38847640  0.37610814  1
  O  O180  1  0.38791340  0.37712402  0.86993603  1
  O  O181  1  0.37917789  0.88234306  0.38221508  1
  O  O182  1  0.38077133  0.87670262  0.87713853  1
  O  O183  1  0.88861441  0.38166036  0.38528626  1
  O  O184  1  0.87022611  0.38363084  0.88144442  1
  O  O185  1  0.89074958  0.87905131  0.37073376  1
  O  O186  1  0.87888849  0.88558422  0.88018883  1
  O  O187  1  0.25483079  0.00682825  0.37009869  1
  O  O188  1  0.25419640  0.00862223  0.87193858  1
  O  O189  1  0.25785869  0.50200896  0.37134487  1
  O  O190  1  0.25042264  0.49964613  0.86418073  1
  O  O191  1  0.76223516  -0.01539718  0.35922265  1
  O  O192  1  0.75906061  0.01262124  0.87983160  1
  O  O193  1  0.75195787  0.50582411  0.36498852  1
  O  O194  1  0.76236460  0.50949848  0.87798669  1
  O  O195  1  0.24281953  0.49831372  0.13379813  1
  O  O196  1  0.25541847  0.48758564  0.62779448  1
  O  O197  1  0.24372056  1.00227313  0.13377541  1
  O  O198  1  0.24073516  0.99393669  0.62178139  1
  O  O199  1  0.74087563  0.50220400  0.12905878  1
  O  O200  1  0.73769109  0.50384224  0.62164765  1
  O  O201  1  0.74525216  0.98923099  0.13567489  1
  O  O202  1  0.79693637  0.98537488  0.63839486  1
  O  O203  1  -0.00889546  0.36661225  0.25843917  1
  O  O204  1  0.00670463  0.36506294  0.74273995  1
  O  O205  1  0.01106579  0.87818521  0.26072710  1
  O  O206  1  -0.00029968  0.86923197  0.76217489  1
  O  O207  1  0.50293347  0.36553536  0.26030284  1
  O  O208  1  0.50920406  0.37659450  0.75959840  1
  O  O209  1  0.50699720  0.86726855  0.25744492  1
  O  O210  1  0.50622299  0.87734087  0.76088797  1
  O  O211  1  0.50127401  0.12841153  0.23671646  1
  O  O212  1  0.48736916  0.12714834  0.74563082  1
  O  O213  1  0.50546892  0.63362179  0.24447664  1
  O  O214  1  0.50126498  0.61966293  0.73857138  1
  O  O215  1  0.99356950  0.13292780  0.24125498  1
  O  O216  1  0.99555823  0.13908483  0.74231333  1
  O  O217  1  0.99334018  0.62112528  0.25464473  1
  O  O218  1  0.99504643  0.63233489  0.74268809  1
  O  O219  1  0.36514742  0.24486468  0.00914900  1
  O  O220  1  0.36367258  0.24369037  0.50721339  1
  O  O221  1  0.36779251  0.75595538  -0.00207367  1
  O  O222  1  0.36408660  0.75515946  0.51149979  1
  O  O223  1  0.87192207  0.25597574  0.00263880  1
  O  O224  1  0.87623435  0.26291857  0.50965326  1
  O  O225  1  0.87648213  0.76300491  -0.00352528  1
  O  O226  1  0.86550106  0.74274295  0.49712389  1
  O  O227  1  0.13813443  0.24519260  0.49661345  1
  O  O228  1  0.12967660  0.24615671  0.99179650  1
  O  O229  1  0.13785103  0.74325268  0.50482719  1
  O  O230  1  0.12941780  0.74430856  0.99351808  1
  O  O231  1  0.63657187  0.23389164  0.51836081  1
  O  O232  1  0.63355304  0.24148916  1.00121845  1
  O  O233  1  0.62359205  0.73512776  0.50245662  1
  O  O234  1  0.62033143  0.74790996  0.98180887  1
  O  O235  1  0.49508230  0.24204414  0.12802694  1
  O  O236  1  0.49133906  0.23995822  0.62782875  1
  O  O237  1  0.49842571  0.74027044  0.13335054  1
  O  O238  1  0.48972885  0.73961040  0.62074739  1
  O  O239  1  0.99126982  0.24633200  0.12773838  1
  O  O240  1  0.99554785  0.24640475  0.63049894  1
  O  O241  1  0.99969438  0.75751935  0.12551814  1
  O  O242  1  1.00895008  0.74208552  0.63634519  1
  O  O243  1  -0.00110428  0.25679647  0.36448442  1
  O  O244  1  0.00952819  0.24659446  0.86394076  1
  O  O245  1  0.00299676  0.76250707  0.37844218  1
  O  O246  1  0.00964671  0.75760752  0.86860765  1
  O  O247  1  0.48848770  0.25848560  0.36742856  1
  O  O248  1  0.50388667  0.25942427  0.87353153  1
  O  O249  1  0.49160358  0.75912614  0.37137339  1
  O  O250  1  0.50821198  0.75678705  0.87590911  1
  O  O251  1  0.24610283  0.13145183  0.48809161  1
  O  O252  1  0.23890250  0.13587948  0.99495549  1
  O  O253  1  0.24419666  0.63049805  0.49875520  1
  O  O254  1  0.23998186  0.63132320  0.99882162  1
  O  O255  1  0.76041610  0.13146333  0.48947329  1
  O  O256  1  0.74195666  0.12892593  0.99693165  1
  O  O257  1  0.73878800  0.63251409  0.50000638  1
  O  O258  1  0.75011437  0.62441510  0.98865448  1
  O  O259  1  0.24579534  0.36270710  -0.00074317  1
  O  O260  1  0.24694552  0.36721826  0.50692812  1
  O  O261  1  0.26166556  0.86933921  -0.00415484  1
  O  O262  1  0.25201547  0.86894057  0.50760111  1
  O  O263  1  0.75784861  0.36612768  -0.00031834  1
  O  O264  1  0.76203676  0.37779555  0.49294021  1
  O  O265  1  0.75969826  0.88194825  0.00865200  1
  O  O266  1  0.75824175  0.86129925  0.49981965  1
  O  O267  1  0.13324929  0.50293873  0.24076352  1
  O  O268  1  0.12510308  0.48809705  0.75637947  1
  O  O269  1  0.13673233  0.99751932  0.24311870  1
  O  O270  1  0.12347500  1.00308659  0.73487196  1
  O  O271  1  0.63295901  0.49983518  0.24179092  1
  O  O272  1  0.62572426  0.49294845  0.73827578  1
  O  O273  1  0.63143805  0.98623229  0.24329144  1
  O  O274  1  0.62516029  0.98263363  0.76087930  1
  O  O275  1  0.36109460  -0.00859673  0.25844485  1
  O  O276  1  0.36976452  0.00885134  0.75583017  1
  O  O277  1  0.36768899  0.50002774  0.26043334  1
  O  O278  1  0.36362166  0.50297987  0.75009983  1
  O  O279  1  0.87001864  0.00421456  0.25268383  1
  O  O280  1  0.88992026  0.02057837  0.76721644  1
  O  O281  1  0.86851125  0.51109008  0.24832638  1
  O  O282  1  0.88155107  0.51081500  0.75880241  1
  O  O283  1  0.11127900  0.37244744  0.37854752  1
  O  O284  1  0.12756926  0.36332212  0.86543273  1
  O  O285  1  0.11538420  0.87859277  0.36464157  1
  O  O286  1  0.11812679  0.87046603  0.87421114  1
  O  O287  1  0.61086918  0.38143302  0.37291090  1
  O  O288  1  0.61999474  0.37836888  0.86313217  1
  O  O289  1  0.61511577  0.87683810  0.36628857  1
  O  O290  1  0.61884416  0.86599585  0.87114550  1
  O  O291  1  0.38626135  0.13070004  0.11668662  1
  O  O292  1  0.37574283  0.13460276  0.63204525  1
  O  O293  1  0.38681716  0.62609651  0.12367763  1
  O  O294  1  0.38377735  0.63240319  0.62664164  1
  O  O295  1  0.87964391  0.12921656  0.13081995  1
  O  O296  1  0.88144921  0.13684643  0.63458993  1
  O  O297  1  0.87517607  0.62717159  0.14008832  1
  O  O298  1  0.88811366  0.62230426  0.63334017  1
  O  O299  1  0.25888862  0.25151641  0.11816961  1
  O  O300  1  0.25632888  0.25801591  0.61631600  1
  O  O301  1  0.25086555  0.75473562  0.10770659  1
  O  O302  1  0.25299796  0.75841478  0.61906841  1
  O  O303  1  0.76510039  0.24904677  0.11177032  1
  O  O304  1  0.76457527  0.25345378  0.62958661  1
  O  O305  1  0.75124099  0.75902105  0.12606643  1
  O  O306  1  0.74130455  0.75217042  0.60618687  1
  O  O307  1  0.25507312  0.24524115  0.37814662  1
  O  O308  1  0.24427358  0.24631756  0.88024969  1
  O  O309  1  0.25881297  0.73980742  0.38530075  1
  O  O310  1  0.23646821  0.75063492  0.88156725  1
  O  O311  1  0.76581575  0.24798194  0.36798098  1
  O  O312  1  0.74903955  0.23841628  0.88725809  1
  O  O313  1  0.74626128  0.74750066  0.39206616  1
  O  O314  1  0.73903062  0.74330152  0.87449841  1
  O  O315  1  0.01363761  0.13105148  0.00577763  1
  O  O316  1  0.00305120  0.12334185  0.50041743  1
  O  O317  1  0.00579940  0.61706239  -0.00420861  1
  O  O318  1  0.00695735  0.61915759  0.50438210  1
  O  O319  1  0.50564280  0.11837923  0.00167885  1
  O  O320  1  0.49901793  0.12078516  0.51761381  1
  O  O321  1  0.50272956  0.61554112  0.00882315  1
  O  O322  1  0.50954055  0.61846503  0.50974219  1
  O  O323  1  0.50623570  0.38234852  0.49589372  1
  O  O324  1  0.50841868  0.38381799  0.98856178  1
  O  O325  1  0.49638756  0.87509346  0.49459558  1
  O  O326  1  0.48898507  0.87676097  0.99184388  1
  O  O327  1  0.99599944  0.38192963  0.49597540  1
  O  O328  1  0.98766942  0.38040491  0.99850075  1
  O  O329  1  1.00463388  0.88259576  0.48529246  1
  O  O330  1  0.99129342  0.87633806  0.98534828  1
  O  O331  1  0.49481000  0.49527457  0.38360819  1
  O  O332  1  0.49917647  0.49432719  0.88431244  1
  O  O333  1  0.49008229  0.98500925  0.37463200  1
  O  O334  1  0.49175988  0.99122515  0.88122390  1
  O  O335  1  0.99976667  0.49369091  0.38718735  1
  O  O336  1  0.98669061  0.50303731  0.88702276  1
  O  O337  1  0.99637421  0.99472115  0.37590597  1
  O  O338  1  0.99590746  0.99453381  0.87559840  1
  O  O339  1  0.01385347  0.00529515  0.13129357  1
  O  O340  1  0.00405452  0.01005573  0.61478396  1
  O  O341  1  0.00536289  0.49517315  0.11117769  1
  O  O342  1  -0.00007841  0.50713018  0.61449420  1
  O  O343  1  0.50125524  0.00365359  0.11938643  1
  O  O344  1  0.49003050  0.01493613  0.62511526  1
  O  O345  1  0.50424458  0.50319922  0.12146579  1
  O  O346  1  0.50462096  0.50632811  0.61995019  1
  O  O347  1  0.25361562  0.38604333  0.25102128  1
  O  O348  1  0.24210672  0.38430184  0.74227689  1
  O  O349  1  0.24142927  0.88266948  0.25079430  1
  O  O350  1  0.24471598  0.87844613  0.73658663  1
  O  O351  1  0.75226197  0.39076778  0.24417506  1
  O  O352  1  0.73759981  0.37500467  0.75608153  1
  O  O353  1  0.74340175  0.87458570  0.24333453  1
  O  O354  1  0.73811334  0.87043590  0.74983008  1
  O  O355  1  0.24835561  0.11934246  0.26238859  1
  O  O356  1  0.25811530  0.12677022  0.75313851  1
  O  O357  1  0.24885235  0.61293342  0.26556481  1
  O  O358  1  0.24161668  0.61036183  0.74537174  1
  O  O359  1  0.75874408  0.11196450  0.24658254  1
  O  O360  1  0.75862012  0.13443312  0.76056504  1
  O  O361  1  0.75423290  0.61749689  0.25031339  1
  O  O362  1  0.76204791  0.63353420  0.75521524  1
  O  O363  1  0.37050051  0.10968911  0.38059379  1
  O  O364  1  0.36932465  0.12239076  0.86744868  1
  O  O365  1  0.36596051  0.61091695  0.38588746  1
  O  O366  1  0.36828665  0.62165030  0.87132066  1
  O  O367  1  0.88457397  0.11280539  0.35827591  1
  O  O368  1  0.86841443  0.12197610  0.87303057  1
  O  O369  1  0.87207038  0.62206080  0.36069970  1
  O  O370  1  0.86866557  0.61973824  0.86816037  1
  O  O371  1  0.12826146  0.38905117  0.11808401  1
  O  O372  1  0.13657684  0.36881922  0.63479966  1
  O  O373  1  0.13006310  0.88523448  0.13044176  1
  O  O374  1  0.12984080  0.88529606  0.62308150  1
  O  O375  1  0.62691124  0.38728426  0.12696362  1
  O  O376  1  0.62138411  0.38946787  0.63711958  1
  O  O377  1  0.62997124  0.87623516  0.12911736  1
  O  O378  1  0.62397402  0.87438417  0.64102567  1
  O  O379  1  0.11193035  0.24692200  0.24665562  1
  O  O380  1  0.11949934  0.25793487  0.75546745  1
  O  O381  1  0.13248990  0.75934917  0.24386281  1
  O  O382  1  0.11678911  0.75321999  0.75760805  1
  O  O383  1  0.61120864  0.25275720  0.24439244  1
  O  O384  1  0.62311767  0.26614471  0.75084680  1
  O  O385  1  0.61496174  0.75875638  0.24722991  1
  O  O386  1  0.62389318  0.76004638  0.76457709  1
  O  O387  1  0.38789452  0.24833379  0.23755554  1
  O  O388  1  0.37465345  0.24306775  0.74207783  1
  O  O389  1  0.38781862  0.75708689  0.24696624  1
  O  O390  1  0.36575443  0.74699197  0.73688321  1
  O  O391  1  0.88217411  0.24276507  0.23904351  1
  O  O392  1  0.88288550  0.24638436  0.74688185  1
  O  O393  1  0.87183097  0.73448621  0.24956559  1
  O  O394  1  0.88624091  0.74055264  0.76092505  1
  O  O395  1  0.39030547  0.50172148  0.49697502  1
  O  O396  1  0.38643163  0.50044316  1.00182890  1
  O  O397  1  0.37511676  0.99076916  0.49234997  1
  O  O398  1  0.37621694  0.99244792  0.99319846  1
  O  O399  1  0.88331237  0.49557895  0.49999367  1
  O  O400  1  0.87941063  0.49347503  0.99602671  1
  O  O401  1  0.88188349  0.99476932  0.48158174  1
  O  O402  1  0.87554921  0.99578473  0.99129979  1
  O  O403  1  0.13278663  0.01082440  0.01043841  1
  O  O404  1  0.12080675  0.00808534  0.50649574  1
  O  O405  1  0.11631342  0.50696310  0.00180695  1
  O  O406  1  0.11800676  0.50821559  0.49994555  1
  O  O407  1  0.61828022  0.00306073  0.00293694  1
  O  O408  1  0.63079382  0.00788268  0.50061886  1
  O  O409  1  0.61738252  0.50375347  0.00754513  1
  O  O410  1  0.61820244  0.50699494  0.51302216  1
  O  O411  1  0.37531198  0.36327192  0.12524159  1
  O  O412  1  0.36746256  0.36179185  0.63100109  1
  O  O413  1  0.37301277  0.87211651  0.11326529  1
  O  O414  1  0.36792913  0.86998411  0.62170017  1
  O  O415  1  0.87344729  0.36633221  0.11550561  1
  O  O416  1  0.88031169  0.36960805  0.61471008  1
  O  O417  1  0.86735884  0.87404970  0.11588703  1
  O  O418  1  0.88894827  0.85590845  0.62356922  1
  O  O419  1  0.13465086  0.12940061  0.37852962  1
  O  O420  1  0.12861832  0.13351020  0.87949333  1
  O  O421  1  0.13678537  0.62169692  0.38921488  1
  O  O422  1  0.12446431  0.63329732  0.88423663  1
  O  O423  1  0.60975790  0.13078811  0.36874051  1
  O  O424  1  0.62987273  0.12468021  0.88401656  1
  O  O425  1  0.62343391  0.61778365  0.39295547  1
  O  O426  1  0.63417224  0.63285060  0.87252549  1
