# generated using pymatgen
data_V85Zn86O256
_symmetry_space_group_name_H-M   'P 1'
_cell_length_a   16.95440471
_cell_length_b   16.92952844
_cell_length_c   16.94123605
_cell_angle_alpha   90.00983404
_cell_angle_beta   89.98233398
_cell_angle_gamma   90.01775526
_symmetry_Int_Tables_number   1
_chemical_formula_structural   V85Zn86O256
_chemical_formula_sum   'V85 Zn86 O256'
_cell_volume   4862.64374389
_cell_formula_units_Z   1
loop_
 _symmetry_equiv_pos_site_id
 _symmetry_equiv_pos_as_xyz
  1  'x, y, z'
loop_
 _atom_site_type_symbol
 _atom_site_label
 _atom_site_symmetry_multiplicity
 _atom_site_fract_x
 _atom_site_fract_y
 _atom_site_fract_z
 _atom_site_occupancy
  V  V0  1  0.62667676  0.74518416  0.88830462  1
  V  V1  1  0.86862459  0.12638771  0.74746240  1
  V  V2  1  0.87553033  0.50202548  0.87355219  1
  V  V3  1  0.62509694  0.50227635  0.61833411  1
  V  V4  1  0.74972078  0.87569511  0.12458457  1
  V  V5  1  0.49937386  0.12502762  0.12888802  1
  V  V6  1  0.62947520  0.00104277  0.13142488  1
  V  V7  1  0.00079850  0.88903096  0.37711485  1
  V  V8  1  0.74891264  0.49855635  0.25436902  1
  V  V9  1  0.25869795  0.62560654  0.86975307  1
  V  V10  1  0.00285748  0.62792674  0.61340600  1
  V  V11  1  0.74368959  0.64424813  0.37919584  1
  V  V12  1  0.63091730  0.87273763  0.74972089  1
  V  V13  1  0.63659000  0.12836600  -0.00264764  1
  V  V14  1  0.74644898  0.62585538  0.88968845  1
  V  V15  1  0.49786040  0.37868994  0.37327192  1
  V  V16  1  -0.00335199  0.87739626  0.87961029  1
  V  V17  1  0.26774026  0.62679511  0.36834025  1
  V  V18  1  0.50062823  0.37213237  0.87411225  1
  V  V19  1  0.12438835  0.87985478  0.25047671  1
  V  V20  1  0.50301057  0.87025477  0.37485921  1
  V  V21  1  0.63097948  0.11758114  0.49561856  1
  V  V22  1  0.86505662  0.00682560  0.88023565  1
  V  V23  1  0.12407884  0.00193583  0.62140867  1
  V  V24  1  0.37258263  0.74154368  0.63006438  1
  V  V25  1  0.87331281  0.86998230  -0.00026721  1
  V  V26  1  0.25182185  0.13993387  0.37530801  1
  V  V27  1  0.37525093  0.00101055  0.87640560  1
  V  V28  1  0.86145705  0.75424912  0.62066240  1
  V  V29  1  0.37378323  0.87911268  0.50114377  1
  V  V30  1  0.13090615  0.25331498  0.88045226  1
  V  V31  1  0.12149191  0.74123833  0.37635498  1
  V  V32  1  0.12438378  0.74936729  0.87590114  1
  V  V33  1  0.24934244  0.87888361  0.12652118  1
  V  V34  1  0.25915501  0.50196476  0.74462045  1
  V  V35  1  0.86760156  0.74831031  0.12216383  1
  V  V36  1  0.12786301  0.49839631  0.12704843  1
  V  V37  1  -0.00111080  0.75034730  0.74704692  1
  V  V38  1  0.87035676  0.36372299  0.00012147  1
  V  V39  1  0.37368087  0.74438735  0.13448800  1
  V  V40  1  0.62838119  0.24470117  0.37372600  1
  V  V41  1  0.37362880  0.36878830  0.50107541  1
  V  V42  1  0.00177022  0.37637022  0.86933176  1
  V  V43  1  0.00110310  0.49885534  -0.00115635  1
  V  V44  1  0.88428831  0.37667903  0.49277729  1
  V  V45  1  0.37178093  0.00215088  0.36479975  1
  V  V46  1  0.86491908  0.87544855  0.50330007  1
  V  V47  1  0.12309778  0.87851153  0.75100314  1
  V  V48  1  0.87510464  0.62639894  0.74709167  1
  V  V49  1  0.10840356  0.00570522  0.12107608  1
  V  V50  1  0.37286890  0.37136499  -0.00205045  1
  V  V51  1  0.62571627  0.37450111  0.74781484  1
  V  V52  1  0.24912240  0.74784879  0.00119558  1
  V  V53  1  0.37120656  0.24496441  0.12439858  1
  V  V54  1  -0.00143765  0.75198717  0.24937378  1
  V  V55  1  0.25186035  0.13245654  0.88696441  1
  V  V56  1  0.37544296  0.87444316  0.00217280  1
  V  V57  1  0.26528286  0.50511324  0.24935911  1
  V  V58  1  0.86611049  0.12735214  0.22891783  1
  V  V59  1  0.13022483  0.14591459  0.50119811  1
  V  V60  1  0.49662640  0.24602830  0.25049681  1
  V  V61  1  0.75052192  0.25036575  0.50081742  1
  V  V62  1  0.49704824  0.62245074  0.13192565  1
  V  V63  1  0.50194289  0.12352608  0.62483212  1
  V  V64  1  0.37567145  0.12848250  0.75031082  1
  V  V65  1  0.24949988  0.87476626  0.62608723  1
  V  V66  1  0.84879315  0.00857215  0.37191205  1
  V  V67  1  0.50379890  0.50444082  -0.00149014  1
  V  V68  1  0.74992496  0.50261844  0.74739286  1
  V  V69  1  0.24458145  0.74519047  0.49984309  1
  V  V70  1  0.87436255  0.62069057  0.25293647  1
  V  V71  1  0.24941167  0.37115145  0.12401860  1
  V  V72  1  -0.00114712  0.62248146  0.12526667  1
  V  V73  1  0.62738666  0.86728641  0.25203335  1
  V  V74  1  0.75015093  0.36472354  0.12128235  1
  V  V75  1  0.24794677  0.00220696  0.75235650  1
  V  V76  1  0.49636931  0.50357590  0.49552906  1
  V  V77  1  0.62856776  0.50640090  0.12062203  1
  V  V78  1  0.50086180  0.87351111  0.87598901  1
  V  V79  1  0.63287583  -0.00331235  0.62382833  1
  V  V80  1  0.12725872  0.50394066  0.61969559  1
  V  V81  1  0.12008746  0.37305285  0.26981218  1
  V  V82  1  0.50119259  0.00161447  0.00142472  1
  V  V83  1  0.49577914  0.74132333  0.75381748  1
  V  V84  1  0.63913371  0.24798637  0.87745125  1
  Zn  Zn85  1  0.74734270  -0.00042314  0.75131328  1
  Zn  Zn86  1  -0.00239962  0.00411184  0.50278761  1
  Zn  Zn87  1  0.62560531  0.64117825  0.49951467  1
  Zn  Zn88  1  0.49994820  0.74225791  0.25728068  1
  Zn  Zn89  1  0.49906871  0.00048500  0.49907438  1
  Zn  Zn90  1  0.00068843  0.24605884  0.75132013  1
  Zn  Zn91  1  0.87877352  0.25077145  0.62427464  1
  Zn  Zn92  1  0.36978586  0.24528423  0.61939945  1
  Zn  Zn93  1  0.88199769  0.49368484  0.37094180  1
  Zn  Zn94  1  0.00113114  0.12632401  0.62790955  1
  Zn  Zn95  1  0.12643353  0.62354967  -0.00175951  1
  Zn  Zn96  1  0.24753861  0.00923922  0.25028393  1
  Zn  Zn97  1  0.49890472  0.62420223  0.62596429  1
  Zn  Zn98  1  -0.00522001  0.23952223  0.24562886  1
  Zn  Zn99  1  0.01193304  0.49840659  0.48986139  1
  Zn  Zn100  1  0.75301884  0.37608260  0.62170556  1
  Zn  Zn101  1  0.24363084  0.36527700  0.61980620  1
  Zn  Zn102  1  0.37863083  0.50298482  0.86919980  1
  Zn  Zn103  1  0.12872400  0.37610148  0.74791444  1
  Zn  Zn104  1  0.50354209  0.24995315  0.74816976  1
  Zn  Zn105  1  0.62591028  0.37259661  0.24809622  1
  Zn  Zn106  1  0.11558101  0.13035343  0.00970433  1
  Zn  Zn107  1  0.18487482  0.18962156  0.19298700  1
  Zn  Zn108  1  0.18767808  0.19116770  0.69278958  1
  Zn  Zn109  1  0.18650652  0.68755748  0.19004042  1
  Zn  Zn110  1  0.18571251  0.68562463  0.68972096  1
  Zn  Zn111  1  0.69130045  0.18167659  0.19276102  1
  Zn  Zn112  1  0.69032602  0.18646051  0.68702584  1
  Zn  Zn113  1  0.68662345  0.68553164  0.18605981  1
  Zn  Zn114  1  0.68291986  0.68596330  0.69142173  1
  Zn  Zn115  1  0.31593429  0.31744008  0.30963093  1
  Zn  Zn116  1  0.31179812  0.31355018  0.80715374  1
  Zn  Zn117  1  0.31193582  0.81510124  0.31381082  1
  Zn  Zn118  1  0.31262373  0.81274490  0.81325754  1
  Zn  Zn119  1  0.81249978  0.30710806  0.31194588  1
  Zn  Zn120  1  0.81451189  0.31511622  0.81078610  1
  Zn  Zn121  1  0.81804489  0.82117333  0.30757862  1
  Zn  Zn122  1  0.80948453  0.80805951  0.81351124  1
  Zn  Zn123  1  0.19565732  0.44779760  0.43830626  1
  Zn  Zn124  1  0.19017208  0.43935222  0.93713817  1
  Zn  Zn125  1  0.18874403  0.93818655  0.43553444  1
  Zn  Zn126  1  0.18640227  0.93947572  0.93970017  1
  Zn  Zn127  1  0.68674931  0.43381210  0.43557109  1
  Zn  Zn128  1  0.68720191  0.43733245  0.93694498  1
  Zn  Zn129  1  0.68388172  0.81946962  0.43805649  1
  Zn  Zn130  1  0.68720868  0.93305503  0.94307576  1
  Zn  Zn131  1  0.31122466  0.06214480  0.06452859  1
  Zn  Zn132  1  0.30901456  0.06539712  0.56180805  1
  Zn  Zn133  1  0.31514394  0.56092602  0.05881967  1
  Zn  Zn134  1  0.31240419  0.56047250  0.55547082  1
  Zn  Zn135  1  0.81215469  0.05671022  0.05943915  1
  Zn  Zn136  1  0.81190643  0.06067012  0.55988120  1
  Zn  Zn137  1  0.81636701  0.55440578  0.06549404  1
  Zn  Zn138  1  0.81418705  0.56340295  0.55844773  1
  Zn  Zn139  1  0.44059148  0.43289899  0.18524487  1
  Zn  Zn140  1  0.43856166  0.43872880  0.68419823  1
  Zn  Zn141  1  0.43952978  0.93536634  0.18937273  1
  Zn  Zn142  1  0.44032928  0.93667323  0.68931090  1
  Zn  Zn143  1  0.95539678  0.39869587  0.17210049  1
  Zn  Zn144  1  0.93791289  0.43808431  0.67903967  1
  Zn  Zn145  1  0.93387181  0.94650949  0.19442857  1
  Zn  Zn146  1  0.93644271  0.94142406  0.69009437  1
  Zn  Zn147  1  0.04235396  0.10110693  0.33214271  1
  Zn  Zn148  1  0.04055046  0.08083743  0.84961905  1
  Zn  Zn149  1  0.06541630  0.55687307  0.30973178  1
  Zn  Zn150  1  0.06841547  0.56398914  0.80685825  1
  Zn  Zn151  1  0.56468209  0.05632484  0.31374814  1
  Zn  Zn152  1  0.56472461  0.06290771  0.81311530  1
  Zn  Zn153  1  0.56628068  0.56131058  0.31156700  1
  Zn  Zn154  1  0.56528601  0.56221655  0.81269160  1
  Zn  Zn155  1  0.43949732  0.18494610  0.43599453  1
  Zn  Zn156  1  0.44331797  0.18964882  0.93969695  1
  Zn  Zn157  1  0.43943990  0.69182156  0.44461760  1
  Zn  Zn158  1  0.43795239  0.68693317  0.94394260  1
  Zn  Zn159  1  0.93802529  0.19038829  0.43368876  1
  Zn  Zn160  1  0.94003828  0.18778206  0.94336639  1
  Zn  Zn161  1  0.93422137  0.68882201  0.43378848  1
  Zn  Zn162  1  0.93613116  0.68724782  0.93716726  1
  Zn  Zn163  1  0.06216689  0.30878196  0.06363688  1
  Zn  Zn164  1  0.05885470  0.31432599  0.56854968  1
  Zn  Zn165  1  0.05997755  0.81340140  0.06249017  1
  Zn  Zn166  1  0.05937799  0.81458921  0.56022909  1
  Zn  Zn167  1  0.56602990  0.31341833  0.06092094  1
  Zn  Zn168  1  0.56151149  0.31079994  0.56154288  1
  Zn  Zn169  1  0.56077804  0.81082842  0.06633970  1
  Zn  Zn170  1  0.55708868  0.81425139  0.56769406  1
  O  O171  1  0.12702969  0.11116899  0.12720102  1
  O  O172  1  0.12959717  0.11825868  0.61637529  1
  O  O173  1  0.11876023  0.61413221  0.12587911  1
  O  O174  1  0.11361219  0.62007450  0.62968994  1
  O  O175  1  0.61905958  0.11792262  0.12010209  1
  O  O176  1  0.61872249  0.11745351  0.62167444  1
  O  O177  1  0.61772840  0.61378501  0.12521784  1
  O  O178  1  0.62291092  0.61565964  0.62181903  1
  O  O179  1  0.38949069  0.37203815  0.38331129  1
  O  O180  1  0.38288003  0.37589280  0.88135950  1
  O  O181  1  0.37787289  0.88249105  0.38279082  1
  O  O182  1  0.37992612  0.88002107  0.88270781  1
  O  O183  1  0.86969644  0.37446735  0.38766687  1
  O  O184  1  0.88103722  0.38390760  0.87994493  1
  O  O185  1  0.88260012  0.88474505  0.38184949  1
  O  O186  1  0.87755942  0.87264636  0.88304800  1
  O  O187  1  0.25859859  0.00272092  0.37234476  1
  O  O188  1  0.25611882  0.00623488  0.87128592  1
  O  O189  1  0.25225076  0.51974699  0.36676052  1
  O  O190  1  0.25187862  0.50912135  0.86628373  1
  O  O191  1  0.75433643  -0.00276029  0.38033698  1
  O  O192  1  0.76227398  -0.01090158  0.87369637  1
  O  O193  1  0.75048692  0.50087974  0.36136283  1
  O  O194  1  0.75371680  0.50548245  0.86624035  1
  O  O195  1  0.24504223  0.49739595  0.12997192  1
  O  O196  1  0.24539078  0.50330141  0.62967880  1
  O  O197  1  0.25143481  0.98779350  0.13005693  1
  O  O198  1  0.24634767  0.99369620  0.63267313  1
  O  O199  1  0.74273711  0.49885148  0.13486898  1
  O  O200  1  0.74298525  0.50177732  0.63033782  1
  O  O201  1  0.73887877  0.98929960  0.12006375  1
  O  O202  1  0.73590147  1.00059127  0.62697209  1
  O  O203  1  0.02008244  0.39361311  0.26687754  1
  O  O204  1  -0.00098551  0.38253454  0.76249819  1
  O  O205  1  0.00436266  0.87208581  0.25754869  1
  O  O206  1  0.00345514  0.86692804  0.75542778  1
  O  O207  1  0.50382020  0.36644303  0.25579006  1
  O  O208  1  0.50557768  0.37561543  0.75795217  1
  O  O209  1  0.50740944  0.87169131  0.25725838  1
  O  O210  1  0.50480209  0.86604588  0.75998387  1
  O  O211  1  0.50444143  0.12951294  0.23712170  1
  O  O212  1  0.49223206  0.12394401  0.74440722  1
  O  O213  1  0.50296733  0.62395592  0.23742253  1
  O  O214  1  0.50157002  0.63727784  0.75070235  1
  O  O215  1  0.97413151  0.11139799  0.24196170  1
  O  O216  1  0.98235799  0.12346432  0.75687333  1
  O  O217  1  0.99154580  0.62989277  0.24285140  1
  O  O218  1  0.99361354  0.63277871  0.74384242  1
  O  O219  1  0.38295902  0.26322832  0.00834719  1
  O  O220  1  0.38407859  0.26506577  0.49911446  1
  O  O221  1  0.36842646  0.75615102  0.01009150  1
  O  O222  1  0.36715193  0.76168304  0.50856809  1
  O  O223  1  0.87517297  0.26426709  -0.00707291  1
  O  O224  1  0.86759548  0.25727329  0.49817842  1
  O  O225  1  0.87881661  0.75906197  0.00850769  1
  O  O226  1  0.88019906  0.76494989  0.50664700  1
  O  O227  1  0.12766527  0.24385228  0.50493456  1
  O  O228  1  0.12171892  0.24921261  0.98779286  1
  O  O229  1  0.13400426  0.75655848  0.48980494  1
  O  O230  1  0.13106719  0.74861989  0.99462637  1
  O  O231  1  0.63012768  0.24282540  0.49321804  1
  O  O232  1  0.62013986  0.24056043  0.99095862  1
  O  O233  1  0.62097516  0.75417042  0.50137620  1
  O  O234  1  0.61904660  0.75183179  0.98756743  1
  O  O235  1  0.49680164  0.24416744  0.13063663  1
  O  O236  1  0.49927152  0.23551357  0.62741295  1
  O  O237  1  0.49031965  0.73906890  0.12369633  1
  O  O238  1  0.48832161  0.74951395  0.63659125  1
  O  O239  1  0.98918606  0.29064634  0.14290284  1
  O  O240  1  0.99720344  0.24498238  0.63402529  1
  O  O241  1  0.99043053  0.74442097  0.12989018  1
  O  O242  1  0.99516268  0.74549959  0.63125721  1
  O  O243  1  0.01330408  0.21336384  0.35600599  1
  O  O244  1  0.00666035  0.26318425  0.87215579  1
  O  O245  1  0.00625725  0.75833423  0.36933408  1
  O  O246  1  0.00335172  0.75640919  0.86792264  1
  O  O247  1  0.50609047  0.25294568  0.36632185  1
  O  O248  1  0.50691754  0.26322380  0.87439606  1
  O  O249  1  0.49106398  0.76534697  0.37329362  1
  O  O250  1  0.50321570  0.75275488  0.87180500  1
  O  O251  1  0.23931780  0.12472255  0.49355957  1
  O  O252  1  0.24749220  0.12169461  0.98892462  1
  O  O253  1  0.25545336  0.63706931  0.48574890  1
  O  O254  1  0.24797512  0.63149675  0.99356947  1
  O  O255  1  0.73733596  0.13275921  0.50513718  1
  O  O256  1  0.73517529  0.11913275  1.00082320  1
  O  O257  1  0.75024437  0.62377221  0.48111182  1
  O  O258  1  0.75733041  0.61654841  0.98819955  1
  O  O259  1  0.25986107  0.38233269  0.01313500  1
  O  O260  1  0.27148688  0.38608073  0.49998859  1
  O  O261  1  0.25423195  0.86864848  0.00802958  1
  O  O262  1  0.25531374  0.86439135  0.50371745  1
  O  O263  1  0.75641859  0.38174794  0.01103892  1
  O  O264  1  0.75517760  0.36555820  0.50041006  1
  O  O265  1  0.75759205  0.87185582  0.01317516  1
  O  O266  1  0.76652366  0.87526586  0.49647520  1
  O  O267  1  0.13830291  0.49398532  0.24253461  1
  O  O268  1  0.13751346  0.50102995  0.73867846  1
  O  O269  1  0.12641914  0.98671737  0.23682502  1
  O  O270  1  0.13303150  0.99470184  0.74029243  1
  O  O271  1  0.63266401  0.49572899  0.24054472  1
  O  O272  1  0.63174519  0.49643394  0.74066453  1
  O  O273  1  0.61779995  0.98843516  0.23623931  1
  O  O274  1  0.62558540  0.99137059  0.74573533  1
  O  O275  1  0.37221947  -0.00379493  0.26161897  1
  O  O276  1  0.37067480  0.00778118  0.75699285  1
  O  O277  1  0.36436954  0.49625083  0.24207816  1
  O  O278  1  0.36471179  0.50034864  0.74875623  1
  O  O279  1  0.86736912  0.00308309  0.26459080  1
  O  O280  1  0.86809797  0.00404074  0.76044104  1
  O  O281  1  0.86700661  0.51366761  0.24772771  1
  O  O282  1  0.86795356  0.50527155  0.75233471  1
  O  O283  1  0.14059009  0.37816763  0.36709532  1
  O  O284  1  0.11877989  0.37270332  0.87489402  1
  O  O285  1  0.12001819  0.86905231  0.36663554  1
  O  O286  1  0.11572059  0.87210409  0.87258475  1
  O  O287  1  0.61414206  0.36387169  0.37331786  1
  O  O288  1  0.61845362  0.37104116  0.86841929  1
  O  O289  1  0.61608146  0.87868031  0.36390043  1
  O  O290  1  0.61876896  0.86770212  0.87096726  1
  O  O291  1  0.38160284  0.13709326  0.11884800  1
  O  O292  1  0.38254639  0.12218603  0.63335312  1
  O  O293  1  0.38261871  0.63288803  0.12061643  1
  O  O294  1  0.37474825  0.63910647  0.61786380  1
  O  O295  1  0.86887711  0.12398685  0.12808324  1
  O  O296  1  0.87691552  0.12285584  0.63523277  1
  O  O297  1  0.87860855  0.63076276  0.13088205  1
  O  O298  1  0.88093388  0.63250155  0.62827709  1
  O  O299  1  0.25940424  0.25815737  0.13080881  1
  O  O300  1  0.25752025  0.25330864  0.63234698  1
  O  O301  1  0.25423498  0.75769754  0.12194076  1
  O  O302  1  0.25272572  0.75355957  0.61874989  1
  O  O303  1  0.74004101  0.26681236  0.12746816  1
  O  O304  1  0.75030865  0.25271406  0.61159576  1
  O  O305  1  0.76253387  0.75230620  0.12735000  1
  O  O306  1  0.76290577  0.74463411  0.63131078  1
  O  O307  1  0.26073738  0.23852576  0.37395264  1
  O  O308  1  0.24574156  0.24435029  0.87371827  1
  O  O309  1  0.24439146  0.74467330  0.37965814  1
  O  O310  1  0.24548699  0.74483895  0.88001958  1
  O  O311  1  0.73464727  0.25358528  0.38299992  1
  O  O312  1  0.73777249  0.25932901  0.87559170  1
  O  O313  1  0.75086748  0.74759557  0.37062667  1
  O  O314  1  0.73908843  0.73797351  0.87166446  1
  O  O315  1  0.01525142  0.11055138  -0.04007167  1
  O  O316  1  0.01953406  0.12215905  0.50340147  1
  O  O317  1  -0.00024471  0.61393969  0.00550053  1
  O  O318  1  -0.00441362  0.63077066  0.51183079  1
  O  O319  1  0.50585298  0.12002725  0.01164051  1
  O  O320  1  0.50876778  0.12335939  0.50817178  1
  O  O321  1  0.49497977  0.61018154  0.00934202  1
  O  O322  1  0.50467141  0.61728761  0.50014409  1
  O  O323  1  0.49609834  0.38138061  0.49216306  1
  O  O324  1  0.49565699  0.38340647  0.99372251  1
  O  O325  1  0.48869247  0.87837752  0.49380235  1
  O  O326  1  0.49474796  0.88100763  0.99657803  1
  O  O327  1  0.98783067  0.37629618  0.49897042  1
  O  O328  1  0.99364409  0.38578790  0.98933379  1
  O  O329  1  0.99311475  0.87894877  0.48993714  1
  O  O330  1  0.98982503  0.86913188  0.98994813  1
  O  O331  1  0.50887491  0.49070141  0.38196494  1
  O  O332  1  0.50067811  0.49163333  0.88076411  1
  O  O333  1  0.48975963  0.99045941  0.37665691  1
  O  O334  1  0.49434539  0.99481998  0.88143422  1
  O  O335  1  0.99103538  0.52354846  0.38270830  1
  O  O336  1  0.99864059  0.49932784  0.88112445  1
  O  O337  1  1.00731392  0.99274189  0.37680122  1
  O  O338  1  0.98049291  0.98057244  0.86560291  1
  O  O339  1  0.01076573  -0.00846108  0.12172851  1
  O  O340  1  0.01064878  0.00353845  0.62575942  1
  O  O341  1  0.00814813  0.49846945  0.11723637  1
  O  O342  1  0.00831786  0.51111103  0.62038050  1
  O  O343  1  0.50373075  0.00711622  0.12112933  1
  O  O344  1  0.50521306  0.01066356  0.62592556  1
  O  O345  1  0.50713550  0.50325795  0.11891127  1
  O  O346  1  0.50854206  0.50363775  0.61697851  1
  O  O347  1  0.24780649  0.38431700  0.23989905  1
  O  O348  1  0.25010074  0.38837763  0.74617378  1
  O  O349  1  0.24054400  0.87357430  0.24215111  1
  O  O350  1  0.24442172  0.88186179  0.74733007  1
  O  O351  1  0.75043948  0.38186860  0.23952020  1
  O  O352  1  0.74643113  0.38859166  0.74740447  1
  O  O353  1  0.74259587  0.87037367  0.23579512  1
  O  O354  1  0.73387455  0.87214030  0.75286520  1
  O  O355  1  0.24264746  0.12491783  0.26963371  1
  O  O356  1  0.26031662  0.11793193  0.75834593  1
  O  O357  1  0.25162954  0.62207243  0.25936408  1
  O  O358  1  0.24901650  0.61879846  0.75906394  1
  O  O359  1  0.76340260  0.11706789  0.24801160  1
  O  O360  1  0.76222237  0.12113052  0.75003101  1
  O  O361  1  0.75457458  0.62141543  0.25841284  1
  O  O362  1  0.75433995  0.61467623  0.75520407  1
  O  O363  1  0.36204299  0.11448957  0.38597899  1
  O  O364  1  0.37189623  0.12203424  0.87135909  1
  O  O365  1  0.36581837  0.63697318  0.37176628  1
  O  O366  1  0.36285022  0.62435307  0.88119632  1
  O  O367  1  0.87008327  0.10821630  0.38458688  1
  O  O368  1  0.87039918  0.10975360  0.87247501  1
  O  O369  1  0.86018458  0.62960356  0.36586948  1
  O  O370  1  0.86882729  0.62119924  0.86699885  1
  O  O371  1  0.13540919  0.38693282  0.12452099  1
  O  O372  1  0.12555811  0.38799427  0.62766402  1
  O  O373  1  0.13143048  0.87861116  0.13034603  1
  O  O374  1  0.13077305  0.87916006  0.63141719  1
  O  O375  1  0.63524033  0.38566624  0.12384136  1
  O  O376  1  0.62542589  0.38351954  0.63110259  1
  O  O377  1  0.63082392  0.88090376  0.12749511  1
  O  O378  1  0.61244634  0.88627449  0.63841814  1
  O  O379  1  0.12498507  0.27216414  0.24487529  1
  O  O380  1  0.12195409  0.25626143  0.76459201  1
  O  O381  1  0.11822766  0.76091558  0.25344948  1
  O  O382  1  0.11971181  0.75819505  0.75660719  1
  O  O383  1  0.61589269  0.24846826  0.25626724  1
  O  O384  1  0.62507548  0.25623641  0.75669387  1
  O  O385  1  0.61907303  0.76287078  0.23956951  1
  O  O386  1  0.61442637  0.75599596  0.75706427  1
  O  O387  1  0.38877317  0.25479980  0.23974308  1
  O  O388  1  0.38125300  0.23638982  0.75302893  1
  O  O389  1  0.37658781  0.75630297  0.23701305  1
  O  O390  1  0.38196104  0.75598471  0.74176969  1
  O  O391  1  0.87133132  0.23190648  0.25260986  1
  O  O392  1  0.87342704  0.23904143  0.75008517  1
  O  O393  1  0.87991940  0.74228134  0.24299296  1
  O  O394  1  0.88076387  0.74730255  0.74207310  1
  O  O395  1  0.39090344  0.49224287  0.50204243  1
  O  O396  1  0.38430420  0.48733181  0.99817728  1
  O  O397  1  0.37210889  0.98847766  0.49659501  1
  O  O398  1  0.38088937  0.99475918  0.99653262  1
  O  O399  1  0.87232628  0.48470671  0.49729741  1
  O  O400  1  0.88459071  0.49475747  0.99198027  1
  O  O401  1  0.87714326  0.99016409  0.49375232  1
  O  O402  1  0.87162153  0.98675953  0.98741396  1
  O  O403  1  0.13117219  -0.00213787  0.01983493  1
  O  O404  1  0.12751844  -0.00656658  0.51571343  1
  O  O405  1  0.11805535  0.50179631  0.00704951  1
  O  O406  1  0.12895192  0.50223651  0.51351887  1
  O  O407  1  0.61738936  0.00403211  0.00838715  1
  O  O408  1  0.61885579  0.00863464  0.51056165  1
  O  O409  1  0.61588793  0.49546627  0.00745251  1
  O  O410  1  0.61891943  0.49873684  0.50811109  1
  O  O411  1  0.37039065  0.36553035  0.11807969  1
  O  O412  1  0.38209985  0.37133631  0.60937728  1
  O  O413  1  0.36785780  0.86935722  0.12102722  1
  O  O414  1  0.36857637  0.86988456  0.61960431  1
  O  O415  1  0.85687767  0.38727773  0.11339373  1
  O  O416  1  0.87244557  0.37217195  0.61083291  1
  O  O417  1  0.86946218  0.87002907  0.12096706  1
  O  O418  1  0.88038681  0.87052728  0.61197466  1
  O  O419  1  0.14093368  0.11827884  0.39390615  1
  O  O420  1  0.14188856  0.13680566  0.86778379  1
  O  O421  1  0.13384982  0.64032275  0.36502015  1
  O  O422  1  0.13441230  0.63352085  0.87569547  1
  O  O423  1  0.61615132  0.13085329  0.38481523  1
  O  O424  1  0.61807490  0.13557243  0.88453400  1
  O  O425  1  0.64119636  0.62637016  0.37265716  1
  O  O426  1  0.63428955  0.63216366  0.87273914  1
