# generated using pymatgen
data_V85Zn86O256
_symmetry_space_group_name_H-M   'P 1'
_cell_length_a   16.93694071
_cell_length_b   16.93091189
_cell_length_c   16.93922581
_cell_angle_alpha   90.06324805
_cell_angle_beta   90.03615674
_cell_angle_gamma   89.99416537
_symmetry_Int_Tables_number   1
_chemical_formula_structural   V85Zn86O256
_chemical_formula_sum   'V85 Zn86 O256'
_cell_volume   4857.45203565
_cell_formula_units_Z   1
loop_
 _symmetry_equiv_pos_site_id
 _symmetry_equiv_pos_as_xyz
  1  'x, y, z'
loop_
 _atom_site_type_symbol
 _atom_site_label
 _atom_site_symmetry_multiplicity
 _atom_site_fract_x
 _atom_site_fract_y
 _atom_site_fract_z
 _atom_site_occupancy
  V  V0  1  0.75092636  0.37417512  0.12370037  1
  V  V1  1  0.74663956  0.63896880  0.37489335  1
  V  V2  1  0.74408674  0.88277688  0.13226229  1
  V  V3  1  0.12790883  0.11861715  0.00107340  1
  V  V4  1  0.50042246  0.12189011  0.62350360  1
  V  V5  1  0.87523719  0.24742144  0.12421683  1
  V  V6  1  0.12546297  0.24711455  0.87563751  1
  V  V7  1  0.36088789  0.87620924  0.49898900  1
  V  V8  1  0.00151333  0.12434126  0.61812936  1
  V  V9  1  0.75484968  0.10929164  0.37353253  1
  V  V10  1  0.50231153  -0.01305039  0.49885358  1
  V  V11  1  0.37453508  0.24916190  0.62537692  1
  V  V12  1  0.37198686  0.75735672  0.62697803  1
  V  V13  1  -0.00727004  0.88468321  0.37531295  1
  V  V14  1  -0.05190027  -0.05609899  0.55554458  1
  V  V15  1  0.62457813  0.24220050  0.87400904  1
  V  V16  1  0.87741527  0.87147425  -0.00006398  1
  V  V17  1  0.75159427  0.37786034  0.62416996  1
  V  V18  1  0.36763887  0.11324664  0.75338699  1
  V  V19  1  0.12542127  0.37276132  0.25057304  1
  V  V20  1  0.87951209  0.38554442  -0.00181739  1
  V  V21  1  0.62475871  0.63758357  0.49641830  1
  V  V22  1  0.37145828  0.75638514  0.11547197  1
  V  V23  1  0.87867753  0.62702502  0.24637248  1
  V  V24  1  0.63353515  -0.00751692  0.63522480  1
  V  V25  1  0.50167378  0.63015940  0.12541736  1
  V  V26  1  -0.00193300  0.38894963  0.87803468  1
  V  V27  1  0.50499127  0.75570980  0.26293954  1
  V  V28  1  0.00540573  0.12240872  0.12607388  1
  V  V29  1  0.00149176  -0.00121192  0.00259757  1
  V  V30  1  0.87428458  0.50353345  0.37858625  1
  V  V31  1  0.25021009  0.50977155  0.75088175  1
  V  V32  1  0.00233104  0.62908994  0.61971399  1
  V  V33  1  0.50130568  0.62889131  0.62755964  1
  V  V34  1  0.49713130  -0.00540880  0.00723978  1
  V  V35  1  0.13880520  -0.00570066  0.62951774  1
  V  V36  1  0.37934740  -0.00435202  0.37307261  1
  V  V37  1  0.75102904  0.25409876  0.49474188  1
  V  V38  1  0.62560818  0.50270032  0.12517242  1
  V  V39  1  0.24997748  0.50464612  0.25406622  1
  V  V40  1  0.69245333  0.79757446  -0.05659268  1
  V  V41  1  0.24441787  0.87434755  0.11314269  1
  V  V42  1  0.12502222  0.11771279  0.49746624  1
  V  V43  1  0.62477279  0.12474904  0.49998675  1
  V  V44  1  0.25195179  0.62619706  0.89647937  1
  V  V45  1  0.12832473  0.51256243  0.61815417  1
  V  V46  1  0.75725413  0.61777514  0.88138942  1
  V  V47  1  0.50611678  0.75846361  0.76222638  1
  V  V48  1  0.62475592  0.88030550  0.26586517  1
  V  V49  1  -0.00102158  0.24982415  0.74957165  1
  V  V50  1  0.10285922  0.62032958  0.00517987  1
  V  V51  1  0.37167808  0.62937972  0.25499838  1
  V  V52  1  0.24999241  0.37823182  0.62558366  1
  V  V53  1  0.75703525  0.49965870  0.75316702  1
  V  V54  1  0.00108303  0.74987605  0.24757634  1
  V  V55  1  -0.00047990  0.37494092  0.37701189  1
  V  V56  1  0.37638249  0.37527079  0.49945896  1
  V  V57  1  0.37676721  0.50045248  0.87647932  1
  V  V58  1  0.50292957  0.50152841  0.50033626  1
  V  V59  1  0.25005345  0.37347004  0.12352968  1
  V  V60  1  0.25065545  0.72622711  0.49143597  1
  V  V61  1  0.76508513  0.75931023  0.51634582  1
  V  V62  1  0.12772885  0.73838749  0.37467823  1
  V  V63  1  0.12510818  0.37781468  0.74999866  1
  V  V64  1  0.12681529  0.74837933  0.88196058  1
  V  V65  1  0.24276090  -0.00395623  0.24584372  1
  V  V66  1  0.49805498  0.25140191  0.74900559  1
  V  V67  1  0.87240622  0.00065324  0.86652708  1
  V  V68  1  0.37753003  0.12296038  0.23955645  1
  V  V69  1  0.74907394  0.50295379  0.25165814  1
  V  V70  1  0.25094263  0.12387387  0.37256248  1
  V  V71  1  0.49960639  0.37520520  0.37425143  1
  V  V72  1  0.62489137  0.37737338  0.75167711  1
  V  V73  1  0.87234791  0.11044675  0.25158645  1
  V  V74  1  0.87004356  0.74960777  0.12336260  1
  V  V75  1  0.11153722  0.50012908  0.12193282  1
  V  V76  1  0.62877361  0.62469346  -0.00480705  1
  V  V77  1  0.24999615  0.25012577  0.49850163  1
  V  V78  1  0.62499682  0.37616969  0.25074610  1
  V  V79  1  0.87709339  0.62461310  0.74664491  1
  V  V80  1  0.87648281  0.25274255  0.62360737  1
  V  V81  1  0.37552465  0.37373893  -0.00054458  1
  V  V82  1  0.37616685  -0.02444494  0.87834970  1
  V  V83  1  0.00277778  0.75502246  0.74914301  1
  V  V84  1  0.50118820  0.24626221  0.24218671  1
  Zn  Zn85  1  -0.00100382  0.24721824  0.25229870  1
  Zn  Zn86  1  0.62664353  0.24887145  0.37419422  1
  Zn  Zn87  1  0.61613208  0.13029266  0.01664847  1
  Zn  Zn88  1  0.00532179  0.87553410  0.87554506  1
  Zn  Zn89  1  0.12369159  0.24919950  0.37598450  1
  Zn  Zn90  1  0.49982205  0.50166766  0.00052904  1
  Zn  Zn91  1  0.62749550  0.50421248  0.62523670  1
  Zn  Zn92  1  0.37744049  0.24514603  0.11916169  1
  Zn  Zn93  1  0.00845681  0.50845382  0.49576278  1
  Zn  Zn94  1  0.87735665  0.37974275  0.50051220  1
  Zn  Zn95  1  0.37856098  0.62828681  0.75428503  1
  Zn  Zn96  1  0.25318296  0.24482882  -0.00300288  1
  Zn  Zn97  1  0.61889534  0.00834058  0.13397978  1
  Zn  Zn98  1  0.12653483  0.87325546  0.25048809  1
  Zn  Zn99  1  0.50061983  0.37670712  0.87592386  1
  Zn  Zn100  1  0.37007200  0.50524793  0.37773137  1
  Zn  Zn101  1  0.14158818  0.88338077  0.75313768  1
  Zn  Zn102  1  0.74863046  0.24625666  -0.00144406  1
  Zn  Zn103  1  0.87180075  0.11878739  0.74528757  1
  Zn  Zn104  1  0.74865571  0.12444671  0.87063983  1
  Zn  Zn105  1  0.63478262  0.87129748  0.76011223  1
  Zn  Zn106  1  0.24740823  0.11485315  0.87083698  1
  Zn  Zn107  1  0.18911956  0.18794876  0.18584950  1
  Zn  Zn108  1  0.18661544  0.18684089  0.68496870  1
  Zn  Zn109  1  0.18672708  0.68791060  0.18224393  1
  Zn  Zn110  1  0.19440621  0.70868930  0.69491852  1
  Zn  Zn111  1  0.69005024  0.18565922  0.18978260  1
  Zn  Zn112  1  0.69002043  0.18515173  0.68910457  1
  Zn  Zn113  1  0.68853589  0.69473946  0.18638229  1
  Zn  Zn114  1  0.68747201  0.69033420  0.68994634  1
  Zn  Zn115  1  0.31414358  0.31132354  0.31161146  1
  Zn  Zn116  1  0.31089965  0.31223903  0.81175816  1
  Zn  Zn117  1  0.31335896  0.81345290  0.31170842  1
  Zn  Zn118  1  0.30553320  0.80542049  0.80781124  1
  Zn  Zn119  1  0.81535509  0.31051333  0.30971980  1
  Zn  Zn120  1  0.81361521  0.31094728  0.81451935  1
  Zn  Zn121  1  0.81144840  0.81746382  0.31443490  1
  Zn  Zn122  1  0.82102339  0.81080653  0.80877443  1
  Zn  Zn123  1  0.18818162  0.43978856  0.43677738  1
  Zn  Zn124  1  0.18582160  0.43912794  0.93862283  1
  Zn  Zn125  1  0.18250331  0.93360553  0.43245767  1
  Zn  Zn126  1  0.19180281  0.93840976  0.93379030  1
  Zn  Zn127  1  0.68581349  0.44316049  0.43750602  1
  Zn  Zn128  1  0.68999524  0.43538822  0.93793278  1
  Zn  Zn129  1  0.69000348  0.93372641  0.44553244  1
  Zn  Zn130  1  0.68740732  0.95990775  0.94413597  1
  Zn  Zn131  1  0.31338068  0.05482222  0.05775080  1
  Zn  Zn132  1  0.31278862  0.06180025  0.56116010  1
  Zn  Zn133  1  0.31360818  0.55898401  0.07114026  1
  Zn  Zn134  1  0.31836984  0.56484143  0.56459362  1
  Zn  Zn135  1  0.80938293  0.06541773  0.05616540  1
  Zn  Zn136  1  0.81156771  0.06907043  0.55917344  1
  Zn  Zn137  1  0.81502707  0.56286240  0.06355783  1
  Zn  Zn138  1  0.81256256  0.56906586  0.56324627  1
  Zn  Zn139  1  0.43664749  0.43992338  0.18719561  1
  Zn  Zn140  1  0.43810157  0.44090320  0.68709134  1
  Zn  Zn141  1  0.43597748  0.93342067  0.18843328  1
  Zn  Zn142  1  0.44087577  0.93374909  0.68802425  1
  Zn  Zn143  1  0.93510484  0.43526135  0.19085688  1
  Zn  Zn144  1  0.94037420  0.44128541  0.68713542  1
  Zn  Zn145  1  0.94066778  0.93466772  0.18534799  1
  Zn  Zn146  1  0.80770664  0.93395034  0.68634378  1
  Zn  Zn147  1  0.06218912  0.06193341  0.31133934  1
  Zn  Zn148  1  0.05820347  0.06042334  0.80961478  1
  Zn  Zn149  1  0.06070635  0.56206844  0.30800651  1
  Zn  Zn150  1  0.06698196  0.56931276  0.80984865  1
  Zn  Zn151  1  0.56330037  0.06462524  0.31486650  1
  Zn  Zn152  1  0.55238131  0.05877181  0.81366093  1
  Zn  Zn153  1  0.56110044  0.56544508  0.31398580  1
  Zn  Zn154  1  0.56515065  0.56563288  0.81280630  1
  Zn  Zn155  1  0.43759766  0.18536087  0.43373463  1
  Zn  Zn156  1  0.44159959  0.18500373  0.93679565  1
  Zn  Zn157  1  0.43691438  0.68894072  0.43767261  1
  Zn  Zn158  1  0.43938967  0.68797535  0.93932769  1
  Zn  Zn159  1  0.93599354  0.18700121  0.43593744  1
  Zn  Zn160  1  0.93820391  0.18890346  0.93868612  1
  Zn  Zn161  1  0.93905595  0.69204156  0.43508423  1
  Zn  Zn162  1  0.93427366  0.68797403  0.93403055  1
  Zn  Zn163  1  0.06100866  0.30944724  0.06036564  1
  Zn  Zn164  1  0.06588194  0.31478732  0.56065740  1
  Zn  Zn165  1  0.06228594  0.80907503  0.06460274  1
  Zn  Zn166  1  0.07220486  0.80695943  0.56047597  1
  Zn  Zn167  1  0.56187538  0.31367905  0.06149529  1
  Zn  Zn168  1  0.56562933  0.31251157  0.56414314  1
  Zn  Zn169  1  0.55383975  0.82321025  0.06930854  1
  Zn  Zn170  1  0.56231952  0.81272301  0.56333549  1
  O  O171  1  0.11451232  0.12979143  0.11693277  1
  O  O172  1  0.12027961  0.11769514  0.61840810  1
  O  O173  1  0.12487216  0.61735285  0.11207849  1
  O  O174  1  0.11928775  0.61895921  0.63494683  1
  O  O175  1  0.62299170  0.12209693  0.13126774  1
  O  O176  1  0.61709871  0.11780534  0.62113373  1
  O  O177  1  0.62142112  0.62524669  0.11642111  1
  O  O178  1  0.61467161  0.62584974  0.61819665  1
  O  O179  1  0.38264829  0.37744189  0.38113481  1
  O  O180  1  0.37377771  0.38291058  0.88194412  1
  O  O181  1  0.37293062  0.88812174  0.38104528  1
  O  O182  1  0.37034065  0.87744727  0.86876517  1
  O  O183  1  0.88253169  0.38507818  0.37341984  1
  O  O184  1  0.88619099  0.36840653  0.88560777  1
  O  O185  1  0.89312766  0.87219959  0.37145764  1
  O  O186  1  0.88029249  0.88282255  0.88379521  1
  O  O187  1  0.25675624  0.00426586  0.36670893  1
  O  O188  1  0.26860854  -0.00041162  0.87399579  1
  O  O189  1  0.25109897  0.49478114  0.35850356  1
  O  O190  1  0.25824742  0.50535510  0.87015036  1
  O  O191  1  0.74907096  0.01067076  0.38399803  1
  O  O192  1  0.76825272  0.00160844  0.87833720  1
  O  O193  1  0.75742032  0.50873413  0.36957614  1
  O  O194  1  0.74728681  0.50774818  0.86703110  1
  O  O195  1  0.24192832  0.48868020  0.13418434  1
  O  O196  1  0.24734817  0.50095008  0.63279430  1
  O  O197  1  0.25970577  0.98291642  0.13200090  1
  O  O198  1  0.23799707  1.00408758  0.62539353  1
  O  O199  1  0.74529573  0.49544176  0.13289829  1
  O  O200  1  0.74911253  0.49540975  0.63243770  1
  O  O201  1  0.75054949  0.98453636  0.11656417  1
  O  O202  1  0.73787605  1.00659051  0.62420022  1
  O  O203  1  0.00790434  0.37476408  0.26070643  1
  O  O204  1  0.00677003  0.36882422  0.75459981  1
  O  O205  1  0.00406289  0.86934433  0.25798507  1
  O  O206  1  0.01525133  0.85543781  0.75210312  1
  O  O207  1  0.50239567  0.37123157  0.25753205  1
  O  O208  1  0.50894605  0.37229399  0.74895171  1
  O  O209  1  0.50872098  0.86352725  0.24873803  1
  O  O210  1  0.50773588  0.86246366  0.74976659  1
  O  O211  1  0.49006711  0.13622242  0.25970460  1
  O  O212  1  0.48980934  0.12874302  0.73839070  1
  O  O213  1  0.49772771  0.63624196  0.24314559  1
  O  O214  1  0.50071548  0.63238558  0.74227014  1
  O  O215  1  0.99566183  0.12530687  0.24145065  1
  O  O216  1  0.99841250  0.13279675  0.73672705  1
  O  O217  1  0.98605661  0.63255964  0.25267326  1
  O  O218  1  0.99139382  0.62570980  0.74305081  1
  O  O219  1  0.37338972  0.25817966  -0.00088267  1
  O  O220  1  0.37030295  0.25406447  0.50544280  1
  O  O221  1  0.37792392  0.74495993  0.01721725  1
  O  O222  1  0.36693846  0.75684107  0.49995163  1
  O  O223  1  0.87555069  0.25472985  0.01215012  1
  O  O224  1  0.86774914  0.25524894  0.50552325  1
  O  O225  1  0.88245316  0.76212620  0.00805315  1
  O  O226  1  0.86358623  0.74516401  0.50079188  1
  O  O227  1  0.13477970  0.24072230  0.50087719  1
  O  O228  1  0.12495649  0.23803369  0.99109783  1
  O  O229  1  0.14436129  0.74639438  0.49381571  1
  O  O230  1  0.11579781  0.73305877  0.99419805  1
  O  O231  1  0.63314456  0.24373089  0.49942558  1
  O  O232  1  0.62146118  0.25008345  0.98807286  1
  O  O233  1  0.63087731  0.74079706  0.50373470  1
  O  O234  1  0.62603763  0.74659514  1.00432056  1
  O  O235  1  0.49570493  0.25831110  0.13891085  1
  O  O236  1  0.49477078  0.24208670  0.62790135  1
  O  O237  1  0.49055097  0.74523367  0.13226222  1
  O  O238  1  0.49153530  0.74490565  0.62782807  1
  O  O239  1  0.99372750  0.24009410  0.12676569  1
  O  O240  1  0.99935031  0.24655274  0.63092881  1
  O  O241  1  0.98782873  0.75812365  0.13988384  1
  O  O242  1  1.01503167  0.74231832  0.63974735  1
  O  O243  1  0.00208680  0.26029810  0.37278025  1
  O  O244  1  0.00998401  0.25288381  0.86648061  1
  O  O245  1  0.00578135  0.75618910  0.36543416  1
  O  O246  1  0.00589449  0.75186617  0.86992064  1
  O  O247  1  0.50014012  0.26208027  0.36881768  1
  O  O248  1  0.50594111  0.25557574  0.86554702  1
  O  O249  1  0.49912551  0.74863383  0.36147756  1
  O  O250  1  0.49680485  0.74480768  0.86023362  1
  O  O251  1  0.24573020  0.13056028  0.49348399  1
  O  O252  1  0.24179751  0.12478125  0.99735744  1
  O  O253  1  0.26068970  0.62799949  0.48554706  1
  O  O254  1  0.24695642  0.61810839  0.99767909  1
  O  O255  1  0.74622740  0.13622270  0.49266666  1
  O  O256  1  0.74087948  0.12823119  0.99066861  1
  O  O257  1  0.74257678  0.63091403  0.49286692  1
  O  O258  1  0.74527896  0.62150606  0.99199192  1
  O  O259  1  0.25849662  0.37465471  0.00617260  1
  O  O260  1  0.25575037  0.37112341  0.50521554  1
  O  O261  1  0.24686327  0.87633200  0.01430746  1
  O  O262  1  0.25953418  0.87163854  0.49745156  1
  O  O263  1  0.75815443  0.37213217  0.00797226  1
  O  O264  1  0.74982604  0.37126320  0.50482084  1
  O  O265  1  0.75181060  0.86625285  0.00162997  1
  O  O266  1  0.74942115  0.85865474  0.50364329  1
  O  O267  1  0.13050259  0.49120950  0.24376063  1
  O  O268  1  0.13485685  0.49796856  0.74326580  1
  O  O269  1  0.13988982  1.00031245  0.25035939  1
  O  O270  1  0.12347175  0.99911449  0.73577102  1
  O  O271  1  0.62920824  0.49715557  0.24495290  1
  O  O272  1  0.63535818  0.49420935  0.74945790  1
  O  O273  1  0.61445399  0.98424632  0.25188543  1
  O  O274  1  0.61798370  0.99671274  0.73797612  1
  O  O275  1  0.37187325  0.00514542  0.25716068  1
  O  O276  1  0.38072325  0.00789553  0.75758725  1
  O  O277  1  0.36668155  0.50959650  0.24827544  1
  O  O278  1  0.36764528  0.50227826  0.75824815  1
  O  O279  1  0.87740866  0.01138467  0.24341994  1
  O  O280  1  0.88089178  -0.00332093  0.76417566  1
  O  O281  1  0.87054157  0.50829969  0.25809361  1
  O  O282  1  0.86392095  0.50532527  0.74865521  1
  O  O283  1  0.11855968  0.37566533  0.36708681  1
  O  O284  1  0.12004978  0.36795380  0.87030291  1
  O  O285  1  0.11562163  0.86145890  0.37285907  1
  O  O286  1  0.12740470  0.86275620  0.87388728  1
  O  O287  1  0.61700324  0.37566697  0.36903931  1
  O  O288  1  0.62368722  0.37021060  0.86399638  1
  O  O289  1  0.62759465  0.87637178  0.36471778  1
  O  O290  1  0.64096894  0.86419385  0.88660976  1
  O  O291  1  0.36829684  0.12458664  0.13648663  1
  O  O292  1  0.38115197  0.12647467  0.63279795  1
  O  O293  1  0.38286859  0.63318405  0.13383343  1
  O  O294  1  0.38887625  0.63234435  0.62642169  1
  O  O295  1  0.88148943  0.13021669  0.12868005  1
  O  O296  1  0.88569976  0.13379029  0.62335379  1
  O  O297  1  0.86785568  0.63530892  0.13445216  1
  O  O298  1  0.88470130  0.61963934  0.63845842  1
  O  O299  1  0.25201945  0.26296370  0.12224281  1
  O  O300  1  0.25546655  0.25677728  0.61978676  1
  O  O301  1  0.26289084  0.75952451  0.13072178  1
  O  O302  1  0.26613450  0.73003119  0.60376925  1
  O  O303  1  0.75846744  0.25794485  0.12483770  1
  O  O304  1  0.75432912  0.25724867  0.61400552  1
  O  O305  1  0.76271164  0.76266072  0.12858698  1
  O  O306  1  0.75446839  0.74172260  0.61519002  1
  O  O307  1  0.24889511  0.24348796  0.38057262  1
  O  O308  1  0.23515580  0.24896852  0.87317587  1
  O  O309  1  0.24550553  0.75129943  0.38380664  1
  O  O310  1  0.24090268  0.73540767  0.87906433  1
  O  O311  1  0.75090176  0.25138089  0.38661947  1
  O  O312  1  0.73727971  0.25380058  0.87718911  1
  O  O313  1  0.75351504  0.74079296  0.38089989  1
  O  O314  1  0.75319340  0.74133717  0.88189950  1
  O  O315  1  0.00591594  0.11871455  0.00711200  1
  O  O316  1  0.01088226  0.13571097  0.50950674  1
  O  O317  1  0.00466855  0.61921795  -0.00175348  1
  O  O318  1  -0.00431666  0.62780423  0.51502652  1
  O  O319  1  0.50027036  0.10717301  -0.00904414  1
  O  O320  1  0.50135529  0.11957534  0.51030218  1
  O  O321  1  0.50934453  0.62471905  0.00867750  1
  O  O322  1  0.50609104  0.62309042  0.50486260  1
  O  O323  1  0.49814603  0.37929504  0.49385276  1
  O  O324  1  0.48743676  0.38025400  0.99955558  1
  O  O325  1  0.49111580  0.88417755  0.50260361  1
  O  O326  1  0.50312138  0.89232100  0.99547835  1
  O  O327  1  1.00124169  0.38031929  0.48802852  1
  O  O328  1  0.99386468  0.37055930  0.98951347  1
  O  O329  1  1.00069798  0.87380254  0.49315666  1
  O  O330  1  0.99449219  0.88231789  1.00190896  1
  O  O331  1  0.49843275  0.48953163  0.37956980  1
  O  O332  1  0.48778016  0.50068339  0.87490579  1
  O  O333  1  0.49074582  1.00861467  0.38821313  1
  O  O334  1  0.48226094  0.99702418  0.87815453  1
  O  O335  1  0.99264670  0.49547671  0.37587726  1
  O  O336  1  1.00701131  0.48726332  0.86656665  1
  O  O337  1  1.00789355  0.98377175  0.37383147  1
  O  O338  1  0.99303392  0.99686015  0.88501751  1
  O  O339  1  -0.00297703  0.00745912  0.11188642  1
  O  O340  1  0.01066931  0.01073077  0.61274526  1
  O  O341  1  0.01254459  0.49496283  0.13226110  1
  O  O342  1  0.01146096  0.50888281  0.62340816  1
  O  O343  1  0.49211159  -0.00359840  0.11229386  1
  O  O344  1  0.50584023  0.00623172  0.61841452  1
  O  O345  1  0.50543175  0.51493195  0.12700857  1
  O  O346  1  0.50195685  0.50992834  0.61900398  1
  O  O347  1  0.24401023  0.37945777  0.24302205  1
  O  O348  1  0.24591025  0.38736693  0.74552289  1
  O  O349  1  0.24952492  0.88231467  0.24401741  1
  O  O350  1  0.22864773  0.81774866  0.72857810  1
  O  O351  1  0.74572205  0.38168781  0.24482470  1
  O  O352  1  0.74562900  0.38196873  0.74656691  1
  O  O353  1  0.73461559  0.87053265  0.24653270  1
  O  O354  1  0.74731933  0.86632700  0.74870598  1
  O  O355  1  0.25686787  0.11855336  0.25310086  1
  O  O356  1  0.26516045  0.12822191  0.74671426  1
  O  O357  1  0.25912484  0.61700904  0.24082326  1
  O  O358  1  0.25291181  0.61660590  0.75894291  1
  O  O359  1  0.76056543  0.13038165  0.26317108  1
  O  O360  1  0.76054830  0.13408041  0.75641620  1
  O  O361  1  0.75591653  0.62415464  0.25668508  1
  O  O362  1  0.75583368  0.61928256  0.75714153  1
  O  O363  1  0.36822739  0.11529711  0.36862830  1
  O  O364  1  0.37252529  0.12989548  0.85722750  1
  O  O365  1  0.38231885  0.62307522  0.35924428  1
  O  O366  1  0.36792222  0.61770290  0.87749350  1
  O  O367  1  0.86828992  0.12889667  0.36424063  1
  O  O368  1  0.88190187  0.10988389  0.87515928  1
  O  O369  1  0.86855922  0.62021682  0.36771569  1
  O  O370  1  0.86545800  0.62538137  0.86523522  1
  O  O371  1  0.12999775  0.37908090  0.12927927  1
  O  O372  1  0.13211283  0.38383723  0.63159743  1
  O  O373  1  0.14055831  0.86595691  0.12910890  1
  O  O374  1  0.12217182  0.89407176  0.61777292  1
  O  O375  1  0.62958765  0.38206937  0.13040027  1
  O  O376  1  0.63183503  0.37731204  0.63685146  1
  O  O377  1  0.63083313  0.87867681  0.13634391  1
  O  O378  1  0.62173094  0.89184978  0.62378425  1
  O  O379  1  0.12458884  0.26273561  0.25049616  1
  O  O380  1  0.11631113  0.25403007  0.75368044  1
  O  O381  1  0.11680456  0.74744904  0.25395906  1
  O  O382  1  0.10774224  0.72157227  0.77319762  1
  O  O383  1  0.61731973  0.25903550  0.25396243  1
  O  O384  1  0.61822059  0.25914575  0.75253170  1
  O  O385  1  0.61153997  0.75851280  0.24668179  1
  O  O386  1  0.61043782  0.75045368  0.74787586  1
  O  O387  1  0.38168157  0.24033595  0.24841713  1
  O  O388  1  0.37994214  0.24544698  0.74262542  1
  O  O389  1  0.38542000  0.74657045  0.24455099  1
  O  O390  1  0.38734892  0.74793244  0.74031276  1
  O  O391  1  0.87815287  0.24487760  0.23677979  1
  O  O392  1  0.88923348  0.25415667  0.74418694  1
  O  O393  1  0.87903826  0.74474458  0.24512907  1
  O  O394  1  0.89448129  0.74019041  0.75432738  1
  O  O395  1  0.38369112  0.49375824  0.49824389  1
  O  O396  1  0.37514730  0.49367800  0.99378473  1
  O  O397  1  0.38030743  0.99369015  0.49471447  1
  O  O398  1  0.38156459  0.99749332  0.98542604  1
  O  O399  1  0.87534440  0.50222761  0.48726644  1
  O  O400  1  0.87546540  0.48512023  1.00692336  1
  O  O401  1  0.88552321  1.00149156  0.50324202  1
  O  O402  1  0.88216646  0.98980465  0.99423476  1
  O  O403  1  0.11778065  0.01087453  -0.00746650  1
  O  O404  1  0.13335854  0.01330831  0.50495793  1
  O  O405  1  0.12602384  0.51011807  0.00826393  1
  O  O406  1  0.12836842  0.49996368  0.51333737  1
  O  O407  1  0.61042000  0.00640916  0.00717329  1
  O  O408  1  0.61778607  0.00504989  0.50884090  1
  O  O409  1  0.62354386  0.50762853  0.00694072  1
  O  O410  1  0.61820691  0.51171241  0.50291962  1
  O  O411  1  0.36686367  0.37627447  0.11703883  1
  O  O412  1  0.36972068  0.37124173  0.61938435  1
  O  O413  1  0.36670190  0.86150630  0.12849135  1
  O  O414  1  0.37848842  0.86521131  0.61625267  1
  O  O415  1  0.87224355  0.36718089  0.12111500  1
  O  O416  1  0.87039991  0.37177651  0.62253624  1
  O  O417  1  0.86802140  0.87044806  0.11842299  1
  O  O418  1  0.89358283  0.89276624  0.62065246  1
  O  O419  1  0.13054927  0.12676217  0.38125754  1
  O  O420  1  0.12544787  0.13009957  0.87937724  1
  O  O421  1  0.11766887  0.63789802  0.37180630  1
  O  O422  1  0.13156615  0.62305582  0.89274062  1
  O  O423  1  0.63460548  0.12807987  0.38239848  1
  O  O424  1  0.62055635  0.13747254  0.86586337  1
  O  O425  1  0.63467218  0.62137955  0.38330592  1
  O  O426  1  0.63368193  0.62294509  0.88861461  1
