# generated using pymatgen
data_V85Zn86O256
_symmetry_space_group_name_H-M   'P 1'
_cell_length_a   16.92756849
_cell_length_b   16.94241600
_cell_length_c   16.93504410
_cell_angle_alpha   90.04453662
_cell_angle_beta   89.97718677
_cell_angle_gamma   89.98330900
_symmetry_Int_Tables_number   1
_chemical_formula_structural   V85Zn86O256
_chemical_formula_sum   'V85 Zn86 O256'
_cell_volume   4856.86540845
_cell_formula_units_Z   1
loop_
 _symmetry_equiv_pos_site_id
 _symmetry_equiv_pos_as_xyz
  1  'x, y, z'
loop_
 _atom_site_type_symbol
 _atom_site_label
 _atom_site_symmetry_multiplicity
 _atom_site_fract_x
 _atom_site_fract_y
 _atom_site_fract_z
 _atom_site_occupancy
  V  V0  1  0.62759945  0.12793691  0.48560768  1
  V  V1  1  0.86606636  0.25902876  0.62522288  1
  V  V2  1  0.38017846  0.88345062  0.00050009  1
  V  V3  1  0.25270846  0.25534661  0.00189708  1
  V  V4  1  0.74516597  0.25965589  0.49368799  1
  V  V5  1  0.50407886  0.24592034  0.25384458  1
  V  V6  1  0.12333702  -0.00297420  0.12358207  1
  V  V7  1  0.88342873  0.00899353  0.37117059  1
  V  V8  1  0.62364560  0.12194520  -0.00053362  1
  V  V9  1  0.62647833  0.37136182  0.25367302  1
  V  V10  1  0.37243087  0.73617058  0.62698860  1
  V  V11  1  0.74258494  0.62214562  0.87198275  1
  V  V12  1  0.75086166  0.38087791  0.12038294  1
  V  V13  1  0.26864649  0.62939803  0.86618698  1
  V  V14  1  0.75751712  0.74620545  0.49233891  1
  V  V15  1  0.25219486  0.87049168  0.12376592  1
  V  V16  1  0.00178904  0.74330636  0.74963956  1
  V  V17  1  0.38075388  -0.01208269  0.37213990  1
  V  V18  1  0.37050257  0.37414479  0.49567622  1
  V  V19  1  0.37187869  0.25048313  0.62424214  1
  V  V20  1  0.75457245  0.25400674  -0.00036059  1
  V  V21  1  0.37142023  0.25580673  0.12409333  1
  V  V22  1  0.25142044  0.74854132  -0.00056040  1
  V  V23  1  0.24248273  0.76014519  0.50310079  1
  V  V24  1  0.12632336  0.86723913  0.25556118  1
  V  V25  1  0.49842141  0.37199549  0.37588788  1
  V  V26  1  0.12593740  0.60856919  0.00021534  1
  V  V27  1  0.74975910  -0.00001297  0.74758323  1
  V  V28  1  0.88462794  0.88265275  0.49650617  1
  V  V29  1  0.74743333  0.74588496  0.00047343  1
  V  V30  1  0.60380764  0.50428214  0.12105444  1
  V  V31  1  0.59287603  0.65510874  0.49198676  1
  V  V32  1  0.87866078  0.74537482  0.12282282  1
  V  V33  1  0.23772419  0.37923931  0.62545625  1
  V  V34  1  0.25810570  0.50641194  0.74511159  1
  V  V35  1  0.12515638  0.12579640  -0.00231417  1
  V  V36  1  0.48848895  0.38693145  0.88750979  1
  V  V37  1  0.62328701  -0.00388430  0.12133601  1
  V  V38  1  -0.00507212  0.12638000  0.12895666  1
  V  V39  1  0.62358455  0.74913351  0.87040605  1
  V  V40  1  0.25039976  -0.00363342  0.24832066  1
  V  V41  1  0.49928108  0.12019459  0.11881438  1
  V  V42  1  0.88079414  0.74807736  0.62516047  1
  V  V43  1  0.12647715  0.25418843  0.87167029  1
  V  V44  1  0.61686102  0.86236384  0.26600041  1
  V  V45  1  0.62933995  0.50165957  0.61875307  1
  V  V46  1  0.87435545  0.49683277  0.87976573  1
  V  V47  1  0.49715744  0.73879686  0.74280372  1
  V  V48  1  0.62582479  0.37799203  0.74586896  1
  V  V49  1  0.24992667  -0.00834374  0.74501582  1
  V  V50  1  0.00091290  0.24950087  0.74775573  1
  V  V51  1  0.87477290  -0.00052226  0.87405942  1
  V  V52  1  0.74836964  0.12542625  0.87423269  1
  V  V53  1  0.37366917  0.12147658  0.25099213  1
  V  V54  1  0.00409979  0.74580418  0.25442675  1
  V  V55  1  0.50107458  0.12521897  0.61994368  1
  V  V56  1  0.49716792  0.49444755  0.50762658  1
  V  V57  1  0.87650874  0.25341478  0.12679013  1
  V  V58  1  0.74506508  0.50822188  0.25146744  1
  V  V59  1  0.87511125  0.62346515  0.74831668  1
  V  V60  1  0.12486334  0.74782128  0.87624327  1
  V  V61  1  0.62099975  0.25439813  0.87511163  1
  V  V62  1  0.75004852  0.87023530  0.12741581  1
  V  V63  1  0.24450863  0.50160899  0.26757082  1
  V  V64  1  0.11957552  0.62787467  0.51294345  1
  V  V65  1  0.75284790  0.00533863  0.24956459  1
  V  V66  1  0.37739698  0.87904218  0.51034051  1
  V  V67  1  0.00024597  0.87360416  0.87559245  1
  V  V68  1  0.37323317  0.12489560  0.75006286  1
  V  V69  1  0.11992185  -0.00521945  0.61643455  1
  V  V70  1  0.26270236  0.41619824  0.11383190  1
  V  V71  1  0.50119477  0.88465529  0.87342758  1
  V  V72  1  0.24464729  0.63186031  0.37970467  1
  V  V73  1  0.87356288  0.12583325  0.74737461  1
  V  V74  1  -0.00230516  0.37700293  0.88091962  1
  V  V75  1  0.24274404  0.24541086  0.49738302  1
  V  V76  1  0.75157979  0.87456718  0.62235843  1
  V  V77  1  0.62638663  0.00192520  0.62032465  1
  V  V78  1  0.00574054  0.49920596  0.51525160  1
  V  V79  1  0.87579133  0.62443876  0.24919574  1
  V  V80  1  -0.00069433  0.25131521  0.25342762  1
  V  V81  1  0.87759823  0.50015358  0.37909178  1
  V  V82  1  0.38632029  0.62631364  0.25208452  1
  V  V83  1  -0.00088244  -0.00050611  -0.00147366  1
  V  V84  1  0.62271886  0.87335589  0.74440087  1
  Zn  Zn85  1  0.39049284  0.74661236  0.12974717  1
  Zn  Zn86  1  0.00895339  0.60313997  0.12262877  1
  Zn  Zn87  1  0.50616647  -0.00064023  0.49014420  1
  Zn  Zn88  1  0.75202237  0.13190721  0.36664301  1
  Zn  Zn89  1  0.49786898  0.25299063  0.75128220  1
  Zn  Zn90  1  0.25110282  0.12512556  0.87310381  1
  Zn  Zn91  1  0.12777938  0.37834426  0.24421031  1
  Zn  Zn92  1  -0.00314452  0.11983863  0.61943950  1
  Zn  Zn93  1  0.00657737  0.37891448  0.37624176  1
  Zn  Zn94  1  0.59524669  0.62947833  0.01169023  1
  Zn  Zn95  1  0.00491787  0.87490524  0.37695321  1
  Zn  Zn96  1  0.74939091  0.49615786  0.74438091  1
  Zn  Zn97  1  0.12783710  0.24881150  0.36914729  1
  Zn  Zn98  1  0.12912710  0.87130731  0.74634006  1
  Zn  Zn99  1  0.87521349  0.87242648  -0.00080410  1
  Zn  Zn100  1  0.24778968  0.12193335  0.37583197  1
  Zn  Zn101  1  0.74375882  0.62701326  0.37623222  1
  Zn  Zn102  1  0.37558759  0.00374749  0.87725265  1
  Zn  Zn103  1  0.11378573  0.11827618  0.49226042  1
  Zn  Zn104  1  0.87320049  0.37955582  0.50447142  1
  Zn  Zn105  1  0.12199392  0.38863984  0.74811560  1
  Zn  Zn106  1  0.93805292  0.43888514  0.04122709  1
  Zn  Zn107  1  0.18531308  0.18588795  0.18684619  1
  Zn  Zn108  1  0.18591625  0.18227379  0.68304907  1
  Zn  Zn109  1  0.19140705  0.68086597  0.18413888  1
  Zn  Zn110  1  0.18975412  0.68844647  0.68574804  1
  Zn  Zn111  1  0.68800560  0.18744508  0.18493453  1
  Zn  Zn112  1  0.68633296  0.19117240  0.68408078  1
  Zn  Zn113  1  0.56156597  0.69120652  0.19684817  1
  Zn  Zn114  1  0.68373320  0.68311426  0.67584321  1
  Zn  Zn115  1  0.31226379  0.31203312  0.31158507  1
  Zn  Zn116  1  0.31066168  0.31570013  0.81068735  1
  Zn  Zn117  1  0.31452438  0.80666739  0.31637607  1
  Zn  Zn118  1  0.31768252  0.81263209  0.81139685  1
  Zn  Zn119  1  0.81437899  0.31643499  0.31247868  1
  Zn  Zn120  1  0.81021802  0.31589032  0.81194439  1
  Zn  Zn121  1  0.81373673  0.81661834  0.31009428  1
  Zn  Zn122  1  0.81198836  0.81201081  0.81186423  1
  Zn  Zn123  1  0.18243314  0.43694540  0.43513410  1
  Zn  Zn124  1  0.25064287  0.46579579  0.95808360  1
  Zn  Zn125  1  0.19286806  0.93731750  0.43468668  1
  Zn  Zn126  1  0.18985570  0.93770864  0.93222074  1
  Zn  Zn127  1  0.68477678  0.43661835  0.43430848  1
  Zn  Zn128  1  0.68077814  0.44001335  0.93853604  1
  Zn  Zn129  1  0.69609316  0.93824385  0.43625816  1
  Zn  Zn130  1  0.68794606  0.93484449  0.93750112  1
  Zn  Zn131  1  0.31041098  0.06390851  0.06285109  1
  Zn  Zn132  1  0.30801128  0.06059247  0.56317820  1
  Zn  Zn133  1  0.41280214  0.55225352  0.05891848  1
  Zn  Zn134  1  0.30854836  0.55923533  0.55959374  1
  Zn  Zn135  1  0.81282417  0.06343755  0.06232511  1
  Zn  Zn136  1  0.81410660  0.06753394  0.55738525  1
  Zn  Zn137  1  0.80359779  0.56818377  0.06473397  1
  Zn  Zn138  1  0.81599028  0.56293277  0.56538010  1
  Zn  Zn139  1  0.42841266  0.43866294  0.20316565  1
  Zn  Zn140  1  0.43885654  0.43429918  0.69102155  1
  Zn  Zn141  1  0.44218520  0.93218483  0.18693570  1
  Zn  Zn142  1  0.43878215  0.93810703  0.68513187  1
  Zn  Zn143  1  0.93646183  0.43671561  0.20026232  1
  Zn  Zn144  1  0.93681740  0.43597006  0.69327411  1
  Zn  Zn145  1  0.93738395  0.93511124  0.18924403  1
  Zn  Zn146  1  0.94047393  0.93323787  0.68891267  1
  Zn  Zn147  1  0.06439213  0.06403792  0.31015963  1
  Zn  Zn148  1  0.06401969  0.06364351  0.80829878  1
  Zn  Zn149  1  0.06357207  0.56737530  0.32050192  1
  Zn  Zn150  1  0.06708557  0.55939182  0.81391840  1
  Zn  Zn151  1  0.56385537  0.05532523  0.30622474  1
  Zn  Zn152  1  0.56222892  0.06512995  0.80749014  1
  Zn  Zn153  1  0.56240133  0.55446579  0.32461730  1
  Zn  Zn154  1  0.55758516  0.55922662  0.81300631  1
  Zn  Zn155  1  0.43450464  0.18645240  0.43483658  1
  Zn  Zn156  1  0.43733138  0.19057754  0.93782581  1
  Zn  Zn157  1  0.42549936  0.68793969  0.43909928  1
  Zn  Zn158  1  0.44100859  0.69872137  0.94059452  1
  Zn  Zn159  1  0.93486706  0.18717561  0.44096069  1
  Zn  Zn160  1  0.93700579  0.18925771  0.93788425  1
  Zn  Zn161  1  0.94015147  0.68453865  0.43601080  1
  Zn  Zn162  1  0.93933691  0.67991397  0.93849156  1
  Zn  Zn163  1  0.07837438  0.32085813  0.06760464  1
  Zn  Zn164  1  0.05758803  0.30929587  0.56110702  1
  Zn  Zn165  1  0.06309744  0.80930889  0.06397992  1
  Zn  Zn166  1  0.06334958  0.81462347  0.56586541  1
  Zn  Zn167  1  0.56208563  0.31288793  0.06472026  1
  Zn  Zn168  1  0.56509022  0.31180196  0.56486447  1
  Zn  Zn169  1  0.56385267  0.81607874  0.05842322  1
  Zn  Zn170  1  0.55627796  0.81205188  0.55343273  1
  O  O171  1  0.11755258  0.11717928  0.11555437  1
  O  O172  1  0.12163129  0.10889698  0.62420083  1
  O  O173  1  0.12804852  0.62750034  0.10412092  1
  O  O174  1  0.12737142  0.62467765  0.61204185  1
  O  O175  1  0.61865960  0.11677191  0.12059465  1
  O  O176  1  0.61734827  0.12186198  0.61669274  1
  O  O177  1  0.61692252  0.60715900  0.13076356  1
  O  O178  1  0.62032553  0.61933641  0.59788863  1
  O  O179  1  0.38418495  0.36663074  0.38509878  1
  O  O180  1  0.38954711  0.36669730  0.87417795  1
  O  O181  1  0.37107121  0.87955681  0.38639929  1
  O  O182  1  0.38411425  0.87814456  0.88123283  1
  O  O183  1  0.87784261  0.38988488  0.37725302  1
  O  O184  1  0.88153801  0.38470450  0.87184071  1
  O  O185  1  0.87767808  0.88469922  0.38127554  1
  O  O186  1  0.88076468  0.88115331  0.87594607  1
  O  O187  1  0.26166145  0.00039027  0.36463023  1
  O  O188  1  0.25118942  0.00561311  0.86085687  1
  O  O189  1  0.25167294  0.51105589  0.37510630  1
  O  O190  1  0.26170567  0.52221513  0.86369356  1
  O  O191  1  0.76024606  0.00272681  0.36408163  1
  O  O192  1  0.75401924  0.00444335  0.86837915  1
  O  O193  1  0.75504823  0.50098275  0.36884579  1
  O  O194  1  0.75196043  0.50804564  0.87240363  1
  O  O195  1  0.24503808  0.50831282  0.15374452  1
  O  O196  1  0.25019311  0.48940224  0.62835665  1
  O  O197  1  0.24572500  0.98804166  0.12797112  1
  O  O198  1  0.24035866  1.00293116  0.63833707  1
  O  O199  1  0.74406069  0.49425253  0.13326816  1
  O  O200  1  0.73480238  0.50566835  0.62300992  1
  O  O201  1  0.74818716  0.99141933  0.12947587  1
  O  O202  1  0.74757134  0.99527924  0.62783985  1
  O  O203  1  0.00534580  0.36422782  0.25287010  1
  O  O204  1  0.00300065  0.36707069  0.75995549  1
  O  O205  1  0.01045629  0.86523583  0.24641419  1
  O  O206  1  0.00025485  0.86065414  0.75943122  1
  O  O207  1  0.50385675  0.36681430  0.25761184  1
  O  O208  1  0.50991263  0.37152128  0.75977772  1
  O  O209  1  0.51737665  0.87497692  0.24898247  1
  O  O210  1  0.50604032  0.87032729  0.75331404  1
  O  O211  1  0.49647791  0.12917830  0.24032395  1
  O  O212  1  0.48918881  0.12676365  0.73980036  1
  O  O213  1  0.49188736  0.62462936  0.26696503  1
  O  O214  1  0.50451630  0.63978232  0.75169929  1
  O  O215  1  1.00363217  0.13134839  0.23406770  1
  O  O216  1  0.99003451  0.13255107  0.74842082  1
  O  O217  1  0.99787285  0.62993952  0.24395230  1
  O  O218  1  0.99137559  0.63585434  0.76017876  1
  O  O219  1  0.36577114  0.24120414  0.01183128  1
  O  O220  1  0.36598653  0.25427185  0.50593731  1
  O  O221  1  0.36260919  0.76423179  0.00018778  1
  O  O222  1  0.36593902  0.76229487  0.51107803  1
  O  O223  1  0.86115190  0.24826918  0.00534521  1
  O  O224  1  0.86324812  0.25457067  0.50783038  1
  O  O225  1  0.86901336  0.74728709  0.00514084  1
  O  O226  1  0.87420470  0.75553221  0.50752292  1
  O  O227  1  0.13595780  0.24962227  0.50030600  1
  O  O228  1  0.13053152  0.24150201  0.99371103  1
  O  O229  1  0.13038565  0.74132816  0.50752981  1
  O  O230  1  0.13648937  0.75212847  0.99219527  1
  O  O231  1  0.63723077  0.24410208  0.50242582  1
  O  O232  1  0.63438154  0.24383740  0.99579633  1
  O  O233  1  0.65535226  0.75185999  0.51752090  1
  O  O234  1  0.63165475  0.74491044  0.99061311  1
  O  O235  1  0.49228457  0.24355807  0.13366336  1
  O  O236  1  0.49224004  0.23992113  0.62514983  1
  O  O237  1  0.50343345  0.74644534  0.11918907  1
  O  O238  1  0.48403632  0.75676855  0.63078996  1
  O  O239  1  0.99458124  0.24709911  0.12833123  1
  O  O240  1  0.99108734  0.25140944  0.63778059  1
  O  O241  1  0.98742355  0.74993954  0.12969739  1
  O  O242  1  0.98943407  0.75393531  0.63505301  1
  O  O243  1  -0.00848358  0.24846215  0.35900065  1
  O  O244  1  0.00186324  0.25303931  0.86446503  1
  O  O245  1  -0.00575997  0.75221043  0.35819998  1
  O  O246  1  0.00607197  0.75338837  0.87150156  1
  O  O247  1  0.49662317  0.25336495  0.36136871  1
  O  O248  1  0.51275132  0.25066903  0.87402258  1
  O  O249  1  0.52588115  0.73387000  0.46143005  1
  O  O250  1  0.50627345  0.76186862  0.86440203  1
  O  O251  1  0.24821610  0.13362479  0.49829637  1
  O  O252  1  0.23792694  0.12925784  0.99743183  1
  O  O253  1  0.24113577  0.63243285  0.49773470  1
  O  O254  1  0.24271323  0.63744523  0.98131962  1
  O  O255  1  0.74192404  0.13528011  0.49432947  1
  O  O256  1  0.74395255  0.13280873  0.99410916  1
  O  O257  1  0.76393003  0.64163375  0.49830051  1
  O  O258  1  0.74550539  0.63631250  0.99155347  1
  O  O259  1  0.24501167  0.35837922  0.00454363  1
  O  O260  1  0.25494240  0.36930465  0.50615344  1
  O  O261  1  0.25422143  0.87056513  0.00564443  1
  O  O262  1  0.25699922  0.86611512  0.49858232  1
  O  O263  1  0.73990597  0.36860913  0.01218822  1
  O  O264  1  0.74976247  0.36319857  0.49751659  1
  O  O265  1  0.75097421  0.86221028  0.00505870  1
  O  O266  1  0.76424215  0.86698188  0.50431184  1
  O  O267  1  0.13958639  0.50056012  0.26326302  1
  O  O268  1  0.14367448  0.50105290  0.75591685  1
  O  O269  1  0.13041313  0.99141893  0.24079817  1
  O  O270  1  0.13693528  0.99873348  0.74549430  1
  O  O271  1  0.62770800  0.49314348  0.24370321  1
  O  O272  1  0.62263278  0.49616601  0.73768216  1
  O  O273  1  0.63388044  0.99152938  0.23796370  1
  O  O274  1  0.63137515  0.99588912  0.74091062  1
  O  O275  1  0.37163203  0.00138451  0.25302144  1
  O  O276  1  0.36565423  0.00668290  0.74740172  1
  O  O277  1  0.36414303  0.51653116  0.25837806  1
  O  O278  1  0.35999888  0.49711063  0.74098469  1
  O  O279  1  0.86690338  -0.00632026  0.26040128  1
  O  O280  1  0.86946297  0.00477999  0.75396205  1
  O  O281  1  0.86508619  0.50493528  0.25938311  1
  O  O282  1  0.87071355  0.50774772  0.75803537  1
  O  O283  1  0.12337422  0.36672544  0.36864217  1
  O  O284  1  0.11641981  0.35890723  0.87085547  1
  O  O285  1  0.12508107  0.87992459  0.35955188  1
  O  O286  1  0.11985889  0.86358959  0.87182679  1
  O  O287  1  0.61922764  0.37363182  0.36035399  1
  O  O288  1  0.61734250  0.36915643  0.87061693  1
  O  O289  1  0.62874682  0.87994641  0.36472331  1
  O  O290  1  0.62015151  0.86993495  0.86684110  1
  O  O291  1  0.38270487  0.12600645  0.13351124  1
  O  O292  1  0.38030509  0.13250074  0.62696158  1
  O  O293  1  0.37640065  0.62541242  0.14761972  1
  O  O294  1  0.37456271  0.63797644  0.61666465  1
  O  O295  1  0.88449276  0.13735268  0.11659679  1
  O  O296  1  0.87309783  0.13461641  0.63344699  1
  O  O297  1  0.87639133  0.63114068  0.13042456  1
  O  O298  1  0.87270140  0.63240423  0.64012620  1
  O  O299  1  0.26067469  0.23717199  0.11593785  1
  O  O300  1  0.25589889  0.25412704  0.61841219  1
  O  O301  1  0.25161928  0.75843101  0.11556769  1
  O  O302  1  0.26190696  0.74990246  0.61884359  1
  O  O303  1  0.75661375  0.25770222  0.11953907  1
  O  O304  1  0.75585353  0.24612021  0.61100481  1
  O  O305  1  0.76148736  0.75643795  0.11502287  1
  O  O306  1  0.76615686  0.75586598  0.62258069  1
  O  O307  1  0.25267017  0.24580467  0.38416575  1
  O  O308  1  0.24235417  0.24708189  0.88055066  1
  O  O309  1  0.24932548  0.74456837  0.39076803  1
  O  O310  1  0.24338906  0.74816862  0.87632906  1
  O  O311  1  0.75691038  0.24894963  0.38752552  1
  O  O312  1  0.74050535  0.24859186  0.88231135  1
  O  O313  1  0.75899333  0.75009950  0.38894654  1
  O  O314  1  0.74385123  0.74388764  0.87930947  1
  O  O315  1  0.00901090  0.12319539  0.00620188  1
  O  O316  1  0.00141113  0.12993577  0.50702587  1
  O  O317  1  0.01998500  0.62334811  -0.00202648  1
  O  O318  1  0.01182578  0.61818780  0.49907961  1
  O  O319  1  0.50564036  0.12951809  0.01204759  1
  O  O320  1  0.50749455  0.12542573  0.50350798  1
  O  O321  1  0.48391599  0.61425736  -0.00269436  1
  O  O322  1  0.49039346  0.59619428  0.49327036  1
  O  O323  1  0.49158138  0.37102127  0.49433499  1
  O  O324  1  0.50383987  0.36997333  0.98663832  1
  O  O325  1  0.48207257  0.88487166  0.50262943  1
  O  O326  1  0.49196261  0.87367867  0.98760892  1
  O  O327  1  0.99786921  0.38736072  0.49936301  1
  O  O328  1  1.00381783  0.36249103  0.98600365  1
  O  O329  1  0.98904987  0.87050743  0.49694712  1
  O  O330  1  0.99881624  0.88000944  0.99361603  1
  O  O331  1  0.50219372  0.47902808  0.38815341  1
  O  O332  1  0.49870297  0.48654041  0.87571440  1
  O  O333  1  0.48513659  1.00518528  0.37323686  1
  O  O334  1  0.50012287  0.98875796  0.86739572  1
  O  O335  1  0.99191391  0.50132442  0.38495463  1
  O  O336  1  0.99019029  0.48942660  0.87190435  1
  O  O337  1  0.98694865  0.99631567  0.36428011  1
  O  O338  1  0.99630149  0.99458693  0.87790284  1
  O  O339  1  0.00063888  0.00744115  0.11854776  1
  O  O340  1  0.01553639  -0.00037504  0.63357314  1
  O  O341  1  -0.00517258  0.49105044  0.12175149  1
  O  O342  1  -0.00592540  0.49887398  0.61414725  1
  O  O343  1  0.51082296  0.00761981  0.12812488  1
  O  O344  1  0.50431871  0.01316810  0.62088020  1
  O  O345  1  0.50153476  0.49077515  0.12780651  1
  O  O346  1  0.50635607  0.49011709  0.61322145  1
  O  O347  1  0.25770509  0.39429089  0.25165283  1
  O  O348  1  0.24744689  0.38180570  0.74069646  1
  O  O349  1  0.24571684  0.87405268  0.24142249  1
  O  O350  1  0.25129462  0.88883120  0.75353582  1
  O  O351  1  0.74309781  0.38166110  0.24097048  1
  O  O352  1  0.73213866  0.37854672  0.75673318  1
  O  O353  1  0.74348909  0.88211936  0.24172306  1
  O  O354  1  0.74356292  0.87909199  0.74237981  1
  O  O355  1  0.25936123  0.11499852  0.24572540  1
  O  O356  1  0.26149215  0.11859920  0.74849482  1
  O  O357  1  0.25053549  0.62004728  0.26274641  1
  O  O358  1  0.24952999  0.62427582  0.75931702  1
  O  O359  1  0.74540248  0.11095747  0.24734544  1
  O  O360  1  0.75314386  0.12120172  0.75534963  1
  O  O361  1  0.75291944  0.61187983  0.25392589  1
  O  O362  1  0.75477365  0.62550325  0.75650842  1
  O  O363  1  0.37405023  0.11793175  0.36091337  1
  O  O364  1  0.37654174  0.12383181  0.86402054  1
  O  O365  1  0.35972548  0.63170638  0.36878338  1
  O  O366  1  0.36530797  0.64458659  0.86843076  1
  O  O367  1  0.87275859  0.11173971  0.37420616  1
  O  O368  1  0.86806484  0.12079312  0.86844618  1
  O  O369  1  0.87344608  0.61531955  0.36793086  1
  O  O370  1  0.86433784  0.62113160  0.86623485  1
  O  O371  1  0.15782122  0.37686085  0.12735750  1
  O  O372  1  0.13524735  0.36750863  0.62718393  1
  O  O373  1  0.13315110  0.87885013  0.12991545  1
  O  O374  1  0.12418756  0.88814436  0.63011684  1
  O  O375  1  0.62841750  0.38431678  0.13439567  1
  O  O376  1  0.62052191  0.38378469  0.63472156  1
  O  O377  1  0.63719355  0.88051626  0.12573124  1
  O  O378  1  0.62903804  0.88220713  0.62445194  1
  O  O379  1  0.11390595  0.25154479  0.24598911  1
  O  O380  1  0.11604771  0.24537593  0.75548339  1
  O  O381  1  0.11705321  0.75601668  0.23912829  1
  O  O382  1  0.11769700  0.74926832  0.75580400  1
  O  O383  1  0.61549599  0.25791365  0.24050375  1
  O  O384  1  0.62387958  0.25648381  0.75829347  1
  O  O385  1  0.63139776  0.76288446  0.25418904  1
  O  O386  1  0.61922103  0.75459778  0.74795143  1
  O  O387  1  0.38037591  0.23833652  0.24398512  1
  O  O388  1  0.37420601  0.24236727  0.74043985  1
  O  O389  1  0.37029014  0.73378699  0.24927065  1
  O  O390  1  0.38035139  0.75562976  0.73385701  1
  O  O391  1  0.88022892  0.25674608  0.23442103  1
  O  O392  1  0.87732474  0.24563553  0.74554250  1
  O  O393  1  0.87937008  0.74415611  0.24152201  1
  O  O394  1  0.88100358  0.74397810  0.74515332  1
  O  O395  1  0.38220134  0.48147788  0.50831445  1
  O  O396  1  0.32995252  0.47475266  1.03904666  1
  O  O397  1  0.36970852  0.99058770  0.49199873  1
  O  O398  1  0.36843678  0.98818700  0.99775156  1
  O  O399  1  0.88526604  0.50196636  0.49637028  1
  O  O400  1  0.86534872  0.50734020  0.98507877  1
  O  O401  1  0.86904161  0.99401798  0.48437888  1
  O  O402  1  0.88117112  0.99923851  0.99185194  1
  O  O403  1  0.11967355  0.00603559  0.00211181  1
  O  O404  1  0.13217059  -0.00264960  0.51272879  1
  O  O405  1  0.14103248  0.51165784  -0.01076954  1
  O  O406  1  0.11232316  0.50926423  0.49976785  1
  O  O407  1  0.63343331  0.00521693  0.01278201  1
  O  O408  1  0.62763930  0.00866733  0.50329028  1
  O  O409  1  0.62586155  0.50304554  0.01993275  1
  O  O410  1  0.60980573  0.48602190  0.50633506  1
  O  O411  1  0.36547151  0.36031228  0.13927369  1
  O  O412  1  0.37035215  0.36104149  0.61929686  1
  O  O413  1  0.36905824  0.87218664  0.11859971  1
  O  O414  1  0.37129625  0.87668665  0.61271303  1
  O  O415  1  0.86586376  0.37150285  0.11992282  1
  O  O416  1  0.87369598  0.36332621  0.62797453  1
  O  O417  1  0.86479761  0.86837687  0.12337620  1
  O  O418  1  0.87210994  0.86993229  0.61825414  1
  O  O419  1  0.12959524  0.12909106  0.37498991  1
  O  O420  1  0.12251694  0.13500437  0.88195852  1
  O  O421  1  0.13676152  0.62608457  0.38931510  1
  O  O422  1  0.12829055  0.63760693  0.88139834  1
  O  O423  1  0.62552573  0.11963539  0.38292059  1
  O  O424  1  0.62904338  0.13204011  0.87781415  1
  O  O425  1  0.62732382  0.61747078  0.39959303  1
  O  O426  1  0.63289609  0.62816725  0.87415470  1
