# generated using pymatgen
data_V85Zn86O256
_symmetry_space_group_name_H-M   'P 1'
_cell_length_a   16.94244067
_cell_length_b   16.93900522
_cell_length_c   16.94762792
_cell_angle_alpha   90.05910307
_cell_angle_beta   89.98754360
_cell_angle_gamma   90.04404966
_symmetry_Int_Tables_number   1
_chemical_formula_structural   V85Zn86O256
_chemical_formula_sum   'V85 Zn86 O256'
_cell_volume   4863.76324270
_cell_formula_units_Z   1
loop_
 _symmetry_equiv_pos_site_id
 _symmetry_equiv_pos_as_xyz
  1  'x, y, z'
loop_
 _atom_site_type_symbol
 _atom_site_label
 _atom_site_symmetry_multiplicity
 _atom_site_fract_x
 _atom_site_fract_y
 _atom_site_fract_z
 _atom_site_occupancy
  V  V0  1  -0.00036510  0.13701354  0.12965150  1
  V  V1  1  0.87670161  0.12472569  0.74331537  1
  V  V2  1  0.62541911  0.37740474  0.25395434  1
  V  V3  1  0.24867732  0.74930462  0.00379197  1
  V  V4  1  0.87107679  0.51224905  0.87324784  1
  V  V5  1  0.24635813  -0.00297594  0.25155747  1
  V  V6  1  0.87689617  -0.00169951  0.87210671  1
  V  V7  1  0.50014888  0.12482057  0.12522540  1
  V  V8  1  0.49981405  0.25279912  0.25362474  1
  V  V9  1  0.51978003  0.49793274  0.50743829  1
  V  V10  1  0.12621929  0.12684968  -0.00272551  1
  V  V11  1  0.88066806  0.74154972  0.12541161  1
  V  V12  1  0.37457321  0.00001855  0.37524419  1
  V  V13  1  0.87733648  0.61536343  0.25127826  1
  V  V14  1  -0.00498336  0.62001565  0.63262088  1
  V  V15  1  0.00580877  0.74716975  0.24784552  1
  V  V16  1  0.25169928  0.25873023  0.49753121  1
  V  V17  1  0.50133834  0.25584413  0.75679937  1
  V  V18  1  0.25927866  0.61907542  0.87772300  1
  V  V19  1  0.74362473  0.00335840  0.75090661  1
  V  V20  1  0.12149999  0.37136796  0.25086714  1
  V  V21  1  0.24307024  0.37519991  0.63059505  1
  V  V22  1  0.62376964  0.12596212  0.50140269  1
  V  V23  1  0.62176303  -0.00203734  0.63086433  1
  V  V24  1  0.11374471  0.25057712  0.37321298  1
  V  V25  1  0.37011002  0.49586750  0.39037464  1
  V  V26  1  0.12459820  0.61771387  0.49803803  1
  V  V27  1  0.37402895  0.25299785  0.12561931  1
  V  V28  1  0.75411722  0.24837343  0.50295654  1
  V  V29  1  0.63953332  0.74044492  0.37659138  1
  V  V30  1  0.00536197  0.37797306  0.87047091  1
  V  V31  1  0.25302081  0.25223092  -0.00296445  1
  V  V32  1  0.00280169  0.12380960  0.62415050  1
  V  V33  1  0.75007557  0.87099137  0.12368261  1
  V  V34  1  0.37380344  0.12634768  0.25044403  1
  V  V35  1  0.38199407  0.74992677  0.13283848  1
  V  V36  1  0.62537171  -0.00124575  0.12283004  1
  V  V37  1  0.74944540  0.12471788  0.37318290  1
  V  V38  1  0.75972794  0.61813139  0.38782523  1
  V  V39  1  0.75636095  0.51092713  0.74498716  1
  V  V40  1  0.12224827  0.62492803  0.00585421  1
  V  V41  1  0.62693820  0.75568349  0.88023778  1
  V  V42  1  0.56419430  0.56971845  -0.04807918  1
  V  V43  1  0.36661665  0.86698995  0.50415717  1
  V  V44  1  0.37608656  0.62666167  0.26086978  1
  V  V45  1  0.12201289  0.49858682  0.63379003  1
  V  V46  1  0.68464822  0.82443391  0.69372925  1
  V  V47  1  0.12137403  0.50395273  0.12811338  1
  V  V48  1  0.49835812  0.12791887  0.62491220  1
  V  V49  1  0.50553037  0.62620251  0.13460612  1
  V  V50  1  0.12968166  0.75081753  0.37965297  1
  V  V51  1  0.25057796  0.37772077  0.12589757  1
  V  V52  1  0.63251542  0.37702353  0.74483343  1
  V  V53  1  -0.00791547  0.75271669  0.75053568  1
  V  V54  1  0.63179858  0.13455367  -0.00124732  1
  V  V55  1  0.49921446  0.86115319  0.36939596  1
  V  V56  1  0.37109659  0.12666196  0.74899683  1
  V  V57  1  0.87527640  0.87372671  0.00000817  1
  V  V58  1  -0.00867095  0.38843252  0.37233862  1
  V  V59  1  0.38098045  0.39003353  -0.00633738  1
  V  V60  1  -0.00074510  -0.00038599  0.49456782  1
  V  V61  1  0.12794482  -0.01671729  0.62498118  1
  V  V62  1  0.50296021  0.87317590  0.85987451  1
  V  V63  1  0.86909140  0.36512164  -0.00238536  1
  V  V64  1  0.50074943  -0.00116865  -0.00079079  1
  V  V65  1  0.24652410  -0.01407836  0.74647192  1
  V  V66  1  0.62206104  0.50256078  0.12770082  1
  V  V67  1  0.12798026  0.75189389  0.86832159  1
  V  V68  1  0.00824684  0.25313701  0.74807888  1
  V  V69  1  0.37546440  0.25973111  0.62177343  1
  V  V70  1  -0.00256947  0.50300935  0.00445076  1
  V  V71  1  0.24888352  0.87446406  0.12829377  1
  V  V72  1  0.00061883  0.00008102  -0.00041784  1
  V  V73  1  0.49692832  -0.00012429  0.49788710  1
  V  V74  1  0.50374332  0.63278347  0.62041151  1
  V  V75  1  0.75157057  0.00101716  0.24817976  1
  V  V76  1  0.37351615  -0.00023563  0.87439458  1
  V  V77  1  0.25027515  0.50560801  0.25637709  1
  V  V78  1  0.12800318  0.12575870  0.50052696  1
  V  V79  1  0.12269350  -0.00596409  0.12682397  1
  V  V80  1  0.00094272  0.87424603  0.36688514  1
  V  V81  1  0.25689301  0.49710620  0.75483320  1
  V  V82  1  0.74776067  0.73272225  -0.00038597  1
  V  V83  1  0.37753611  0.87528089  0.00161183  1
  V  V84  1  0.87937659  0.38547209  0.49886388  1
  Zn  Zn85  1  0.85139605  0.85285893  0.49702914  1
  Zn  Zn86  1  0.61952619  0.87025280  0.24734014  1
  Zn  Zn87  1  0.86494876  0.74914929  0.62245085  1
  Zn  Zn88  1  0.62298121  0.25247823  0.37849839  1
  Zn  Zn89  1  0.24901732  0.12583942  0.87281962  1
  Zn  Zn90  1  0.49634652  0.37479002  0.38423026  1
  Zn  Zn91  1  0.23481040  0.75730632  0.51867444  1
  Zn  Zn92  1  0.75688661  0.13462460  0.87897704  1
  Zn  Zn93  1  0.50027598  0.39096135  0.87501426  1
  Zn  Zn94  1  0.74257241  0.36969601  0.11903790  1
  Zn  Zn95  1  0.86310077  0.25009655  0.12831519  1
  Zn  Zn96  1  0.75008608  0.38182823  0.62152490  1
  Zn  Zn97  1  0.37087962  0.75114549  0.64417938  1
  Zn  Zn98  1  0.75245938  0.49856548  0.25174984  1
  Zn  Zn99  1  0.87688199  0.25160101  0.62365375  1
  Zn  Zn100  1  0.24894313  0.12923193  0.37257186  1
  Zn  Zn101  1  0.63646216  0.25849757  0.87887219  1
  Zn  Zn102  1  0.38082478  0.62598536  0.75076949  1
  Zn  Zn103  1  0.12990014  0.25637963  0.86904881  1
  Zn  Zn104  1  0.00942984  0.87833949  0.87106558  1
  Zn  Zn105  1  0.88045313  0.13242876  0.25399412  1
  Zn  Zn106  1  0.87160502  -0.00517957  0.37447717  1
  Zn  Zn107  1  0.18588474  0.18727138  0.18589828  1
  Zn  Zn108  1  0.18817516  0.18394573  0.68455852  1
  Zn  Zn109  1  0.18882981  0.68726042  0.19046940  1
  Zn  Zn110  1  0.19126651  0.68593841  0.68790230  1
  Zn  Zn111  1  0.68945220  0.19224781  0.18626341  1
  Zn  Zn112  1  0.68832236  0.18827629  0.68890504  1
  Zn  Zn113  1  0.68898573  0.68912007  0.19655827  1
  Zn  Zn114  1  0.68725273  0.66387230  0.67870475  1
  Zn  Zn115  1  0.31022676  0.31775548  0.31476913  1
  Zn  Zn116  1  0.31441871  0.31653046  0.81308911  1
  Zn  Zn117  1  0.30995987  0.81256292  0.31540758  1
  Zn  Zn118  1  0.31383052  0.80748224  0.81242092  1
  Zn  Zn119  1  0.81217431  0.30725073  0.30880930  1
  Zn  Zn120  1  0.81595042  0.31259230  0.81282228  1
  Zn  Zn121  1  0.81625358  0.81024414  0.31027502  1
  Zn  Zn122  1  0.81676916  0.80714962  0.81949620  1
  Zn  Zn123  1  0.18471356  0.43906715  0.44041559  1
  Zn  Zn124  1  0.18720371  0.43814958  0.93868168  1
  Zn  Zn125  1  0.18265147  0.93495198  0.43283100  1
  Zn  Zn126  1  0.19095962  0.93723930  0.93740773  1
  Zn  Zn127  1  0.69186446  0.43604623  0.43423935  1
  Zn  Zn128  1  0.69136925  0.43434103  0.92879393  1
  Zn  Zn129  1  0.68186033  0.93336811  0.43734359  1
  Zn  Zn130  1  0.68861725  0.93780032  0.93657070  1
  Zn  Zn131  1  0.31176999  0.06351202  0.06342112  1
  Zn  Zn132  1  0.30949509  0.06247389  0.56347825  1
  Zn  Zn133  1  0.31224151  0.56614608  0.06951492  1
  Zn  Zn134  1  0.30612139  0.57220269  0.56781751  1
  Zn  Zn135  1  0.81392668  0.06321857  0.06268902  1
  Zn  Zn136  1  0.79619623  0.02927942  0.54783823  1
  Zn  Zn137  1  0.81228962  0.55604044  0.06722921  1
  Zn  Zn138  1  0.81997831  0.56477055  0.56260189  1
  Zn  Zn139  1  0.43898225  0.44112446  0.18818406  1
  Zn  Zn140  1  0.43797086  0.44038880  0.68406381  1
  Zn  Zn141  1  0.43615389  0.93819003  0.18947211  1
  Zn  Zn142  1  0.43377778  0.93887989  0.68442295  1
  Zn  Zn143  1  0.93893820  0.43154487  0.18479896  1
  Zn  Zn144  1  0.93489181  0.43609136  0.68791754  1
  Zn  Zn145  1  0.93598534  0.93717588  0.18764045  1
  Zn  Zn146  1  0.93715686  0.93313407  0.68407673  1
  Zn  Zn147  1  0.06508890  0.06288871  0.31064512  1
  Zn  Zn148  1  0.06513511  0.06202697  0.81040895  1
  Zn  Zn149  1  0.06066629  0.56466280  0.31328968  1
  Zn  Zn150  1  0.06659349  0.56406695  0.81358880  1
  Zn  Zn151  1  0.56488510  0.06023591  0.31230212  1
  Zn  Zn152  1  0.55992531  0.06605101  0.81502714  1
  Zn  Zn153  1  0.55999301  0.56306412  0.31932178  1
  Zn  Zn154  1  0.57162503  0.56683868  0.79003448  1
  Zn  Zn155  1  0.43403966  0.18791194  0.43759646  1
  Zn  Zn156  1  0.43827071  0.18801291  0.93726431  1
  Zn  Zn157  1  0.43637287  0.68317327  0.44292345  1
  Zn  Zn158  1  0.43498273  0.69730046  0.93348933  1
  Zn  Zn159  1  0.93492994  0.18658731  0.43622101  1
  Zn  Zn160  1  0.94114468  0.18698185  0.93279395  1
  Zn  Zn161  1  0.94124044  0.68507840  0.44097248  1
  Zn  Zn162  1  0.94096089  0.68761076  0.93923853  1
  Zn  Zn163  1  0.06344369  0.31735517  0.05774490  1
  Zn  Zn164  1  0.06074484  0.31470103  0.56038234  1
  Zn  Zn165  1  0.06055244  0.81297465  0.06147804  1
  Zn  Zn166  1  0.02884597  0.81625371  0.56485661  1
  Zn  Zn167  1  0.55956327  0.31584910  0.06529800  1
  Zn  Zn168  1  0.56321195  0.31676971  0.56342992  1
  Zn  Zn169  1  0.56298026  0.81006404  0.05998408  1
  Zn  Zn170  1  0.55729446  0.80767615  0.55216678  1
  O  O171  1  0.11761373  0.11847411  0.11560925  1
  O  O172  1  0.12133706  0.11963805  0.61464528  1
  O  O173  1  0.13032572  0.62080530  0.11357155  1
  O  O174  1  0.11968717  0.61493400  0.62142999  1
  O  O175  1  0.61853591  0.11966696  0.11570817  1
  O  O176  1  0.61648786  0.12075665  0.62129250  1
  O  O177  1  0.61342092  0.62296624  0.13458470  1
  O  O178  1  0.60566441  0.62578753  0.61616617  1
  O  O179  1  0.37814469  0.39194394  0.37112633  1
  O  O180  1  0.37803716  0.37728281  0.88887122  1
  O  O181  1  0.38342413  0.87971069  0.37942213  1
  O  O182  1  0.38229699  0.88056003  0.88366109  1
  O  O183  1  0.88580632  0.37080590  0.38046582  1
  O  O184  1  0.88631023  0.38272331  0.88475249  1
  O  O185  1  0.88313315  0.87641055  0.37757132  1
  O  O186  1  0.87813641  0.88576895  0.88000999  1
  O  O187  1  0.25340657  0.00229746  0.36590699  1
  O  O188  1  0.25590286  0.00425237  0.86813120  1
  O  O189  1  0.25829730  0.49533459  0.36851674  1
  O  O190  1  0.24300497  0.50696838  0.86788335  1
  O  O191  1  0.74701699  0.00693049  0.36246864  1
  O  O192  1  0.75830228  0.00334402  0.86638926  1
  O  O193  1  0.74738639  0.51492554  0.37015150  1
  O  O194  1  0.76598962  0.49845662  0.86790651  1
  O  O195  1  0.24286421  0.49477556  0.13386351  1
  O  O196  1  0.24284845  0.49236070  0.63203693  1
  O  O197  1  0.24285741  0.99581243  0.13007942  1
  O  O198  1  0.24111989  1.00154478  0.63359958  1
  O  O199  1  0.73518384  0.49593616  0.12917634  1
  O  O200  1  0.76209898  0.50082983  0.64014338  1
  O  O201  1  0.74599088  0.99286463  0.12809019  1
  O  O202  1  0.73822774  1.00564445  0.64387780  1
  O  O203  1  0.00737481  0.37756289  0.26192586  1
  O  O204  1  -0.00508624  0.36523435  0.75743808  1
  O  O205  1  -0.00528459  0.86613946  0.25791240  1
  O  O206  1  0.00323415  0.85739300  0.75367266  1
  O  O207  1  0.50695891  0.36806660  0.25129672  1
  O  O208  1  0.50581488  0.37199773  0.75210874  1
  O  O209  1  0.49782802  0.87933858  0.26561957  1
  O  O210  1  0.49640164  0.88211243  0.76119740  1
  O  O211  1  0.49578253  0.13185665  0.24529666  1
  O  O212  1  0.48898352  0.13281221  0.74528716  1
  O  O213  1  0.48947829  0.62145518  0.24547365  1
  O  O214  1  0.49684589  0.61655917  0.72722801  1
  O  O215  1  1.00239253  0.12086042  0.23250553  1
  O  O216  1  0.99503724  0.12926292  0.74482041  1
  O  O217  1  0.98761077  0.63247602  0.25538808  1
  O  O218  1  1.00654978  0.63298675  0.74233137  1
  O  O219  1  0.36582223  0.25396811  0.00482987  1
  O  O220  1  0.36391724  0.24535261  0.50929348  1
  O  O221  1  0.36781056  0.75500055  0.01099030  1
  O  O222  1  0.36822057  0.76361686  0.49134625  1
  O  O223  1  0.88389606  0.26355356  -0.00095304  1
  O  O224  1  0.86801100  0.25494672  0.50085850  1
  O  O225  1  0.87094388  0.75321230  0.00631281  1
  O  O226  1  0.87414607  0.74383338  0.50715330  1
  O  O227  1  0.13086044  0.24471060  0.49279734  1
  O  O228  1  0.13731119  0.24520646  0.99993020  1
  O  O229  1  0.11799951  0.74456438  0.49284750  1
  O  O230  1  0.12826383  0.74146919  0.99745487  1
  O  O231  1  0.63112009  0.24276783  0.50057815  1
  O  O232  1  0.61430801  0.23707035  0.99963422  1
  O  O233  1  0.62784526  0.76257176  0.47530290  1
  O  O234  1  0.63588056  0.75117858  0.99323200  1
  O  O235  1  0.49368103  0.24623731  0.13646305  1
  O  O236  1  0.49149100  0.24863267  0.63311671  1
  O  O237  1  0.48913065  0.74468285  0.12337168  1
  O  O238  1  0.49151098  0.73696416  0.61195323  1
  O  O239  1  1.00605787  0.23727261  0.11943005  1
  O  O240  1  1.00025573  0.24263459  0.63002300  1
  O  O241  1  0.99167146  0.75441710  0.13314303  1
  O  O242  1  1.01399742  0.73511768  0.64427176  1
  O  O243  1  0.01126066  0.25511142  0.37740958  1
  O  O244  1  0.00345662  0.25862102  0.86638052  1
  O  O245  1  0.00538003  0.75612282  0.36708334  1
  O  O246  1  0.00892919  0.74778798  0.86605356  1
  O  O247  1  0.49720433  0.25173556  0.36461653  1
  O  O248  1  0.49865874  0.25162058  0.86170571  1
  O  O249  1  0.50232786  0.75928219  0.37789768  1
  O  O250  1  0.51459903  0.76089206  0.88169287  1
  O  O251  1  0.24029611  0.13515906  0.49965723  1
  O  O252  1  0.24334845  0.13394821  1.00048049  1
  O  O253  1  0.22816071  0.63222626  0.50545720  1
  O  O254  1  0.24377000  0.62903925  0.99798625  1
  O  O255  1  0.74403536  0.12646516  0.49337852  1
  O  O256  1  0.73456178  0.11900008  0.99962239  1
  O  O257  1  0.75549534  0.62051354  0.48681112  1
  O  O258  1  0.75460023  0.63408764  1.00477147  1
  O  O259  1  0.25790349  0.36924896  0.00449448  1
  O  O260  1  0.24421782  0.36454161  0.51063848  1
  O  O261  1  0.25798250  0.87052693  0.00843016  1
  O  O262  1  0.26370692  0.87709766  0.49275865  1
  O  O263  1  0.76668656  0.38030032  -0.00318304  1
  O  O264  1  0.76139312  0.36653329  0.49823374  1
  O  O265  1  0.75622110  0.87221568  0.01092169  1
  O  O266  1  0.76543328  0.92322578  0.50759939  1
  O  O267  1  0.13105439  0.49430779  0.24960607  1
  O  O268  1  0.13561493  0.50276407  0.74037146  1
  O  O269  1  0.13481368  1.00513461  0.23851528  1
  O  O270  1  0.13478000  1.00485280  0.73855328  1
  O  O271  1  0.62146568  0.49310957  0.24501787  1
  O  O272  1  0.64740432  0.49198445  0.75500784  1
  O  O273  1  0.63482253  0.99715375  0.24025367  1
  O  O274  1  0.63141136  1.00610575  0.74736065  1
  O  O275  1  0.36781830  0.00723968  0.25482355  1
  O  O276  1  0.36737282  0.00864161  0.75167113  1
  O  O277  1  0.36761220  0.50697031  0.25636144  1
  O  O278  1  0.36092754  0.50082800  0.74781551  1
  O  O279  1  0.86207646  0.00694457  0.24716974  1
  O  O280  1  0.87118167  0.00256618  0.75423210  1
  O  O281  1  0.87596561  0.51197535  0.24048808  1
  O  O282  1  0.86825573  0.49454006  0.76405369  1
  O  O283  1  0.11494281  0.37108835  0.37067614  1
  O  O284  1  0.11025971  0.37468505  0.88133245  1
  O  O285  1  0.11555939  0.86385781  0.37195370  1
  O  O286  1  0.12598036  0.85693035  0.88647564  1
  O  O287  1  0.61860976  0.37288210  0.36804995  1
  O  O288  1  0.61859409  0.37451195  0.86402427  1
  O  O289  1  0.61107687  0.87409908  0.37058553  1
  O  O290  1  0.61620101  0.86841738  0.87877992  1
  O  O291  1  0.38068528  0.13220292  0.13030690  1
  O  O292  1  0.37811887  0.13437784  0.63114372  1
  O  O293  1  0.38427435  0.63103031  0.13561981  1
  O  O294  1  0.38411360  0.62713193  0.62615338  1
  O  O295  1  0.89183057  0.12633751  0.11897218  1
  O  O296  1  0.88215464  0.12122353  0.63675619  1
  O  O297  1  0.87154110  0.63527417  0.13321610  1
  O  O298  1  0.89172936  0.62702801  0.62788018  1
  O  O299  1  0.25411119  0.25712661  0.11825476  1
  O  O300  1  0.25419694  0.25689222  0.61999159  1
  O  O301  1  0.25769208  0.75501671  0.12325488  1
  O  O302  1  0.25683323  0.75179519  0.62894679  1
  O  O303  1  0.74827894  0.25581500  0.11888186  1
  O  O304  1  0.75307446  0.24838561  0.61217118  1
  O  O305  1  0.75595454  0.75550086  0.12051163  1
  O  O306  1  0.74352038  0.76024948  0.63873611  1
  O  O307  1  0.24151403  0.25301370  0.38327757  1
  O  O308  1  0.24913917  0.24896989  0.88312414  1
  O  O309  1  0.23170672  0.75351264  0.37475756  1
  O  O310  1  0.24196413  0.74245543  0.88449938  1
  O  O311  1  0.74664082  0.24169302  0.38616887  1
  O  O312  1  0.74956386  0.24700537  0.87342157  1
  O  O313  1  0.74617733  0.73867053  0.37185070  1
  O  O314  1  0.73927866  0.75529184  0.88635084  1
  O  O315  1  0.00869827  0.12037839  0.00609791  1
  O  O316  1  0.01362570  0.12414567  0.50138197  1
  O  O317  1  0.00781735  0.61280348  -0.00267164  1
  O  O318  1  0.01264644  0.62855864  0.52023143  1
  O  O319  1  0.50520744  0.11824364  0.00576782  1
  O  O320  1  0.50283727  0.12134590  0.50527539  1
  O  O321  1  0.49874421  0.62606336  0.00878416  1
  O  O322  1  0.49372720  0.60880903  0.50677140  1
  O  O323  1  0.50092223  0.39050384  0.50170666  1
  O  O324  1  0.48459406  0.37315533  0.99823067  1
  O  O325  1  0.48918038  0.88090690  0.48696457  1
  O  O326  1  0.49462631  0.88309780  0.99725569  1
  O  O327  1  0.98829107  0.36965359  0.48688588  1
  O  O328  1  0.99383049  0.38595663  0.99322139  1
  O  O329  1  1.00653746  0.88888529  0.47992030  1
  O  O330  1  0.99252116  0.88262611  0.99736654  1
  O  O331  1  0.48798181  0.50117559  0.39075140  1
  O  O332  1  0.51191761  0.51306401  0.88474497  1
  O  O333  1  0.49373050  0.99585399  0.38051156  1
  O  O334  1  0.49342988  0.99427329  0.88077005  1
  O  O335  1  1.00089061  0.48645969  0.37573738  1
  O  O336  1  0.99335041  0.49558301  0.87918458  1
  O  O337  1  1.00113250  0.99411707  0.37599832  1
  O  O338  1  0.99534694  0.99830611  0.87960666  1
  O  O339  1  0.00733996  0.00486462  0.11918227  1
  O  O340  1  0.00963720  0.00689794  0.61596755  1
  O  O341  1  0.00777688  0.49544702  0.11514237  1
  O  O342  1  0.00626694  0.51085909  0.63568343  1
  O  O343  1  0.50504821  0.00431308  0.12056419  1
  O  O344  1  0.50240386  0.00731885  0.61923794  1
  O  O345  1  0.51089967  0.51048038  0.12575180  1
  O  O346  1  0.49624460  0.50498629  0.61030152  1
  O  O347  1  0.24234497  0.38555530  0.24577665  1
  O  O348  1  0.24990895  0.37864034  0.73945600  1
  O  O349  1  0.25650356  0.88881373  0.24338714  1
  O  O350  1  0.25261382  0.88740607  0.75752221  1
  O  O351  1  0.73537088  0.37724340  0.25259988  1
  O  O352  1  0.74790042  0.38154052  0.74652509  1
  O  O353  1  0.75195616  0.88119671  0.23763460  1
  O  O354  1  0.75003706  0.88121879  0.75162925  1
  O  O355  1  0.25530608  0.11594540  0.24763812  1
  O  O356  1  0.26177897  0.12301402  0.75047237  1
  O  O357  1  0.25770502  0.61217945  0.24595257  1
  O  O358  1  0.24995178  0.61477078  0.76306414  1
  O  O359  1  0.74526225  0.11771456  0.25746280  1
  O  O360  1  0.75996066  0.11881874  0.75317306  1
  O  O361  1  0.76417041  0.62384844  0.25665695  1
  O  O362  1  0.75234877  0.61070226  0.75370756  1
  O  O363  1  0.37038453  0.11857834  0.36830416  1
  O  O364  1  0.37511109  0.11852478  0.86624884  1
  O  O365  1  0.37673203  0.61440585  0.36712721  1
  O  O366  1  0.36187065  0.62515353  0.88228156  1
  O  O367  1  0.86103399  0.12125420  0.37336776  1
  O  O368  1  0.87901131  0.11306820  0.86535397  1
  O  O369  1  0.86687914  0.62732188  0.36623747  1
  O  O370  1  0.88009918  0.61064935  0.87866776  1
  O  O371  1  0.12872763  0.38048957  0.13376438  1
  O  O372  1  0.13082531  0.38456889  0.61993727  1
  O  O373  1  0.12994146  0.88739294  0.11908023  1
  O  O374  1  0.11666867  0.88575800  0.61424812  1
  O  O375  1  0.62070976  0.38558101  0.13248073  1
  O  O376  1  0.63011358  0.37077199  0.63973759  1
  O  O377  1  0.63237476  0.87894746  0.12574797  1
  O  O378  1  0.61917621  0.87490531  0.63008639  1
  O  O379  1  0.13304436  0.26302776  0.25779769  1
  O  O380  1  0.11301659  0.24144597  0.75104787  1
  O  O381  1  0.11179323  0.73906771  0.25766705  1
  O  O382  1  0.12153931  0.74224422  0.76660067  1
  O  O383  1  0.61418700  0.25680326  0.25265488  1
  O  O384  1  0.61617815  0.25537272  0.75138355  1
  O  O385  1  0.62731114  0.75577537  0.26824676  1
  O  O386  1  0.63735954  0.75659227  0.75470859  1
  O  O387  1  0.37875326  0.24752872  0.24648683  1
  O  O388  1  0.37971511  0.24515812  0.74351244  1
  O  O389  1  0.36703082  0.73988004  0.24417573  1
  O  O390  1  0.38265273  0.74177497  0.75957647  1
  O  O391  1  0.87492680  0.24505715  0.24239076  1
  O  O392  1  0.88691849  0.24030541  0.74688891  1
  O  O393  1  0.88410253  0.74180214  0.24240611  1
  O  O394  1  0.88858089  0.74926686  0.74916590  1
  O  O395  1  0.36190620  0.50255898  0.48928029  1
  O  O396  1  0.36968490  0.48749746  1.00724684  1
  O  O397  1  0.37756908  0.99411153  0.49420924  1
  O  O398  1  0.38015276  0.99656967  0.99601470  1
  O  O399  1  0.87313459  0.48418513  0.49831166  1
  O  O400  1  0.88125575  0.49521908  0.99187759  1
  O  O401  1  0.89772388  1.01742216  0.49460734  1
  O  O402  1  0.87963881  0.99674687  0.99087284  1
  O  O403  1  0.12346298  0.00847870  0.00617003  1
  O  O404  1  0.12122316  0.00894831  0.50259037  1
  O  O405  1  0.11809322  0.50628886  0.00589419  1
  O  O406  1  0.12650540  0.51125999  0.51010107  1
  O  O407  1  0.61906078  0.00714420  0.00484164  1
  O  O408  1  0.61351851  0.00685640  0.50825852  1
  O  O409  1  0.62691497  0.50461278  0.00390816  1
  O  O410  1  0.61825498  0.49771670  0.49945500  1
  O  O411  1  0.37083910  0.37084211  0.11850077  1
  O  O412  1  0.36598195  0.36377745  0.62852049  1
  O  O413  1  0.37190960  0.86707278  0.12292921  1
  O  O414  1  0.38259772  0.87294653  0.60627859  1
  O  O415  1  0.87563040  0.37584292  0.10737913  1
  O  O416  1  0.87629140  0.37174003  0.61027877  1
  O  O417  1  0.86876894  0.86503306  0.12053966  1
  O  O418  1  0.91052752  0.85808595  0.60654085  1
  O  O419  1  0.12747521  0.13394656  0.38012608  1
  O  O420  1  0.12596861  0.12721081  0.88820645  1
  O  O421  1  0.11379200  0.63083517  0.39157376  1
  O  O422  1  0.13261401  0.63216874  0.88863069  1
  O  O423  1  0.63349695  0.12592382  0.38193930  1
  O  O424  1  0.62287150  0.12648783  0.89097508  1
  O  O425  1  0.63792470  0.63384402  0.37206104  1
  O  O426  1  0.61422907  0.63101730  0.88453129  1
