# generated using pymatgen
data_V85Zn86O256
_symmetry_space_group_name_H-M   'P 1'
_cell_length_a   16.93195134
_cell_length_b   16.93255450
_cell_length_c   16.93949372
_cell_angle_alpha   90.00623341
_cell_angle_beta   89.99112849
_cell_angle_gamma   89.97246212
_symmetry_Int_Tables_number   1
_chemical_formula_structural   V85Zn86O256
_chemical_formula_sum   'V85 Zn86 O256'
_cell_volume   4856.57234002
_cell_formula_units_Z   1
loop_
 _symmetry_equiv_pos_site_id
 _symmetry_equiv_pos_as_xyz
  1  'x, y, z'
loop_
 _atom_site_type_symbol
 _atom_site_label
 _atom_site_symmetry_multiplicity
 _atom_site_fract_x
 _atom_site_fract_y
 _atom_site_fract_z
 _atom_site_occupancy
  V  V0  1  -0.00030487  0.62709833  0.12435609  1
  V  V1  1  0.74549390  0.88057434  0.12380366  1
  V  V2  1  0.25475031  0.36007575  0.12586787  1
  V  V3  1  0.75198851  0.49640154  0.73877120  1
  V  V4  1  0.38169867  0.63771575  0.24524796  1
  V  V5  1  0.62327869  0.24791536  0.37628220  1
  V  V6  1  0.37233023  0.00149963  0.37463983  1
  V  V7  1  0.87633609  0.37279719  -0.00093750  1
  V  V8  1  0.62060244  0.11960988  0.51484181  1
  V  V9  1  0.73833719  0.88214787  0.63798730  1
  V  V10  1  0.87477806  0.25291673  0.62767194  1
  V  V11  1  0.49953494  0.24235187  0.74242699  1
  V  V12  1  0.74252001  0.74597148  -0.00036850  1
  V  V13  1  0.13450180  0.13463431  -0.00001959  1
  V  V14  1  0.12841712  0.75307381  0.87446553  1
  V  V15  1  0.49840969  -0.00256338  0.00979408  1
  V  V16  1  0.00483352  0.36577538  0.87366630  1
  V  V17  1  0.75019903  0.50049896  0.25077989  1
  V  V18  1  0.50118422  0.62348271  0.62039656  1
  V  V19  1  0.37783997  0.36399266  0.00687614  1
  V  V20  1  0.24819440  0.61935254  0.87596205  1
  V  V21  1  -0.00129757  0.88248139  0.38230401  1
  V  V22  1  0.87311203  0.75410046  0.62483370  1
  V  V23  1  0.38032819  0.24127885  0.60950488  1
  V  V24  1  -0.00223704  0.00243031  -0.00090027  1
  V  V25  1  0.87880005  0.49071246  0.37556740  1
  V  V26  1  0.37398781  0.49537753  0.37429365  1
  V  V27  1  0.26161791  0.87279985  0.12447604  1
  V  V28  1  0.87501590  0.62631465  0.25259546  1
  V  V29  1  0.14444586  0.88524507  0.74990777  1
  V  V30  1  0.49711409  0.87095984  0.37556357  1
  V  V31  1  0.87425065  0.88663390  0.50548344  1
  V  V32  1  0.61899418  0.88038700  0.24961957  1
  V  V33  1  0.50482565  0.12819032  0.12757462  1
  V  V34  1  0.00177013  0.62699510  0.62326368  1
  V  V35  1  0.26157145  0.37168093  0.60860110  1
  V  V36  1  0.36122498  0.74915030  0.62216211  1
  V  V37  1  0.62228903  0.75093149  0.37461411  1
  V  V38  1  0.87674727  0.12599931  0.25130244  1
  V  V39  1  0.62794999  0.37498359  0.73993496  1
  V  V40  1  0.50497145  0.74693545  0.74785700  1
  V  V41  1  0.25068286  0.63000542  0.37943319  1
  V  V42  1  0.12439888  0.62803006  0.00057386  1
  V  V43  1  0.37555422  0.49219306  0.87760060  1
  V  V44  1  0.25223823  0.49117021  0.75047863  1
  V  V45  1  0.74000311  0.62397200  0.87590944  1
  V  V46  1  0.62402646  0.37432295  0.24898074  1
  V  V47  1  0.11947302  0.25126061  0.38793067  1
  V  V48  1  0.36827667  0.12961648  0.24293022  1
  V  V49  1  0.87535625  0.50146466  0.87377483  1
  V  V50  1  0.74792759  0.12208231  0.38101773  1
  V  V51  1  0.49930675  -0.00096111  0.50770468  1
  V  V52  1  0.62683754  0.50634180  0.11976693  1
  V  V53  1  0.86506762  0.11989632  0.75448926  1
  V  V54  1  0.13507307  0.00005835  0.61679782  1
  V  V55  1  0.51764563  0.91107441  0.83348220  1
  V  V56  1  0.12619879  0.36646260  0.74801790  1
  V  V57  1  0.00200973  0.49259344  0.49770998  1
  V  V58  1  0.75202630  0.62829385  0.37480265  1
  V  V59  1  0.12726582  0.49841061  0.62287915  1
  V  V60  1  0.63084501  0.12359302  0.00100144  1
  V  V61  1  0.00618834  0.50103301  -0.00248673  1
  V  V62  1  0.36874501  0.01893161  0.86250942  1
  V  V63  1  0.11825516  0.37318105  0.25270732  1
  V  V64  1  0.74767219  0.25841676  0.50610712  1
  V  V65  1  0.49412601  0.25244244  0.24511855  1
  V  V66  1  0.26232916  0.74953090  0.00249966  1
  V  V67  1  0.25066638  0.50225942  0.24573494  1
  V  V68  1  0.12354362  0.87442894  0.24813691  1
  V  V69  1  0.12473505  -0.00246105  0.12314968  1
  V  V70  1  -0.00023204  0.75223416  0.25109542  1
  V  V71  1  0.24639716  0.13215213  0.38749739  1
  V  V72  1  0.50453238  0.50666621  -0.00094517  1
  V  V73  1  0.87587136  0.62576700  0.74991132  1
  V  V74  1  0.85870900  0.00084127  0.87404535  1
  V  V75  1  -0.00147347  0.87759568  0.87057953  1
  V  V76  1  0.49550802  0.37322967  0.37638139  1
  V  V77  1  0.49725653  0.49556290  0.49940157  1
  V  V78  1  0.87021852  0.75073256  0.12530401  1
  V  V79  1  0.75047258  0.37251184  0.12277020  1
  V  V80  1  0.36070254  0.86932414  0.50057946  1
  V  V81  1  0.63307422  0.25038180  0.87427116  1
  V  V82  1  0.00083025  0.11412400  0.61644479  1
  V  V83  1  0.12671124  0.75295081  0.38574486  1
  V  V84  1  0.74629214  0.00170188  0.24979929  1
  Zn  Zn85  1  -0.00089196  0.12845966  0.12713255  1
  Zn  Zn86  1  0.37367428  0.62107099  0.74844044  1
  Zn  Zn87  1  0.24787881  0.00285545  0.24898054  1
  Zn  Zn88  1  0.62517510  0.62484779  0.49767098  1
  Zn  Zn89  1  0.00408821  0.75288552  0.74900515  1
  Zn  Zn90  1  0.61900678  0.75060912  0.87328136  1
  Zn  Zn91  1  0.38039247  0.87620143  -0.01326549  1
  Zn  Zn92  1  0.87761152  0.24940674  0.12663417  1
  Zn  Zn93  1  0.74728610  0.75266761  0.50272930  1
  Zn  Zn94  1  0.61220357  -0.00589439  0.65607827  1
  Zn  Zn95  1  0.17862196  0.19618674  0.84523190  1
  Zn  Zn96  1  0.75381545  0.24475506  -0.00437904  1
  Zn  Zn97  1  0.87368404  0.37467145  0.50399398  1
  Zn  Zn98  1  0.12569017  0.49873290  0.12575032  1
  Zn  Zn99  1  -0.00318372  0.25565206  0.25465558  1
  Zn  Zn100  1  0.13162035  0.63009808  0.50426169  1
  Zn  Zn101  1  0.87904697  0.00397178  0.38219450  1
  Zn  Zn102  1  0.50250524  0.37412309  0.87383295  1
  Zn  Zn103  1  0.49030915  0.63831470  0.11812788  1
  Zn  Zn104  1  0.62924749  0.49723273  0.61811661  1
  Zn  Zn105  1  0.87196712  0.87575964  -0.00143149  1
  Zn  Zn106  1  0.00134192  0.24181302  0.75074330  1
  Zn  Zn107  1  0.18118883  0.18671443  0.18945301  1
  Zn  Zn108  1  0.19433107  0.18192874  0.67024067  1
  Zn  Zn109  1  0.18908941  0.68938856  0.18884914  1
  Zn  Zn110  1  0.18555531  0.68554191  0.69422498  1
  Zn  Zn111  1  0.68795965  0.18826178  0.18733323  1
  Zn  Zn112  1  0.68781201  0.18635291  0.68763401  1
  Zn  Zn113  1  0.65126142  0.70889484  0.17054783  1
  Zn  Zn114  1  0.68716082  0.68565816  0.68569123  1
  Zn  Zn115  1  0.30779806  0.31157349  0.31356637  1
  Zn  Zn116  1  0.31416925  0.24982152  0.80486192  1
  Zn  Zn117  1  0.30892506  0.81389141  0.31246664  1
  Zn  Zn118  1  0.32689394  0.81540784  0.81504509  1
  Zn  Zn119  1  0.80971958  0.31025833  0.31480047  1
  Zn  Zn120  1  0.81402164  0.31242391  0.81000197  1
  Zn  Zn121  1  0.81112210  0.81507895  0.31444621  1
  Zn  Zn122  1  0.81259504  0.81166719  0.81224796  1
  Zn  Zn123  1  0.18436937  0.43940626  0.43312505  1
  Zn  Zn124  1  0.21399270  0.38414495  0.91560502  1
  Zn  Zn125  1  0.18581005  0.94331318  0.43493191  1
  Zn  Zn126  1  0.19069754  0.94008563  0.93843601  1
  Zn  Zn127  1  0.68464301  0.43837949  0.43573509  1
  Zn  Zn128  1  0.68766707  0.43581091  0.93244967  1
  Zn  Zn129  1  0.68856582  0.93685416  0.44314864  1
  Zn  Zn130  1  0.67850304  0.93554278  0.94111755  1
  Zn  Zn131  1  0.31357416  0.06391812  0.06163893  1
  Zn  Zn132  1  0.31383614  0.06059952  0.56306968  1
  Zn  Zn133  1  0.31411662  0.55975081  0.06286035  1
  Zn  Zn134  1  0.31557269  0.56052041  0.56078638  1
  Zn  Zn135  1  0.81340929  0.06081924  0.06518151  1
  Zn  Zn136  1  0.80589158  0.06248738  0.57215754  1
  Zn  Zn137  1  0.81225750  0.56198656  0.06130777  1
  Zn  Zn138  1  0.81564417  0.56587782  0.55866928  1
  Zn  Zn139  1  0.43769659  0.44365887  0.18568449  1
  Zn  Zn140  1  0.43886379  0.43211294  0.68793877  1
  Zn  Zn141  1  0.43741242  0.94225710  0.18887515  1
  Zn  Zn142  1  0.42365926  0.93712664  0.68324721  1
  Zn  Zn143  1  0.93748451  0.43958844  0.18492153  1
  Zn  Zn144  1  0.93945391  0.43661223  0.68645120  1
  Zn  Zn145  1  0.93362399  0.93947260  0.18964350  1
  Zn  Zn146  1  0.93760807  0.94055611  0.69043575  1
  Zn  Zn147  1  0.06507385  0.06385770  0.31503077  1
  Zn  Zn148  1  0.05670318  0.05923837  0.80926015  1
  Zn  Zn149  1  0.06373433  0.56384406  0.31423196  1
  Zn  Zn150  1  0.06501831  0.55840784  0.81067713  1
  Zn  Zn151  1  0.56013955  0.06141293  0.31754380  1
  Zn  Zn152  1  0.55768847  0.07676216  0.82073903  1
  Zn  Zn153  1  0.56215943  0.56292056  0.31037180  1
  Zn  Zn154  1  0.56159031  0.55993713  0.80773269  1
  Zn  Zn155  1  0.43717603  0.18398555  0.43547718  1
  Zn  Zn156  1  0.44514414  0.18825617  0.93599772  1
  Zn  Zn157  1  0.43565337  0.68686692  0.43675321  1
  Zn  Zn158  1  0.43548338  0.68109196  0.93213170  1
  Zn  Zn159  1  0.93671872  0.18886523  0.44007615  1
  Zn  Zn160  1  0.93925367  0.18386236  0.93691782  1
  Zn  Zn161  1  0.93863385  0.69071945  0.44138014  1
  Zn  Zn162  1  0.93354091  0.69161904  0.93683795  1
  Zn  Zn163  1  0.06230540  0.31178800  0.06933018  1
  Zn  Zn164  1  0.05986099  0.31050415  0.56730422  1
  Zn  Zn165  1  0.06344183  0.81409607  0.05940961  1
  Zn  Zn166  1  0.06341202  0.82032168  0.56641535  1
  Zn  Zn167  1  0.56211133  0.31448707  0.06067417  1
  Zn  Zn168  1  0.56174805  0.31388228  0.56116727  1
  Zn  Zn169  1  0.56268155  0.81243621  0.06239687  1
  Zn  Zn170  1  0.55850618  0.81196398  0.56108629  1
  O  O171  1  0.12097843  0.11485823  0.11781716  1
  O  O172  1  0.11253149  0.11292711  0.62687653  1
  O  O173  1  0.11786099  0.62537348  0.11872865  1
  O  O174  1  0.11821472  0.61980817  0.62427612  1
  O  O175  1  0.61239268  0.13178744  0.12078467  1
  O  O176  1  0.62721829  0.11380499  0.61807254  1
  O  O177  1  0.64704698  0.60422902  0.12505996  1
  O  O178  1  0.61378923  0.62154452  0.62065722  1
  O  O179  1  0.37770941  0.38774308  0.36775162  1
  O  O180  1  0.38072302  0.38575248  0.88787036  1
  O  O181  1  0.38093087  0.87838986  0.37751274  1
  O  O182  1  0.40450927  0.88500213  0.86896136  1
  O  O183  1  0.87106125  0.38759652  0.37657043  1
  O  O184  1  0.88287342  0.38105847  0.88086960  1
  O  O185  1  0.88120643  0.87618789  0.38664064  1
  O  O186  1  0.88224091  0.88093215  0.87543859  1
  O  O187  1  0.25219119  0.01356474  0.37076040  1
  O  O188  1  0.27245959  -0.00598600  0.88196515  1
  O  O189  1  0.25614176  0.50549849  0.36503767  1
  O  O190  1  0.25679265  0.49313857  0.86765754  1
  O  O191  1  0.75176540  0.00826114  0.37192668  1
  O  O192  1  0.75974779  -0.00981202  0.88149742  1
  O  O193  1  0.75735159  0.50674917  0.37128074  1
  O  O194  1  0.75707903  0.50712724  0.86781550  1
  O  O195  1  0.24707868  0.50072268  0.13788667  1
  O  O196  1  0.24855338  0.49355265  0.63020700  1
  O  O197  1  0.24134997  0.99101536  0.12402543  1
  O  O198  1  0.23500332  1.00769314  0.62577799  1
  O  O199  1  0.75038977  0.48775495  0.12921091  1
  O  O200  1  0.75132604  0.50693682  0.63498000  1
  O  O201  1  0.75310737  0.99206538  0.13663372  1
  O  O202  1  0.73862213  0.98702012  0.63020781  1
  O  O203  1  0.01477869  0.38072175  0.24694730  1
  O  O204  1  0.00739604  0.37420025  0.75697326  1
  O  O205  1  0.00279008  0.86998028  0.25710673  1
  O  O206  1  0.00423655  0.87550164  0.76204187  1
  O  O207  1  0.50244035  0.36997951  0.25420704  1
  O  O208  1  0.51342524  0.37084453  0.75109094  1
  O  O209  1  0.51152898  0.88488150  0.25750039  1
  O  O210  1  0.49106208  0.85352848  0.73901036  1
  O  O211  1  0.49485705  0.13223023  0.24616539  1
  O  O212  1  0.50502520  0.14368329  0.74280699  1
  O  O213  1  0.48370736  0.62080504  0.25070733  1
  O  O214  1  0.49637915  0.62836867  0.73774990  1
  O  O215  1  0.98447360  0.11955084  0.25321120  1
  O  O216  1  0.98939824  0.12451444  0.74130987  1
  O  O217  1  0.99480993  0.63167751  0.24525950  1
  O  O218  1  0.99627393  0.62464377  0.73864900  1
  O  O219  1  0.38956814  0.26503626  0.00148944  1
  O  O220  1  0.38871253  0.25552118  0.51028319  1
  O  O221  1  0.36658149  0.75230870  -0.00656619  1
  O  O222  1  0.37851835  0.75481856  0.51203576  1
  O  O223  1  0.87518134  0.26142093  -0.00073267  1
  O  O224  1  0.86571168  0.25197293  0.50749782  1
  O  O225  1  0.86367710  0.75434984  0.00707324  1
  O  O226  1  0.87374797  0.75723489  0.51404448  1
  O  O227  1  0.12233009  0.25545344  0.48697367  1
  O  O228  1  0.11892889  0.23373032  1.00550197  1
  O  O229  1  0.11976461  0.75117704  0.48956291  1
  O  O230  1  0.13324683  0.74625231  0.99203438  1
  O  O231  1  0.62934287  0.23994265  0.49838682  1
  O  O232  1  0.62467222  0.24551576  0.99087109  1
  O  O233  1  0.62559491  0.74909571  0.48749264  1
  O  O234  1  0.63848391  0.75317814  0.99235745  1
  O  O235  1  0.50392097  0.24743620  0.13874921  1
  O  O236  1  0.49305243  0.25598738  0.63117534  1
  O  O237  1  0.54265383  0.73461096  0.13735203  1
  O  O238  1  0.49372996  0.74038975  0.62986658  1
  O  O239  1  0.99573557  0.24733818  0.13521256  1
  O  O240  1  0.99244851  0.23663249  0.62657498  1
  O  O241  1  0.99285271  0.74703891  0.12868387  1
  O  O242  1  0.99426192  0.74384718  0.62674677  1
  O  O243  1  0.01430503  0.24386438  0.37349273  1
  O  O244  1  -0.00209953  0.26230931  0.87369244  1
  O  O245  1  0.00560526  0.75889642  0.37083195  1
  O  O246  1  0.00758394  0.75996409  0.87575981  1
  O  O247  1  0.50451485  0.25345800  0.36538916  1
  O  O248  1  0.50992125  0.25253225  0.85997390  1
  O  O249  1  0.50564947  0.76216548  0.37726552  1
  O  O250  1  0.49732666  0.73770431  0.85388358  1
  O  O251  1  0.25316317  0.12470079  0.48556646  1
  O  O252  1  0.23396402  0.12368991  1.00469034  1
  O  O253  1  0.25042594  0.61782946  0.48366935  1
  O  O254  1  0.24557819  0.63036030  0.99606938  1
  O  O255  1  0.74150245  0.12872889  0.49602891  1
  O  O256  1  0.73538780  0.12659073  1.01143920  1
  O  O257  1  0.74792038  0.62652431  0.48702650  1
  O  O258  1  0.75846537  0.63244069  0.98791392  1
  O  O259  1  0.26121114  0.38466781  0.02073383  1
  O  O260  1  0.24889167  0.38470167  0.51138065  1
  O  O261  1  0.25567150  0.86658747  0.00577766  1
  O  O262  1  0.26210206  0.87545114  0.48844673  1
  O  O263  1  0.76019801  0.37593921  0.00568349  1
  O  O264  1  0.74760833  0.36195153  0.49676414  1
  O  O265  1  0.74838270  0.86993585  0.00935294  1
  O  O266  1  0.75834446  0.87269150  0.51093991  1
  O  O267  1  0.13403879  0.49387918  0.25280809  1
  O  O268  1  0.13172950  0.49171100  0.74074490  1
  O  O269  1  0.12320208  0.99497624  0.23779630  1
  O  O270  1  0.12629659  0.98883899  0.74678429  1
  O  O271  1  0.63108081  0.49284371  0.24434886  1
  O  O272  1  0.63436228  0.49228775  0.74638374  1
  O  O273  1  0.63713245  0.99513703  0.25868994  1
  O  O274  1  0.57285154  0.98008241  0.76475931  1
  O  O275  1  0.37307386  0.01136197  0.25776052  1
  O  O276  1  0.38293424  0.00575901  0.76265125  1
  O  O277  1  0.36761281  0.50782160  0.25665416  1
  O  O278  1  0.36856848  0.49667044  0.75766401  1
  O  O279  1  0.86285247  0.00673073  0.25648938  1
  O  O280  1  0.87541435  0.01059491  0.75920055  1
  O  O281  1  0.87172075  0.50527206  0.25763433  1
  O  O282  1  0.86966536  0.50446152  0.75292518  1
  O  O283  1  0.13346551  0.36091386  0.36652738  1
  O  O284  1  0.11319441  0.38758019  0.86069749  1
  O  O285  1  0.11830098  0.87056198  0.37013420  1
  O  O286  1  0.12074192  0.87499250  0.86650684  1
  O  O287  1  0.61860735  0.36833098  0.36731062  1
  O  O288  1  0.62322457  0.36803525  0.86421570  1
  O  O289  1  0.61698005  0.87194262  0.37260394  1
  O  O290  1  0.60091046  0.87073051  0.88018140  1
  O  O291  1  0.38457242  0.12322825  0.13653808  1
  O  O292  1  0.37331087  0.14197718  0.61733007  1
  O  O293  1  0.37349034  0.62407651  0.14000192  1
  O  O294  1  0.38394716  0.63185729  0.62302177  1
  O  O295  1  0.87446440  0.12735131  0.13689764  1
  O  O296  1  0.88123688  0.12702508  0.63511421  1
  O  O297  1  0.87895420  0.63043141  0.13159839  1
  O  O298  1  0.88114581  0.63378710  0.62922196  1
  O  O299  1  0.25006183  0.26187167  0.13046134  1
  O  O300  1  0.26532027  0.26340908  0.61891231  1
  O  O301  1  0.24322134  0.75942618  0.11347235  1
  O  O302  1  0.26281245  0.73720564  0.62562315  1
  O  O303  1  0.75194696  0.26279766  0.12266368  1
  O  O304  1  0.75960948  0.24172778  0.61612888  1
  O  O305  1  0.74949668  0.75610386  0.11813823  1
  O  O306  1  0.75666092  0.75668724  0.62414454  1
  O  O307  1  0.24061513  0.23930148  0.37335388  1
  O  O308  1  0.24516526  0.27960981  0.88447014  1
  O  O309  1  0.23902268  0.74224236  0.37019539  1
  O  O310  1  0.24835546  0.74425857  0.88132116  1
  O  O311  1  0.74330528  0.24161198  0.38449034  1
  O  O312  1  0.73820378  0.25494909  0.87609134  1
  O  O313  1  0.74546486  0.74312831  0.37917502  1
  O  O314  1  0.74876714  0.74208331  0.88013011  1
  O  O315  1  0.00234517  0.11228459  0.00449981  1
  O  O316  1  -0.01024676  0.12142081  0.51751170  1
  O  O317  1  0.00157849  0.62018897  0.00313474  1
  O  O318  1  -0.00032212  0.61857829  0.51257719  1
  O  O319  1  0.50716663  0.12170796  0.01115672  1
  O  O320  1  0.51014977  0.11289636  0.49112949  1
  O  O321  1  0.49535840  0.61258662  0.00203535  1
  O  O322  1  0.50160658  0.61746514  0.50394634  1
  O  O323  1  0.50587762  0.38333417  0.48812002  1
  O  O324  1  0.49316322  0.38762969  1.00223182  1
  O  O325  1  0.49119161  0.87998535  0.49137900  1
  O  O326  1  0.49795638  0.89195492  1.01513297  1
  O  O327  1  0.99777990  0.38899106  0.50584947  1
  O  O328  1  0.99755767  0.38211593  0.99406744  1
  O  O329  1  0.98835203  0.87022353  0.49350916  1
  O  O330  1  0.99987054  0.88480999  0.98945747  1
  O  O331  1  0.49276750  0.49473304  0.37813756  1
  O  O332  1  0.49401554  0.49980458  0.88106617  1
  O  O333  1  0.49190458  0.98978561  0.38157585  1
  O  O334  1  0.49074970  1.00705843  0.89196007  1
  O  O335  1  0.99035834  0.50908823  0.38510524  1
  O  O336  1  0.99343753  0.49563935  0.88108650  1
  O  O337  1  0.99982899  0.98669829  0.37277056  1
  O  O338  1  0.99079591  0.99301560  0.88233160  1
  O  O339  1  0.00527364  -0.00300721  0.11659560  1
  O  O340  1  0.00772049  0.00896801  0.63004205  1
  O  O341  1  0.00126154  0.50833555  0.11572120  1
  O  O342  1  0.00516178  0.50747974  0.61876458  1
  O  O343  1  0.49853804  0.01213862  0.11805055  1
  O  O344  1  0.49852903  -0.00879658  0.61090191  1
  O  O345  1  0.51108672  0.50648091  0.11884813  1
  O  O346  1  0.49849450  0.50501840  0.61541472  1
  O  O347  1  0.24523675  0.38246485  0.24104614  1
  O  O348  1  0.24245187  0.38380934  0.73836378  1
  O  O349  1  0.24141789  0.87735787  0.24195174  1
  O  O350  1  0.24220222  0.87278614  0.75654021  1
  O  O351  1  0.74629489  0.38026074  0.24291401  1
  O  O352  1  0.74421382  0.38665462  0.75483629  1
  O  O353  1  0.74399161  0.88474107  0.24724158  1
  O  O354  1  0.74886429  0.87024298  0.73645972  1
  O  O355  1  0.25664482  0.12500547  0.25307835  1
  O  O356  1  0.24964735  0.16121212  0.76317133  1
  O  O357  1  0.25596123  0.61954905  0.25817421  1
  O  O358  1  0.24823244  0.60840889  0.75748288  1
  O  O359  1  0.75492599  0.12048673  0.25827075  1
  O  O360  1  0.76537405  0.12425184  0.74590785  1
  O  O361  1  0.75726016  0.61854211  0.26250787  1
  O  O362  1  0.75627383  0.61860281  0.75596426  1
  O  O363  1  0.36318402  0.12375038  0.36687001  1
  O  O364  1  0.37650274  0.11992225  0.87717595  1
  O  O365  1  0.36913267  0.61801984  0.36619941  1
  O  O366  1  0.36512541  0.60926035  0.87275988  1
  O  O367  1  0.86313008  0.12479444  0.37265127  1
  O  O368  1  0.87716138  0.11724794  0.86400106  1
  O  O369  1  0.86945857  0.62087650  0.37285828  1
  O  O370  1  0.87052121  0.62073025  0.86664139  1
  O  O371  1  0.13748328  0.37767544  0.13251731  1
  O  O372  1  0.13371368  0.37879378  0.62921791  1
  O  O373  1  0.13069993  0.88108386  0.12810119  1
  O  O374  1  0.12253016  0.88568122  0.64094037  1
  O  O375  1  0.63346092  0.38154218  0.12930749  1
  O  O376  1  0.62705541  0.37653966  0.63516726  1
  O  O377  1  0.63693324  0.87642347  0.13666481  1
  O  O378  1  0.63501715  0.87469653  0.62197084  1
  O  O379  1  0.12214329  0.25853672  0.25835785  1
  O  O380  1  0.12033148  0.26141567  0.74431135  1
  O  O381  1  0.11823268  0.75625350  0.25812423  1
  O  O382  1  0.12476456  0.76239804  0.75657549  1
  O  O383  1  0.61877987  0.25541726  0.25627776  1
  O  O384  1  0.62063901  0.25587900  0.75202407  1
  O  O385  1  0.63696687  0.76845857  0.26839930  1
  O  O386  1  0.60911180  0.74513740  0.74888608  1
  O  O387  1  0.38336647  0.24240418  0.25643775  1
  O  O388  1  0.39544960  0.26403341  0.73284169  1
  O  O389  1  0.37166994  0.73627597  0.25449301  1
  O  O390  1  0.38039495  0.74285089  0.73678156  1
  O  O391  1  0.87520891  0.24061755  0.25280085  1
  O  O392  1  0.87631814  0.23896385  0.74520601  1
  O  O393  1  0.87908281  0.74617989  0.24569660  1
  O  O394  1  0.87923104  0.74545042  0.73980267  1
  O  O395  1  0.38753974  0.50459943  0.48804691  1
  O  O396  1  0.38260132  0.49452203  0.99545732  1
  O  O397  1  0.37983868  0.99201751  0.49453057  1
  O  O398  1  0.38798181  1.00151325  0.99800735  1
  O  O399  1  0.88133571  0.49710409  0.49303886  1
  O  O400  1  0.88461894  0.49039253  0.99622099  1
  O  O401  1  0.86921104  0.99022212  0.50364931  1
  O  O402  1  0.88135566  0.99838231  0.99369267  1
  O  O403  1  0.11798758  0.00199090  0.00901973  1
  O  O404  1  0.12248845  -0.01169542  0.51806602  1
  O  O405  1  0.11147145  0.50802689  0.00073654  1
  O  O406  1  0.11765125  0.50485815  0.50355435  1
  O  O407  1  0.60975674  0.01016778  -0.00311267  1
  O  O408  1  0.61462708  0.00710005  0.49646709  1
  O  O409  1  0.61704026  0.49174546  0.00652334  1
  O  O410  1  0.61316053  0.50300290  0.49842867  1
  O  O411  1  0.36356253  0.37943580  0.12371258  1
  O  O412  1  0.36442861  0.37473816  0.62104630  1
  O  O413  1  0.36358862  0.87874045  0.12641094  1
  O  O414  1  0.37119741  0.85864304  0.61621602  1
  O  O415  1  0.86889863  0.37507218  0.11627848  1
  O  O416  1  0.87960410  0.35791411  0.62702886  1
  O  O417  1  0.86212867  0.86878548  0.12664042  1
  O  O418  1  0.86779283  0.87158603  0.62337853  1
  O  O419  1  0.13656542  0.13594214  0.37110700  1
  O  O420  1  0.11418284  0.11813540  0.89361694  1
  O  O421  1  0.13226082  0.63579762  0.37608039  1
  O  O422  1  0.12943524  0.63018907  0.87977441  1
  O  O423  1  0.63429583  0.12952248  0.38054816  1
  O  O424  1  0.62393560  0.13688237  0.88770227  1
  O  O425  1  0.63215039  0.63422191  0.37108882  1
  O  O426  1  0.63733986  0.62446835  0.86978820  1
