# generated using pymatgen
data_V85Zn86O256
_symmetry_space_group_name_H-M   'P 1'
_cell_length_a   16.97095615
_cell_length_b   16.99475526
_cell_length_c   16.97999976
_cell_angle_alpha   89.91295658
_cell_angle_beta   89.97878614
_cell_angle_gamma   89.80363734
_symmetry_Int_Tables_number   1
_chemical_formula_structural   V85Zn86O256
_chemical_formula_sum   'V85 Zn86 O256'
_cell_volume   4897.29003508
_cell_formula_units_Z   1
loop_
 _symmetry_equiv_pos_site_id
 _symmetry_equiv_pos_as_xyz
  1  'x, y, z'
loop_
 _atom_site_type_symbol
 _atom_site_label
 _atom_site_symmetry_multiplicity
 _atom_site_fract_x
 _atom_site_fract_y
 _atom_site_fract_z
 _atom_site_occupancy
  V  V0  1  0.13436166  0.62609830  -0.01047176  1
  V  V1  1  0.74545767  0.50054965  0.74114424  1
  V  V2  1  0.50160394  0.49471369  -0.01235389  1
  V  V3  1  0.74972322  0.37311362  0.12555309  1
  V  V4  1  0.00163932  0.87488165  0.37004963  1
  V  V5  1  0.36545231  0.26327457  0.61556396  1
  V  V6  1  0.18245104  0.43845626  0.68427740  1
  V  V7  1  0.62577781  0.37529751  0.25264198  1
  V  V8  1  0.36010661  0.75262004  0.12554946  1
  V  V9  1  0.74413714  0.62641043  0.87385671  1
  V  V10  1  0.62215462  0.87023914  0.76300829  1
  V  V11  1  0.87556104  0.25390684  0.62654491  1
  V  V12  1  0.01726300  0.37215703  0.87516577  1
  V  V13  1  -0.00201762  0.50216113  0.51175007  1
  V  V14  1  0.00097098  0.50114768  -0.00467196  1
  V  V15  1  0.75089590  0.12740582  0.87234234  1
  V  V16  1  0.37132668  0.12962223  0.75343527  1
  V  V17  1  0.74912704  0.24967732  -0.00061212  1
  V  V18  1  0.87709263  0.12339013  0.24344960  1
  V  V19  1  0.35969383  0.49694913  0.87386852  1
  V  V20  1  0.01359613  0.11969444  0.12053890  1
  V  V21  1  0.36618925  0.62376795  0.75565184  1
  V  V22  1  0.49416017  0.24496572  0.24027002  1
  V  V23  1  0.74323924  0.75048392  -0.00173406  1
  V  V24  1  0.12501470  0.62215412  0.50749010  1
  V  V25  1  0.74637993  0.75088617  0.49835980  1
  V  V26  1  0.87099956  0.87753966  0.49757545  1
  V  V27  1  0.24297605  -0.01048911  0.24117894  1
  V  V28  1  0.87907230  0.38131888  0.50183708  1
  V  V29  1  0.87150823  0.49618344  0.87181046  1
  V  V30  1  0.37425205  0.62182680  0.25750681  1
  V  V31  1  0.13046105  0.48847762  0.12582596  1
  V  V32  1  0.37646995  0.87546689  0.49866966  1
  V  V33  1  0.49796048  0.62635732  0.12382571  1
  V  V34  1  0.62331131  0.50112964  0.12415771  1
  V  V35  1  0.37868104  -0.00442632  0.87550886  1
  V  V36  1  0.24827647  0.00135427  0.75221843  1
  V  V37  1  0.49927146  0.87562085  0.37551193  1
  V  V38  1  0.12552086  -0.02828358  0.12386083  1
  V  V39  1  0.87702101  0.74915029  0.62645361  1
  V  V40  1  0.27373799  0.37199463  0.12339353  1
  V  V41  1  0.74416093  0.87535267  0.62376486  1
  V  V42  1  0.74911263  0.88204825  0.12333049  1
  V  V43  1  0.75301436  0.62192703  0.37492704  1
  V  V44  1  0.25331746  0.24011173  -0.00430798  1
  V  V45  1  0.62112371  0.88313635  0.24334629  1
  V  V46  1  0.38053617  0.87365808  -0.00129102  1
  V  V47  1  0.24901621  0.50032285  0.25848914  1
  V  V48  1  0.62214036  0.12734235  0.50288681  1
  V  V49  1  0.88302073  0.87374453  -0.01092967  1
  V  V50  1  -0.00029007  -0.00095031  0.49762219  1
  V  V51  1  0.50050263  0.49305101  0.48909861  1
  V  V52  1  0.87536311  0.12689464  0.74861950  1
  V  V53  1  0.49564836  0.12877151  0.62827937  1
  V  V54  1  0.75110388  0.25230873  0.50174817  1
  V  V55  1  0.25339765  0.87607132  0.62791643  1
  V  V56  1  0.50739280  0.61712947  0.62725483  1
  V  V57  1  0.61908905  0.37958010  0.74325041  1
  V  V58  1  0.87155573  0.00049493  0.37087488  1
  V  V59  1  0.00464176  0.62652193  0.12338679  1
  V  V60  1  0.49359078  0.25755435  0.75464859  1
  V  V61  1  0.24644646  0.75489812  -0.01693320  1
  V  V62  1  0.12838697  0.75365979  0.37391866  1
  V  V63  1  0.00382573  0.75430129  0.24908008  1
  V  V64  1  0.62406926  0.75131296  0.37420792  1
  V  V65  1  0.49797389  0.75036377  0.24770445  1
  V  V66  1  0.24783382  0.74876328  0.50218150  1
  V  V67  1  0.87382758  0.37322282  -0.00531901  1
  V  V68  1  0.61964171  0.00062063  0.62867202  1
  V  V69  1  0.13069900  0.12881618  0.48612608  1
  V  V70  1  0.61870864  0.25612676  0.87440636  1
  V  V71  1  0.36545289  0.00686271  0.37047649  1
  V  V72  1  0.12407006  0.00172385  0.62434592  1
  V  V73  1  0.74809081  0.49967567  0.25290299  1
  V  V74  1  0.00760575  -0.00053241  -0.01162405  1
  V  V75  1  0.87624066  0.62791714  0.25179628  1
  V  V76  1  0.01191268  0.25204446  0.75591808  1
  V  V77  1  0.62238930  0.25537735  0.37615337  1
  V  V78  1  0.92853402  0.45076074  0.32840030  1
  V  V79  1  0.74903875  0.12465758  0.37323717  1
  V  V80  1  0.74893113  0.00001699  0.74769552  1
  V  V81  1  0.62364852  0.62804353  -0.00045580  1
  V  V82  1  0.88528145  0.24276880  0.11885253  1
  V  V83  1  0.50361537  0.75021927  0.76101972  1
  V  V84  1  0.87813227  0.75159743  0.12409234  1
  Zn  Zn85  1  0.50504328  0.10359448  0.12644641  1
  Zn  Zn86  1  0.62429599  0.11511527  0.01036776  1
  Zn  Zn87  1  0.37866806  0.74809856  0.62674308  1
  Zn  Zn88  1  0.25541102  0.62278884  0.38106253  1
  Zn  Zn89  1  0.49607231  0.00387142  0.50013583  1
  Zn  Zn90  1  0.62703045  0.61855737  0.50499614  1
  Zn  Zn91  1  0.38626098  0.36506510  -0.00904538  1
  Zn  Zn92  1  0.74128429  0.00741948  0.23717483  1
  Zn  Zn93  1  0.23549453  0.12926686  0.87647720  1
  Zn  Zn94  1  0.06160074  0.30231483  0.31918367  1
  Zn  Zn95  1  0.24541304  0.25521416  0.48296378  1
  Zn  Zn96  1  0.35706077  0.14023895  0.24446981  1
  Zn  Zn97  1  0.11652178  0.87211652  0.77357557  1
  Zn  Zn98  1  0.00203507  0.62542721  0.63314547  1
  Zn  Zn99  1  0.00066042  0.12752416  0.62328311  1
  Zn  Zn100  1  0.87933314  -0.00296357  0.86920711  1
  Zn  Zn101  1  0.87567307  0.62630846  0.74941766  1
  Zn  Zn102  1  0.50700632  -0.00607247  0.00315373  1
  Zn  Zn103  1  0.74433068  0.38093073  0.62183398  1
  Zn  Zn104  1  0.33914758  0.40916277  0.48854491  1
  Zn  Zn105  1  0.00543157  0.74990212  0.77317098  1
  Zn  Zn106  1  0.46822139  0.37073254  0.36889728  1
  Zn  Zn107  1  0.18981665  0.18198446  0.30431157  1
  Zn  Zn108  1  0.18831657  0.18588636  0.68091101  1
  Zn  Zn109  1  0.18475011  0.68547751  0.18643981  1
  Zn  Zn110  1  0.18876937  0.68552301  0.68892725  1
  Zn  Zn111  1  0.68331658  0.18771294  0.18564685  1
  Zn  Zn112  1  0.68440562  0.19173053  0.68872034  1
  Zn  Zn113  1  0.68730160  0.69176362  0.18652891  1
  Zn  Zn114  1  0.68665997  0.68806195  0.68808915  1
  Zn  Zn115  1  0.26464085  0.33568817  0.33299801  1
  Zn  Zn116  1  0.30282052  0.31825843  0.81276124  1
  Zn  Zn117  1  0.31123005  0.81402906  0.31218028  1
  Zn  Zn118  1  0.31413878  0.81318206  0.81106857  1
  Zn  Zn119  1  0.85486062  0.28568802  0.33066179  1
  Zn  Zn120  1  0.81045491  0.31385052  0.80893630  1
  Zn  Zn121  1  0.80996868  0.81442885  0.30951655  1
  Zn  Zn122  1  0.81006664  0.81005856  0.81175239  1
  Zn  Zn123  1  0.16914659  0.42889860  0.44253781  1
  Zn  Zn124  1  0.19205843  0.43636337  0.94565742  1
  Zn  Zn125  1  0.18669374  0.93524745  0.43881570  1
  Zn  Zn126  1  0.19655257  0.94323599  0.94270060  1
  Zn  Zn127  1  0.68525014  0.43968405  0.44159093  1
  Zn  Zn128  1  0.68408608  0.43679623  0.93296247  1
  Zn  Zn129  1  0.68135932  0.94106217  0.43740373  1
  Zn  Zn130  1  0.69498266  0.93604915  0.93630574  1
  Zn  Zn131  1  0.31682801  0.06262861  0.06991072  1
  Zn  Zn132  1  0.31217645  0.06504873  0.56208151  1
  Zn  Zn133  1  0.31426119  0.56358500  0.06133277  1
  Zn  Zn134  1  0.31444643  0.56402859  0.57279725  1
  Zn  Zn135  1  0.81489481  0.06096260  0.05346166  1
  Zn  Zn136  1  0.81086364  0.06479501  0.56315562  1
  Zn  Zn137  1  0.81255258  0.56270152  0.06323094  1
  Zn  Zn138  1  0.81443798  0.56423400  0.56127369  1
  Zn  Zn139  1  0.44117348  0.44134813  0.19232442  1
  Zn  Zn140  1  0.43177896  0.44065776  0.68814547  1
  Zn  Zn141  1  0.43283042  0.94249558  0.18179312  1
  Zn  Zn142  1  0.43843684  0.93804401  0.69214820  1
  Zn  Zn143  1  0.95090677  0.42459764  0.16087492  1
  Zn  Zn144  1  0.94078695  0.43500415  0.69153799  1
  Zn  Zn145  1  0.93669008  0.93894375  0.18337635  1
  Zn  Zn146  1  0.93576389  0.93670399  0.68527794  1
  Zn  Zn147  1  0.06088763  0.05789544  0.30342882  1
  Zn  Zn148  1  0.06363155  0.06519312  0.81005512  1
  Zn  Zn149  1  0.07213455  0.57108296  0.31211338  1
  Zn  Zn150  1  0.06125589  0.56256197  0.80768609  1
  Zn  Zn151  1  0.55906103  0.06293951  0.31586270  1
  Zn  Zn152  1  0.58092558  0.04563666  0.84533962  1
  Zn  Zn153  1  0.56329788  0.56521169  0.31532537  1
  Zn  Zn154  1  0.56357830  0.56515136  0.81153616  1
  Zn  Zn155  1  0.43318146  0.19058055  0.43225949  1
  Zn  Zn156  1  0.43525913  0.18204793  0.94390421  1
  Zn  Zn157  1  0.43888579  0.68643460  0.44205612  1
  Zn  Zn158  1  0.43443639  0.68510149  0.93721692  1
  Zn  Zn159  1  0.94545586  0.18638349  0.43765043  1
  Zn  Zn160  1  1.06950784  0.19548766  0.94861265  1
  Zn  Zn161  1  0.93753586  0.68784296  0.44098301  1
  Zn  Zn162  1  0.93111540  0.68074721  0.93873923  1
  Zn  Zn163  1  0.13050433  0.25925465  0.13347691  1
  Zn  Zn164  1  0.06292007  0.31347376  0.56219468  1
  Zn  Zn165  1  0.06366933  0.81264775  -0.05594227  1
  Zn  Zn166  1  0.06704661  0.80990552  0.62891657  1
  Zn  Zn167  1  0.56358705  0.31149406  0.06210915  1
  Zn  Zn168  1  0.55618810  0.31499257  0.56394864  1
  Zn  Zn169  1  0.55768410  0.81795103  0.06470345  1
  Zn  Zn170  1  0.55971727  0.80838190  0.56901663  1
  O  O171  1  0.11072694  0.12371001  0.12572650  1
  O  O172  1  0.12208003  0.11222535  0.61531040  1
  O  O173  1  0.11770498  0.62105920  0.11461049  1
  O  O174  1  0.12160076  0.63164427  0.61053910  1
  O  O175  1  0.62140180  0.12313334  0.12305818  1
  O  O176  1  0.61502143  0.12305355  0.62355685  1
  O  O177  1  0.62005450  0.62089591  0.12034220  1
  O  O178  1  0.61186761  0.62866551  0.62423092  1
  O  O179  1  0.35902014  0.38297550  0.37926383  1
  O  O180  1  0.37200314  0.39250273  0.87307884  1
  O  O181  1  0.38098858  0.87892086  0.38379073  1
  O  O182  1  0.36644588  0.88433677  0.88283893  1
  O  O183  1  0.86265217  0.39094142  0.38158173  1
  O  O184  1  0.87003535  0.38548987  0.87848966  1
  O  O185  1  0.87628675  0.88201701  0.37887639  1
  O  O186  1  0.86424906  0.87842442  0.88655035  1
  O  O187  1  0.26279318  -0.00539521  0.37595043  1
  O  O188  1  0.25691490  0.00555111  0.86274187  1
  O  O189  1  0.23837535  0.50713000  0.36006291  1
  O  O190  1  0.26202284  0.50463420  0.88217583  1
  O  O191  1  0.75128569  0.01391989  0.37773165  1
  O  O192  1  0.75555085  0.01100735  0.86448227  1
  O  O193  1  0.74054655  0.51392968  0.36872795  1
  O  O194  1  0.75391421  0.50514950  0.86744688  1
  O  O195  1  0.24604945  0.49339065  0.12473814  1
  O  O196  1  0.24300389  0.49726396  0.62581185  1
  O  O197  1  0.23526193  0.99306941  0.12939369  1
  O  O198  1  0.24625963  0.99731518  0.63387751  1
  O  O199  1  0.74477142  0.49449585  0.13163211  1
  O  O200  1  0.75132715  0.50326156  0.63782198  1
  O  O201  1  0.75269469  0.98561382  0.11865481  1
  O  O202  1  0.74082055  0.99637968  0.62921520  1
  O  O203  1  -0.01477666  0.39330442  0.26554604  1
  O  O204  1  -0.00903435  0.36381169  0.76528269  1
  O  O205  1  -0.00932061  0.87108513  0.26296903  1
  O  O206  1  0.00926656  0.86337087  0.72335257  1
  O  O207  1  0.51152369  0.37048406  0.25483689  1
  O  O208  1  0.50318143  0.36562804  0.74592698  1
  O  O209  1  0.50586098  0.86754930  0.25506342  1
  O  O210  1  0.50585390  0.85926139  0.74552845  1
  O  O211  1  0.50776860  0.14073067  0.25224408  1
  O  O212  1  0.49098581  0.13843030  0.73881287  1
  O  O213  1  0.49340432  0.63016686  0.24478216  1
  O  O214  1  0.49952213  0.63297847  0.74289547  1
  O  O215  1  0.98569145  0.11279110  0.23352896  1
  O  O216  1  0.98906914  0.13140222  0.74627520  1
  O  O217  1  0.99395953  0.63230954  0.24473576  1
  O  O218  1  0.99358949  0.63313294  0.74899996  1
  O  O219  1  0.36297158  0.25287439  -0.00088104  1
  O  O220  1  0.37473523  0.24539232  0.51344224  1
  O  O221  1  0.36418163  0.75012277  0.00473785  1
  O  O222  1  0.36545479  0.75710261  0.50091414  1
  O  O223  1  0.85883227  0.25506379  0.00477189  1
  O  O224  1  0.87080351  0.25812759  0.50878632  1
  O  O225  1  0.86452742  0.75514899  0.00881559  1
  O  O226  1  0.85925566  0.75691181  0.49949512  1
  O  O227  1  0.11793466  0.23079326  0.50253996  1
  O  O228  1  0.14616790  0.25251311  1.01695172  1
  O  O229  1  0.13983633  0.74671890  0.49680109  1
  O  O230  1  0.13906304  0.73915802  1.00096977  1
  O  O231  1  0.62928051  0.24847392  0.49439555  1
  O  O232  1  0.63479024  0.25240805  0.99010010  1
  O  O233  1  0.63432154  0.75109348  0.49472120  1
  O  O234  1  0.63768689  0.74726958  1.00817463  1
  O  O235  1  0.50627703  0.25292836  0.13993182  1
  O  O236  1  0.48852895  0.24562138  0.63147800  1
  O  O237  1  0.49244719  0.74307212  0.13062505  1
  O  O238  1  0.49600528  0.73707111  0.63218356  1
  O  O239  1  0.98755263  0.23445325  0.11648215  1
  O  O240  1  0.98660962  0.24976658  0.63063435  1
  O  O241  1  0.98598543  0.74451382  0.13040979  1
  O  O242  1  0.97840817  0.74603141  0.60034895  1
  O  O243  1  -0.03513220  0.26547201  0.36535026  1
  O  O244  1  0.00507946  0.26174604  0.87136877  1
  O  O245  1  0.00503598  0.75844331  0.37288854  1
  O  O246  1  -0.01191279  0.75632271  0.88391276  1
  O  O247  1  0.50975149  0.25554056  0.36972391  1
  O  O248  1  0.50668997  0.24466417  0.86513670  1
  O  O249  1  0.50548068  0.75521148  0.37025825  1
  O  O250  1  0.50108807  0.74184752  0.85976436  1
  O  O251  1  0.23194533  0.12295078  0.50127045  1
  O  O252  1  0.25737385  0.13694161  1.00134022  1
  O  O253  1  0.24632407  0.63209273  0.50107944  1
  O  O254  1  0.24024555  0.63385831  1.00269805  1
  O  O255  1  0.74271769  0.13193352  0.49454960  1
  O  O256  1  0.74848203  0.13233345  0.98806695  1
  O  O257  1  0.74737896  0.63260641  0.49165121  1
  O  O258  1  0.74424291  0.63161250  0.99630290  1
  O  O259  1  0.25908086  0.37299701  0.01237417  1
  O  O260  1  0.23835293  0.36657846  0.50648902  1
  O  O261  1  0.25976447  0.85818379  -0.00066508  1
  O  O262  1  0.26152008  0.86981346  0.50411000  1
  O  O263  1  0.75289126  0.37009838  0.00439805  1
  O  O264  1  0.75954097  0.37221285  0.50266211  1
  O  O265  1  0.75512983  0.86715889  0.00583801  1
  O  O266  1  0.75009538  0.86960200  0.50231540  1
  O  O267  1  0.13687789  0.51462824  0.23531285  1
  O  O268  1  0.12823962  0.49961577  0.74580721  1
  O  O269  1  0.12929903  0.99604021  0.23395001  1
  O  O270  1  0.13078485  0.99678919  0.73922588  1
  O  O271  1  0.62627268  0.49451750  0.24543462  1
  O  O272  1  0.63201827  0.49032690  0.75719968  1
  O  O273  1  0.62620791  0.98572096  0.25986900  1
  O  O274  1  0.62887369  0.99162988  0.74864393  1
  O  O275  1  0.36551646  -0.01425725  0.26415116  1
  O  O276  1  0.36557207  0.00794068  0.75195124  1
  O  O277  1  0.36621997  0.51368004  0.24308892  1
  O  O278  1  0.38075659  0.51224703  0.76321600  1
  O  O279  1  0.86594677  0.00696342  0.25165289  1
  O  O280  1  0.86880309  0.00827992  0.74584258  1
  O  O281  1  0.87290728  0.50420964  0.25530620  1
  O  O282  1  0.86494127  0.50047993  0.75770717  1
  O  O283  1  0.14862202  0.36343712  0.35542053  1
  O  O284  1  0.11513215  0.38304149  0.88189493  1
  O  O285  1  0.11433712  0.86324976  0.38310743  1
  O  O286  1  0.13175187  0.87628352  0.88240035  1
  O  O287  1  0.63329786  0.36315937  0.36954540  1
  O  O288  1  0.62911499  0.36212515  0.86297286  1
  O  O289  1  0.61894168  0.86841230  0.36958019  1
  O  O290  1  0.63498771  0.86930452  0.86102519  1
  O  O291  1  0.38925052  0.10365770  0.14171101  1
  O  O292  1  0.37993453  0.12908694  0.63435516  1
  O  O293  1  0.38125218  0.63358408  0.13101599  1
  O  O294  1  0.38638576  0.62581964  0.64108532  1
  O  O295  1  0.87551394  0.12632654  0.12709729  1
  O  O296  1  0.87428344  0.13366428  0.63292355  1
  O  O297  1  0.88057281  0.63145902  0.13051306  1
  O  O298  1  0.87143044  0.63674996  0.62740897  1
  O  O299  1  0.25455423  0.27117600  0.12268129  1
  O  O300  1  0.26576630  0.24390891  0.62165563  1
  O  O301  1  0.25852250  0.74424895  0.11933701  1
  O  O302  1  0.25680845  0.76044073  0.61851053  1
  O  O303  1  0.75278141  0.25613294  0.11528083  1
  O  O304  1  0.75964449  0.25175767  0.61981068  1
  O  O305  1  0.76072152  0.75593615  0.11977037  1
  O  O306  1  0.75366295  0.75433526  0.61531447  1
  O  O307  1  0.26464896  0.22977484  0.37254714  1
  O  O308  1  0.24905287  0.25105764  0.89127303  1
  O  O309  1  0.24307468  0.74991617  0.38260475  1
  O  O310  1  0.25437426  0.74620057  0.88521789  1
  O  O311  1  0.75066217  0.23881582  0.38165186  1
  O  O312  1  0.74569535  0.24659329  0.88041436  1
  O  O313  1  0.74330682  0.74642399  0.38016337  1
  O  O314  1  0.75620204  0.73825268  0.88629527  1
  O  O315  1  -0.00003378  0.11389771  0.01308407  1
  O  O316  1  0.00497403  0.11326024  0.50039227  1
  O  O317  1  0.00642130  0.61871100  0.00611662  1
  O  O318  1  0.00574118  0.61811762  0.50136179  1
  O  O319  1  0.50463686  0.11616572  0.00054748  1
  O  O320  1  0.50372148  0.12868230  0.51178539  1
  O  O321  1  0.50680802  0.62193685  0.00565112  1
  O  O322  1  0.50241794  0.62012183  0.51227367  1
  O  O323  1  0.50107300  0.38823420  0.49473472  1
  O  O324  1  0.50147054  0.38863641  1.00389620  1
  O  O325  1  0.48821149  0.87356813  0.49845868  1
  O  O326  1  0.48495966  0.86862521  0.99333392  1
  O  O327  1  0.98748125  0.38427597  0.49984739  1
  O  O328  1  0.98677209  0.38456846  0.98802957  1
  O  O329  1  0.98967962  0.88883870  0.48647198  1
  O  O330  1  0.99031186  0.88483398  1.00384161  1
  O  O331  1  0.50023680  0.50012743  0.38633568  1
  O  O332  1  0.49946328  0.50544851  0.88592068  1
  O  O333  1  0.49104956  0.99056223  0.37802234  1
  O  O334  1  0.47935624  1.00031394  0.86592837  1
  O  O335  1  0.99360958  0.50990840  0.37937137  1
  O  O336  1  0.98890758  0.49444885  0.87687087  1
  O  O337  1  0.99324494  0.99390200  0.37651530  1
  O  O338  1  0.99748406  1.00334142  0.88517982  1
  O  O339  1  0.00977339  0.00320758  0.11850832  1
  O  O340  1  0.00755565  0.00044214  0.61285394  1
  O  O341  1  0.00974253  0.50643905  0.11496886  1
  O  O342  1  -0.01021942  0.50578276  0.61516686  1
  O  O343  1  0.51169908  -0.01661331  0.11776161  1
  O  O344  1  0.50285686  0.01085057  0.62627394  1
  O  O345  1  0.50616384  0.50962650  0.11894654  1
  O  O346  1  0.49951384  0.51406384  0.62478336  1
  O  O347  1  0.25842504  0.39174879  0.23017898  1
  O  O348  1  0.24061354  0.37529122  0.74060137  1
  O  O349  1  0.24467704  0.88922242  0.26043867  1
  O  O350  1  0.25104050  0.88336161  0.74038394  1
  O  O351  1  0.73793272  0.38319130  0.24394310  1
  O  O352  1  0.74047667  0.38433164  0.74643961  1
  O  O353  1  0.74134264  0.87729825  0.23972374  1
  O  O354  1  0.74237771  0.87884101  0.74199236  1
  O  O355  1  0.25106145  0.09596878  0.25609610  1
  O  O356  1  0.25552177  0.11824160  0.74888659  1
  O  O357  1  0.25943355  0.61934755  0.24946052  1
  O  O358  1  0.26794413  0.63154232  0.74863413  1
  O  O359  1  0.75379555  0.12337162  0.25821510  1
  O  O360  1  0.75453979  0.12118476  0.75075532  1
  O  O361  1  0.75562938  0.62034605  0.25443341  1
  O  O362  1  0.74877342  0.61923354  0.75883203  1
  O  O363  1  0.38477913  0.10737129  0.36752623  1
  O  O364  1  0.36959462  0.12157387  0.86106444  1
  O  O365  1  0.37473255  0.63411965  0.36117531  1
  O  O366  1  0.38089546  0.61581387  0.86232720  1
  O  O367  1  0.86818196  0.11881763  0.36483909  1
  O  O368  1  0.86151579  0.12656249  0.85694793  1
  O  O369  1  0.86146094  0.63489864  0.36779160  1
  O  O370  1  0.86108652  0.61061392  0.87724234  1
  O  O371  1  0.12663710  0.38830548  0.12513333  1
  O  O372  1  0.11446104  0.38471803  0.62933290  1
  O  O373  1  0.11767187  0.87768379  0.12557285  1
  O  O374  1  0.14352637  0.89194478  0.60734218  1
  O  O375  1  0.62973364  0.38139235  0.13332144  1
  O  O376  1  0.62615228  0.36876684  0.63870545  1
  O  O377  1  0.63646636  0.86468413  0.13465168  1
  O  O378  1  0.62754723  0.88191602  0.63038342  1
  O  O379  1  0.11470567  0.23760587  0.24197234  1
  O  O380  1  0.10946009  0.24182512  0.74021115  1
  O  O381  1  0.11655096  0.74368288  0.26131691  1
  O  O382  1  0.11682263  0.76157073  0.72595399  1
  O  O383  1  0.62379444  0.26022223  0.25937818  1
  O  O384  1  0.61375578  0.25837097  0.75432143  1
  O  O385  1  0.61978942  0.75853382  0.25615273  1
  O  O386  1  0.61297447  0.75672563  0.74503067  1
  O  O387  1  0.39543648  0.25132981  0.25349493  1
  O  O388  1  0.37712895  0.24696294  0.74442834  1
  O  O389  1  0.37749532  0.74601746  0.24184839  1
  O  O390  1  0.38600648  0.74103053  0.75108127  1
  O  O391  1  0.86371753  0.23285885  0.23023959  1
  O  O392  1  0.87771643  0.24451436  0.74282910  1
  O  O393  1  0.87932002  0.74740730  0.24259280  1
  O  O394  1  0.87221732  0.75092546  0.73632005  1
  O  O395  1  0.39414780  0.50708398  0.50891518  1
  O  O396  1  0.38406677  0.50514535  0.98572648  1
  O  O397  1  0.37461477  0.99389639  0.48992004  1
  O  O398  1  0.36915398  0.98817783  0.99097675  1
  O  O399  1  0.88087519  0.49309881  0.49925587  1
  O  O400  1  0.87758930  0.49495927  0.99335254  1
  O  O401  1  0.88008142  0.99901754  0.49309582  1
  O  O402  1  0.88581835  0.99019702  0.99643561  1
  O  O403  1  0.11888713  -0.00671151  0.01457911  1
  O  O404  1  0.11701450  0.00807225  0.50089105  1
  O  O405  1  0.12407055  0.51105808  0.00726271  1
  O  O406  1  0.10911104  0.51159238  0.49122208  1
  O  O407  1  0.61509564  0.01039105  -0.04364590  1
  O  O408  1  0.61906421  0.00959031  0.50853816  1
  O  O409  1  0.61943210  0.50556054  0.00445974  1
  O  O410  1  0.60882016  0.50308142  0.50029992  1
  O  O411  1  0.37442728  0.38175686  0.11900979  1
  O  O412  1  0.37804591  0.36401052  0.62089834  1
  O  O413  1  0.37609018  0.86113983  0.11497891  1
  O  O414  1  0.36725875  0.87806306  0.61767452  1
  O  O415  1  0.87075896  0.36190422  0.11622003  1
  O  O416  1  0.87164571  0.36945908  0.61837234  1
  O  O417  1  0.86833495  0.86756198  0.11729644  1
  O  O418  1  0.86279631  0.87047913  0.61441935  1
  O  O419  1  0.11746969  0.11958780  0.38304264  1
  O  O420  1  0.12325706  0.12485425  0.88018107  1
  O  O421  1  0.12645177  0.64074387  0.38755799  1
  O  O422  1  0.11874215  0.61986837  0.89219036  1
  O  O423  1  0.63117795  0.13594354  0.38014330  1
  O  O424  1  0.64092978  0.14313402  0.86325306  1
  O  O425  1  0.63439258  0.63635484  0.37527785  1
  O  O426  1  0.63713521  0.62117580  0.88335079  1
