# generated using pymatgen
data_V85Zn86O256
_symmetry_space_group_name_H-M   'P 1'
_cell_length_a   16.93216659
_cell_length_b   16.93525311
_cell_length_c   16.92955126
_cell_angle_alpha   89.97581847
_cell_angle_beta   89.97869586
_cell_angle_gamma   89.97333298
_symmetry_Int_Tables_number   1
_chemical_formula_structural   V85Zn86O256
_chemical_formula_sum   'V85 Zn86 O256'
_cell_volume   4854.55644997
_cell_formula_units_Z   1
loop_
 _symmetry_equiv_pos_site_id
 _symmetry_equiv_pos_as_xyz
  1  'x, y, z'
loop_
 _atom_site_type_symbol
 _atom_site_label
 _atom_site_symmetry_multiplicity
 _atom_site_fract_x
 _atom_site_fract_y
 _atom_site_fract_z
 _atom_site_occupancy
  V  V0  1  0.49592704  -0.00409193  0.50325493  1
  V  V1  1  0.87111758  0.50212805  0.37052141  1
  V  V2  1  0.87611436  0.00007573  0.87190652  1
  V  V3  1  0.25341010  0.00178180  0.74940129  1
  V  V4  1  0.75018888  -0.00608994  0.74855693  1
  V  V5  1  0.37469565  0.00461152  0.87210525  1
  V  V6  1  0.49140680  0.12695879  0.63100115  1
  V  V7  1  0.86825624  0.62236402  0.24538411  1
  V  V8  1  0.00039872  0.37840742  0.37492493  1
  V  V9  1  0.24781455  0.12617707  0.37626160  1
  V  V10  1  0.11906898  0.12603515  0.50619639  1
  V  V11  1  0.12543321  0.12611232  -0.00195661  1
  V  V12  1  0.49473262  0.24793745  0.75392385  1
  V  V13  1  0.00098530  0.12587529  0.12356036  1
  V  V14  1  0.87736843  0.37830355  -0.00560627  1
  V  V15  1  0.50419864  0.87901796  0.37298903  1
  V  V16  1  0.86915520  0.75322915  0.62756363  1
  V  V17  1  0.49819202  0.73310830  0.74951281  1
  V  V18  1  0.75097505  0.12880788  0.37123554  1
  V  V19  1  0.36758855  0.25386154  0.63033300  1
  V  V20  1  0.74799418  -0.00661053  0.25207494  1
  V  V21  1  0.12431905  0.74218088  0.88010035  1
  V  V22  1  0.01114800  0.50071752  -0.00240905  1
  V  V23  1  0.62090762  0.13558510  0.50391312  1
  V  V24  1  0.49929017  0.00033390  0.00026720  1
  V  V25  1  0.12494249  0.62879102  0.50023758  1
  V  V26  1  0.00196196  0.87314221  0.87511973  1
  V  V27  1  0.24710554  -0.00875256  0.25135753  1
  V  V28  1  0.00226588  0.25170270  0.24753520  1
  V  V29  1  0.74896804  0.25109012  -0.00052034  1
  V  V30  1  0.13658335  0.49784266  0.62906625  1
  V  V31  1  0.37264194  -0.00522943  0.38124786  1
  V  V32  1  0.87624974  0.50365730  0.87112352  1
  V  V33  1  0.24977432  0.73651985  -0.00036405  1
  V  V34  1  0.12299325  0.38449318  0.24763494  1
  V  V35  1  0.50218305  0.26272319  0.25309078  1
  V  V36  1  0.00487451  0.75520359  0.24777327  1
  V  V37  1  0.24871559  0.50298757  0.24501230  1
  V  V38  1  0.11124851  0.25522470  0.87387164  1
  V  V39  1  0.62629222  0.86917746  0.74500170  1
  V  V40  1  0.62304680  -0.00366552  0.13158216  1
  V  V41  1  0.87543337  0.87075490  0.49395505  1
  V  V42  1  -0.00724041  0.25147192  0.73078046  1
  V  V43  1  -0.00007849  -0.00202624  -0.00125637  1
  V  V44  1  0.01248401  0.61993718  0.12194744  1
  V  V45  1  0.62252217  0.62088053  0.51008581  1
  V  V46  1  -0.00631118  0.62290713  0.62939821  1
  V  V47  1  0.74991268  0.62720563  0.89161289  1
  V  V48  1  0.37922863  0.73327461  0.62797241  1
  V  V49  1  0.37217715  0.25140915  0.12359901  1
  V  V50  1  0.87605852  0.25119180  0.12335690  1
  V  V51  1  0.26012249  0.87614286  0.62452997  1
  V  V52  1  0.62784405  0.37849205  0.74628033  1
  V  V53  1  0.37375125  0.12463454  0.25045899  1
  V  V54  1  0.49926672  0.12645441  0.12570917  1
  V  V55  1  0.62098989  -0.00339410  0.62668184  1
  V  V56  1  0.25635154  0.75547438  0.50030296  1
  V  V57  1  0.37341056  0.50545288  0.86328729  1
  V  V58  1  0.24512882  0.37902691  0.12191345  1
  V  V59  1  0.38125494  0.37165804  0.49704958  1
  V  V60  1  0.50839175  0.50786646  0.00521814  1
  V  V61  1  0.49862434  0.87312922  0.87205785  1
  V  V62  1  0.86342432  0.37935834  0.50383326  1
  V  V63  1  0.49930405  0.37697913  0.87742121  1
  V  V64  1  0.74137115  0.37529689  0.13753596  1
  V  V65  1  0.62692581  0.74536781  0.88680088  1
  V  V66  1  0.50521809  0.75623196  0.24848914  1
  V  V67  1  0.75132495  0.12775710  0.87138283  1
  V  V68  1  0.12434107  -0.00412008  0.12815324  1
  V  V69  1  0.25117452  0.62639142  0.37494086  1
  V  V70  1  0.75018602  0.50884869  0.74360691  1
  V  V71  1  0.62975121  0.75513483  0.37665328  1
  V  V72  1  0.25020137  0.12963268  0.87005600  1
  V  V73  1  0.13286158  0.37694376  0.74778326  1
  V  V74  1  0.25159369  0.62265378  0.85710271  1
  V  V75  1  0.24663374  0.25739879  0.50425048  1
  V  V76  1  -0.00266341  0.74577302  0.75042001  1
  V  V77  1  0.24793177  0.87146292  0.12119356  1
  V  V78  1  0.37738626  0.62867707  0.24638236  1
  V  V79  1  0.11773121  -0.00001029  0.62699031  1
  V  V80  1  0.38201322  0.49528881  0.37565599  1
  V  V81  1  0.80938068  0.19806301  0.55794640  1
  V  V82  1  0.62142866  0.25598708  0.37509615  1
  V  V83  1  0.86501361  0.86869855  0.00030987  1
  V  V84  1  0.00077217  0.50069214  0.50163680  1
  Zn  Zn85  1  0.49885493  0.51259080  0.51229778  1
  Zn  Zn86  1  0.00149625  -0.00061824  0.49669031  1
  Zn  Zn87  1  0.37276628  0.87196251  -0.00252963  1
  Zn  Zn88  1  0.87891884  -0.00004971  0.37176626  1
  Zn  Zn89  1  0.12639525  0.87321632  0.74958759  1
  Zn  Zn90  1  0.86935420  0.74289783  0.11840106  1
  Zn  Zn91  1  0.00941082  0.87983050  0.37051331  1
  Zn  Zn92  1  0.87624994  0.12384426  0.24980062  1
  Zn  Zn93  1  0.62320422  0.25041538  0.87711141  1
  Zn  Zn94  1  0.66073674  0.51715889  0.18772408  1
  Zn  Zn95  1  0.37299991  0.37955479  -0.00085981  1
  Zn  Zn96  1  0.74527891  0.75500099  0.50784997  1
  Zn  Zn97  1  0.74236484  0.87116869  0.12575353  1
  Zn  Zn98  1  0.87853401  0.12714088  0.73619614  1
  Zn  Zn99  1  0.75443032  0.37641824  0.62576440  1
  Zn  Zn100  1  0.62564292  0.12577715  0.00018536  1
  Zn  Zn101  1  0.13011518  0.75637270  0.36710425  1
  Zn  Zn102  1  0.24795778  0.25387350  -0.00315014  1
  Zn  Zn103  1  0.37852094  0.74990499  0.12170269  1
  Zn  Zn104  1  0.12629769  0.25290579  0.37574436  1
  Zn  Zn105  1  0.74737101  0.62701028  0.37430377  1
  Zn  Zn106  1  0.51565885  0.62786975  0.12200637  1
  Zn  Zn107  1  0.18644232  0.18808429  0.18800681  1
  Zn  Zn108  1  0.18356855  0.18797489  0.68946222  1
  Zn  Zn109  1  0.18656629  0.68592338  0.18343292  1
  Zn  Zn110  1  0.18247594  0.68999896  0.68462647  1
  Zn  Zn111  1  0.68498964  0.18637290  0.18873675  1
  Zn  Zn112  1  0.67807424  0.18514949  0.69464274  1
  Zn  Zn113  1  0.68680926  0.69477883  0.18106869  1
  Zn  Zn114  1  0.68740044  0.68377158  0.69263434  1
  Zn  Zn115  1  0.31149025  0.31293345  0.31076089  1
  Zn  Zn116  1  0.31161795  0.31585120  0.81338756  1
  Zn  Zn117  1  0.31567464  0.81435638  0.31368718  1
  Zn  Zn118  1  0.31330281  0.81150969  0.81025965  1
  Zn  Zn119  1  0.81460126  0.30930816  0.31810822  1
  Zn  Zn120  1  0.81686882  0.31541377  0.81066317  1
  Zn  Zn121  1  0.81746045  0.80966807  0.30722561  1
  Zn  Zn122  1  0.81242027  0.80862550  0.81435499  1
  Zn  Zn123  1  0.18942777  0.44036806  0.43540978  1
  Zn  Zn124  1  0.18981608  0.43715376  0.93014613  1
  Zn  Zn125  1  0.18279522  0.93409701  0.43986926  1
  Zn  Zn126  1  0.18665075  0.93320240  0.93819655  1
  Zn  Zn127  1  0.66204992  0.46102535  0.39230813  1
  Zn  Zn128  1  0.68895610  0.43608809  0.93498101  1
  Zn  Zn129  1  0.68853075  0.93921592  0.43988180  1
  Zn  Zn130  1  0.68290690  0.93814539  0.93306107  1
  Zn  Zn131  1  0.31142190  0.06296078  0.05932394  1
  Zn  Zn132  1  0.30983760  0.06739344  0.56324906  1
  Zn  Zn133  1  0.32069430  0.56042645  0.05888484  1
  Zn  Zn134  1  0.31226951  0.56161195  0.56144495  1
  Zn  Zn135  1  0.81242431  0.06080029  0.06305655  1
  Zn  Zn136  1  0.80727429  0.03394696  0.56087846  1
  Zn  Zn137  1  0.81355488  0.55778884  0.06551968  1
  Zn  Zn138  1  0.80925205  0.56745425  0.55700095  1
  Zn  Zn139  1  0.43563205  0.43918068  0.18569714  1
  Zn  Zn140  1  0.43497862  0.43601815  0.68530771  1
  Zn  Zn141  1  0.43342548  0.93638774  0.18811313  1
  Zn  Zn142  1  0.43617188  0.93314534  0.69042772  1
  Zn  Zn143  1  0.93396748  0.43969866  0.18121072  1
  Zn  Zn144  1  0.93969607  0.43350172  0.68896888  1
  Zn  Zn145  1  0.93321818  0.93822524  0.18629385  1
  Zn  Zn146  1  0.93647944  0.93127509  0.68700065  1
  Zn  Zn147  1  0.06367949  0.06201263  0.31282286  1
  Zn  Zn148  1  0.06156822  0.06735953  0.80730592  1
  Zn  Zn149  1  0.06047286  0.56766784  0.31196779  1
  Zn  Zn150  1  0.06337999  0.56162325  0.81314304  1
  Zn  Zn151  1  0.56300831  0.06859421  0.31320847  1
  Zn  Zn152  1  0.56405579  0.06385085  0.81303261  1
  Zn  Zn153  1  0.55637991  0.57337359  0.31889842  1
  Zn  Zn154  1  0.56878058  0.55986219  0.81726654  1
  Zn  Zn155  1  0.43680909  0.18845274  0.44016668  1
  Zn  Zn156  1  0.43394683  0.18718916  0.93935682  1
  Zn  Zn157  1  0.43961751  0.68868576  0.43876544  1
  Zn  Zn158  1  0.43659287  0.68414856  0.93643673  1
  Zn  Zn159  1  0.94293105  0.18657081  0.43081576  1
  Zn  Zn160  1  0.93471766  0.18587477  0.93522245  1
  Zn  Zn161  1  0.93872364  0.68949080  0.43478084  1
  Zn  Zn162  1  0.93593577  0.68208728  0.93735469  1
  Zn  Zn163  1  0.06355874  0.31790225  0.05955566  1
  Zn  Zn164  1  0.06142048  0.31706885  0.56270674  1
  Zn  Zn165  1  0.06180212  0.80931945  0.06233330  1
  Zn  Zn166  1  0.06325413  0.81457524  0.56259476  1
  Zn  Zn167  1  0.56349899  0.31543505  0.06267105  1
  Zn  Zn168  1  0.54850811  0.34278635  0.57411480  1
  Zn  Zn169  1  0.56001142  0.81579573  0.06299634  1
  Zn  Zn170  1  0.55756808  0.81030637  0.56196540  1
  O  O171  1  0.12157518  0.11881734  0.11745069  1
  O  O172  1  0.13268630  0.11366102  0.61724284  1
  O  O173  1  0.11156112  0.62114950  0.12420661  1
  O  O174  1  0.11558320  0.61928250  0.61909918  1
  O  O175  1  0.61705243  0.11559720  0.12162877  1
  O  O176  1  0.61187465  0.11991922  0.62152423  1
  O  O177  1  0.62560095  0.61202031  0.14160340  1
  O  O178  1  0.63033175  0.62999927  0.60959069  1
  O  O179  1  0.36235966  0.38591049  0.38169141  1
  O  O180  1  0.38051597  0.38483775  0.87642313  1
  O  O181  1  0.38327717  0.88875477  0.37472740  1
  O  O182  1  0.37897316  0.88761191  0.87374225  1
  O  O183  1  0.88237607  0.38159915  0.38021280  1
  O  O184  1  0.87075336  0.38413585  0.88770092  1
  O  O185  1  0.88277416  0.87093782  0.38431687  1
  O  O186  1  0.88079821  0.88012750  0.88243000  1
  O  O187  1  0.25482822  0.00360144  0.36971189  1
  O  O188  1  0.25463595  0.00451880  0.86918120  1
  O  O189  1  0.25539332  0.50771842  0.36408646  1
  O  O190  1  0.26363157  0.50818906  0.87737512  1
  O  O191  1  0.75003075  0.01102200  0.36970759  1
  O  O192  1  0.75319758  0.00687983  0.86557407  1
  O  O193  1  0.76937364  0.50389980  0.38117567  1
  O  O194  1  0.75636619  0.50936979  0.87163359  1
  O  O195  1  0.25716978  0.49440650  0.13660017  1
  O  O196  1  0.23571777  0.50521757  0.62396181  1
  O  O197  1  0.24414520  0.99414874  0.13013566  1
  O  O198  1  0.24815099  0.99481952  0.63209849  1
  O  O199  1  0.75300192  0.48108882  0.12646533  1
  O  O200  1  0.75871889  0.50294528  0.64095947  1
  O  O201  1  0.74032715  1.00018348  0.13272052  1
  O  O202  1  0.73708536  1.00039163  0.64041915  1
  O  O203  1  0.00689570  0.37288577  0.25000045  1
  O  O204  1  0.00840502  0.35918180  0.74685788  1
  O  O205  1  -0.00587783  0.85787023  0.24308211  1
  O  O206  1  0.00325751  0.86720308  0.75884527  1
  O  O207  1  0.49072745  0.36145034  0.24985974  1
  O  O208  1  0.50619278  0.36960706  0.76225262  1
  O  O209  1  0.49394157  0.87034342  0.26085931  1
  O  O210  1  0.50681804  0.86810499  0.75643708  1
  O  O211  1  0.49004794  0.12754820  0.24194373  1
  O  O212  1  0.50279141  0.13400989  0.74336029  1
  O  O213  1  0.49040530  0.63759670  0.25166850  1
  O  O214  1  0.50763680  0.63393028  0.75277239  1
  O  O215  1  1.00319128  0.13598376  0.24235123  1
  O  O216  1  0.99687473  0.14293452  0.75130779  1
  O  O217  1  0.99539081  0.62893413  0.23654862  1
  O  O218  1  1.00295938  0.63202665  0.74099331  1
  O  O219  1  0.37170633  0.25306508  0.01299111  1
  O  O220  1  0.36326036  0.24970693  0.50682585  1
  O  O221  1  0.36636027  0.75146329  0.00042750  1
  O  O222  1  0.36861450  0.74552797  0.51404554  1
  O  O223  1  0.87019758  0.25770993  0.00266637  1
  O  O224  1  0.87276452  0.25498641  0.49880319  1
  O  O225  1  0.87963643  0.76581980  -0.00332929  1
  O  O226  1  0.87442176  0.75653318  0.50646486  1
  O  O227  1  0.13025283  0.24499285  0.49996440  1
  O  O228  1  0.12537675  0.24674086  0.99111850  1
  O  O229  1  0.13424011  0.73890145  0.50508235  1
  O  O230  1  0.13346882  0.75176285  0.99011230  1
  O  O231  1  0.61497499  0.23652902  0.49931305  1
  O  O232  1  0.63517303  0.24778903  0.99790820  1
  O  O233  1  0.62600580  0.74895429  0.49373322  1
  O  O234  1  0.61969517  0.75668558  0.98555704  1
  O  O235  1  0.49233655  0.24698078  0.13058224  1
  O  O236  1  0.49157828  0.24569970  0.63446527  1
  O  O237  1  0.49842788  0.74989001  0.13361864  1
  O  O238  1  0.48512865  0.75410699  0.63248150  1
  O  O239  1  0.99715462  0.24794251  0.12877886  1
  O  O240  1  1.00047572  0.24783009  0.63186107  1
  O  O241  1  0.99682123  0.73749848  0.12839424  1
  O  O242  1  0.99646558  0.74353749  0.63325380  1
  O  O243  1  0.00408484  0.25869017  0.36391661  1
  O  O244  1  0.00945319  0.24839099  0.87384239  1
  O  O245  1  0.00372231  0.74621991  0.35671291  1
  O  O246  1  0.00649578  0.74941544  0.87044196  1
  O  O247  1  0.50730040  0.23486753  0.36272317  1
  O  O248  1  0.49633860  0.25682475  0.87104666  1
  O  O249  1  0.50434567  0.76246607  0.37167122  1
  O  O250  1  0.50492183  0.75216623  0.86757360  1
  O  O251  1  0.24161927  0.13334079  0.49259179  1
  O  O252  1  0.24306121  0.12577992  0.98800860  1
  O  O253  1  0.24459998  0.63421072  0.49651501  1
  O  O254  1  0.25455708  0.63394054  0.99534142  1
  O  O255  1  0.74702192  0.12984237  0.50059131  1
  O  O256  1  0.75238799  0.13584282  0.99336516  1
  O  O257  1  0.74031957  0.63457837  0.49434240  1
  O  O258  1  0.75191208  0.62116443  0.99050546  1
  O  O259  1  0.25051544  0.37550801  0.00823251  1
  O  O260  1  0.25201210  0.36109032  0.49452723  1
  O  O261  1  0.25174322  0.86536382  0.00633245  1
  O  O262  1  0.24881463  0.86210580  0.50761167  1
  O  O263  1  0.75595883  0.36481945  0.00425652  1
  O  O264  1  0.76403706  0.37902312  0.50084222  1
  O  O265  1  0.76308735  0.88356516  -0.00408991  1
  O  O266  1  0.76722558  0.87438492  0.49758800  1
  O  O267  1  0.13217939  0.49242394  0.25338935  1
  O  O268  1  0.11809800  0.48532750  0.74499414  1
  O  O269  1  0.13342097  1.00633425  0.23615299  1
  O  O270  1  0.13620749  0.99970890  0.74469857  1
  O  O271  1  0.62600683  0.49226074  0.28828685  1
  O  O272  1  0.64042968  0.49298869  0.75554479  1
  O  O273  1  0.63211016  1.00699656  0.24255669  1
  O  O274  1  0.62953213  0.99112312  0.74782118  1
  O  O275  1  0.36606187  0.00607589  0.25768046  1
  O  O276  1  0.36280588  -0.00076717  0.75630961  1
  O  O277  1  0.36939881  0.50673126  0.25706740  1
  O  O278  1  0.37903515  0.49570399  0.76356257  1
  O  O279  1  0.86539773  0.00491335  0.25014127  1
  O  O280  1  0.86757883  0.00193502  0.75144996  1
  O  O281  1  0.88513561  0.50982784  0.25783002  1
  O  O282  1  0.86562633  0.49167213  0.76346549  1
  O  O283  1  0.11949308  0.37575070  0.36545006  1
  O  O284  1  0.12703461  0.36725916  0.86177931  1
  O  O285  1  0.12333636  0.86912229  0.37439491  1
  O  O286  1  0.11953394  0.86286041  0.87372588  1
  O  O287  1  0.62722861  0.35289725  0.39143068  1
  O  O288  1  0.61760075  0.37223089  0.86641262  1
  O  O289  1  0.61156911  0.87373242  0.38192496  1
  O  O290  1  0.61882032  0.86804935  0.86487633  1
  O  O291  1  0.37661635  0.13242508  0.12873702  1
  O  O292  1  0.38502318  0.13516873  0.62171445  1
  O  O293  1  0.37758411  0.62581391  0.13845870  1
  O  O294  1  0.37373093  0.63431012  0.62666005  1
  O  O295  1  0.88337735  0.13297844  0.12434114  1
  O  O296  1  0.86259765  0.12962259  0.61190421  1
  O  O297  1  0.88286555  0.62252012  0.13176113  1
  O  O298  1  0.88855952  0.63373862  0.61625557  1
  O  O299  1  0.25603971  0.25772537  0.12485365  1
  O  O300  1  0.25648296  0.24060622  0.61713930  1
  O  O301  1  0.25011697  0.75550966  0.11738464  1
  O  O302  1  0.25970377  0.75498201  0.62181884  1
  O  O303  1  0.75586549  0.25334402  0.11772808  1
  O  O304  1  0.75063753  0.24803014  0.62401168  1
  O  O305  1  0.75790833  0.76065134  0.13040585  1
  O  O306  1  0.76626328  0.74515580  0.63162537  1
  O  O307  1  0.24841754  0.24085188  0.38024896  1
  O  O308  1  0.24268882  0.24279443  0.87478405  1
  O  O309  1  0.25361124  0.74533611  0.38362906  1
  O  O310  1  0.24486210  0.74277164  0.87939875  1
  O  O311  1  0.74054437  0.23658160  0.36993080  1
  O  O312  1  0.75184812  0.24356354  0.88100687  1
  O  O313  1  0.73666223  0.75628976  0.37174695  1
  O  O314  1  0.74352118  0.73538494  0.87126070  1
  O  O315  1  0.00507891  0.11803549  0.00373378  1
  O  O316  1  0.01554917  0.12441311  0.49473912  1
  O  O317  1  -0.00476964  0.61497009  0.01201273  1
  O  O318  1  0.00911988  0.62247300  0.50502034  1
  O  O319  1  0.49975288  0.11791597  0.00647465  1
  O  O320  1  0.50453910  0.11619613  0.50825635  1
  O  O321  1  0.49906162  0.61294334  0.00283700  1
  O  O322  1  0.51412101  0.62883044  0.50181150  1
  O  O323  1  0.47822427  0.35031713  0.48300272  1
  O  O324  1  0.49815052  0.37848409  0.98873740  1
  O  O325  1  0.50050738  0.89034040  0.49538623  1
  O  O326  1  0.49533780  0.88432361  0.99198932  1
  O  O327  1  0.99591461  0.38216832  0.49241684  1
  O  O328  1  0.99151593  0.39069366  1.00574155  1
  O  O329  1  0.99037153  0.87388774  0.49717162  1
  O  O330  1  0.99422905  0.88038829  0.99362780  1
  O  O331  1  0.48309551  0.50520145  0.38565791  1
  O  O332  1  0.49190893  0.49517893  0.87954951  1
  O  O333  1  0.49335336  0.99852761  0.38183582  1
  O  O334  1  0.49240199  0.99868180  0.87997571  1
  O  O335  1  0.99504035  0.49712883  0.38149275  1
  O  O336  1  0.98980306  0.51177306  0.88784472  1
  O  O337  1  0.99704363  0.99839099  0.37576653  1
  O  O338  1  0.99688705  0.99510588  0.87716715  1
  O  O339  1  0.00804129  0.00389191  0.12134580  1
  O  O340  1  0.01488771  -0.00569635  0.62642612  1
  O  O341  1  -0.00223498  0.50984598  0.11197908  1
  O  O342  1  0.00531376  0.50771745  0.62057764  1
  O  O343  1  0.50181739  0.00422130  0.11867203  1
  O  O344  1  0.49894936  0.00688531  0.62181506  1
  O  O345  1  0.49639661  0.49745633  0.10936543  1
  O  O346  1  0.50765016  0.45097994  0.60439847  1
  O  O347  1  0.24181389  0.38310294  0.24473917  1
  O  O348  1  0.23223277  0.36688097  0.74678658  1
  O  O349  1  0.25396021  0.88622586  0.24348666  1
  O  O350  1  0.24779039  0.88315605  0.74369051  1
  O  O351  1  0.75747170  0.36493316  0.23551737  1
  O  O352  1  0.74484744  0.38563683  0.75261778  1
  O  O353  1  0.75446963  0.89010109  0.25175324  1
  O  O354  1  0.74043850  0.88251847  0.75805060  1
  O  O355  1  0.25256379  0.11640164  0.25707429  1
  O  O356  1  0.24545604  0.11811550  0.76242280  1
  O  O357  1  0.25491520  0.61990416  0.25242055  1
  O  O358  1  0.24744325  0.62995827  0.75801924  1
  O  O359  1  0.75151377  0.11792937  0.25755396  1
  O  O360  1  0.75331433  0.11847958  0.75607999  1
  O  O361  1  0.76520964  0.62839778  0.25436979  1
  O  O362  1  0.74890697  0.61124289  0.75973144  1
  O  O363  1  0.36381429  0.11665146  0.37298711  1
  O  O364  1  0.36579575  0.11345002  0.87905855  1
  O  O365  1  0.36943366  0.62052113  0.36625283  1
  O  O366  1  0.36880222  0.61323654  0.87283294  1
  O  O367  1  0.86514680  0.12525110  0.37343571  1
  O  O368  1  0.86419637  0.11739018  0.87316660  1
  O  O369  1  0.87899200  0.61809367  0.36536776  1
  O  O370  1  0.86154254  0.61822541  0.87672726  1
  O  O371  1  0.13686994  0.37342149  0.13233004  1
  O  O372  1  0.12104821  0.38478874  0.63501728  1
  O  O373  1  0.13610672  0.88286443  0.12012428  1
  O  O374  1  0.13839881  0.88230085  0.62594122  1
  O  O375  1  0.64050340  0.37068763  0.12708563  1
  O  O376  1  0.63728627  0.36302147  0.64332848  1
  O  O377  1  0.62326320  0.89186208  0.12101166  1
  O  O378  1  0.61723122  0.87840499  0.63761403  1
  O  O379  1  0.11632174  0.26136546  0.24901119  1
  O  O380  1  0.11542271  0.25703433  0.75379762  1
  O  O381  1  0.10984335  0.74324963  0.24650141  1
  O  O382  1  0.11386656  0.75199416  0.75636353  1
  O  O383  1  0.61309814  0.24329294  0.25956104  1
  O  O384  1  0.61107925  0.25537719  0.75655438  1
  O  O385  1  0.61114079  0.75119622  0.26018724  1
  O  O386  1  0.61819178  0.75478395  0.75520231  1
  O  O387  1  0.37726146  0.24421835  0.24077491  1
  O  O388  1  0.38457307  0.25600200  0.74456486  1
  O  O389  1  0.38343751  0.74420001  0.24995706  1
  O  O390  1  0.38291233  0.75147876  0.73864160  1
  O  O391  1  0.88927334  0.25054037  0.24429467  1
  O  O392  1  0.88786107  0.24923844  0.74944594  1
  O  O393  1  0.88805339  0.73858033  0.24656201  1
  O  O394  1  0.88856001  0.75694966  0.74347946  1
  O  O395  1  0.37203269  0.48935555  0.49455396  1
  O  O396  1  0.38702164  0.49766836  0.98801899  1
  O  O397  1  0.38208018  1.00844856  0.49228467  1
  O  O398  1  0.38409676  0.99907952  0.99267324  1
  O  O399  1  0.88316114  0.49627812  0.49415429  1
  O  O400  1  0.88008057  0.49382114  0.99169154  1
  O  O401  1  0.88126140  0.98517150  0.49557034  1
  O  O402  1  0.88138462  0.99382169  0.99211545  1
  O  O403  1  0.12082447  0.00394742  0.00866153  1
  O  O404  1  0.12777522  0.00831375  0.51051328  1
  O  O405  1  0.10964503  0.49519745  -0.00874745  1
  O  O406  1  0.12245062  0.50991600  0.50576625  1
  O  O407  1  0.61207133  0.00271898  0.00266418  1
  O  O408  1  0.61791016  0.00878106  0.50807075  1
  O  O409  1  0.60673993  0.49440568  -0.00897854  1
  O  O410  1  0.62475705  0.51842055  0.48851789  1
  O  O411  1  0.36199099  0.36807246  0.12598671  1
  O  O412  1  0.36901872  0.35974124  0.61553062  1
  O  O413  1  0.36032651  0.87441048  0.12251769  1
  O  O414  1  0.36335592  0.86929756  0.62733934  1
  O  O415  1  0.86814319  0.36882683  0.11359734  1
  O  O416  1  0.87442366  0.37801596  0.61245289  1
  O  O417  1  0.87480257  0.87853822  0.10609770  1
  O  O418  1  0.88085275  0.86431098  0.61178060  1
  O  O419  1  0.13679145  0.12616620  0.38053858  1
  O  O420  1  0.13082169  0.13283755  0.87907835  1
  O  O421  1  0.13223346  0.62924002  0.38358351  1
  O  O422  1  0.13375208  0.63435542  0.87154607  1
  O  O423  1  0.63270390  0.12768304  0.38711945  1
  O  O424  1  0.63895400  0.12619282  0.87709837  1
  O  O425  1  0.62495161  0.64270115  0.38448951  1
  O  O426  1  0.63894224  0.63170296  0.87538338  1
