# generated using pymatgen
data_V85Zn86O256
_symmetry_space_group_name_H-M   'P 1'
_cell_length_a   16.94308772
_cell_length_b   16.93942616
_cell_length_c   16.92468192
_cell_angle_alpha   89.99321078
_cell_angle_beta   89.97670306
_cell_angle_gamma   89.97315582
_symmetry_Int_Tables_number   1
_chemical_formula_structural   V85Zn86O256
_chemical_formula_sum   'V85 Zn86 O256'
_cell_volume   4857.48739334
_cell_formula_units_Z   1
loop_
 _symmetry_equiv_pos_site_id
 _symmetry_equiv_pos_as_xyz
  1  'x, y, z'
loop_
 _atom_site_type_symbol
 _atom_site_label
 _atom_site_symmetry_multiplicity
 _atom_site_fract_x
 _atom_site_fract_y
 _atom_site_fract_z
 _atom_site_occupancy
  V  V0  1  0.13292082  0.24840515  0.87522049  1
  V  V1  1  0.37311344  0.37753888  -0.00388786  1
  V  V2  1  0.00099869  0.74496775  0.75169162  1
  V  V3  1  0.74329503  0.12877145  0.87327751  1
  V  V4  1  0.61778339  0.75251751  0.38095147  1
  V  V5  1  0.87668816  -0.00093487  0.87438521  1
  V  V6  1  0.38161938  0.62051519  0.75312941  1
  V  V7  1  0.75066337  0.74606395  -0.00323327  1
  V  V8  1  0.87713765  0.37465743  0.00041124  1
  V  V9  1  0.49559571  0.62289022  0.12585869  1
  V  V10  1  0.00247410  0.49775722  0.00255918  1
  V  V11  1  -0.00135230  0.74934002  0.26550772  1
  V  V12  1  0.74400699  0.74802666  0.50239067  1
  V  V13  1  0.87911249  0.74558140  0.62648166  1
  V  V14  1  0.49823605  -0.00727176  -0.00776881  1
  V  V15  1  0.49278766  0.74696750  0.24950563  1
  V  V16  1  0.50172311  0.36416734  0.87661494  1
  V  V17  1  0.74952683  0.50091896  0.24864096  1
  V  V18  1  0.00055571  -0.00197353  -0.00336614  1
  V  V19  1  0.25500424  0.50309424  0.75705020  1
  V  V20  1  0.25798702  0.37120144  0.13370554  1
  V  V21  1  0.25807902  0.24615523  0.00177422  1
  V  V22  1  -0.00352512  0.11551708  0.61198278  1
  V  V23  1  0.75366433  0.24915946  0.49795551  1
  V  V24  1  0.25708339  0.63270572  0.87849081  1
  V  V25  1  0.39110394  0.37623346  0.49603205  1
  V  V26  1  0.74794232  0.00048505  0.24703231  1
  V  V27  1  0.74594368  0.00034912  0.74622332  1
  V  V28  1  0.48935166  0.25285819  0.24286528  1
  V  V29  1  0.74809193  0.50792777  0.75251513  1
  V  V30  1  0.39242287  0.50274501  0.37773385  1
  V  V31  1  -0.00032442  0.24511009  0.75096352  1
  V  V32  1  0.49872086  0.12267504  0.62839175  1
  V  V33  1  0.13230303  0.12346386  -0.00523430  1
  V  V34  1  0.11821529  0.50754086  0.62694109  1
  V  V35  1  0.87592255  0.25106126  0.12622973  1
  V  V36  1  0.12830759  0.49581598  0.13301018  1
  V  V37  1  0.74749189  0.12262324  0.37397398  1
  V  V38  1  0.74076447  0.62751867  0.37655071  1
  V  V39  1  0.61492582  0.24939560  0.37710065  1
  V  V40  1  0.61923489  0.87794395  0.75093716  1
  V  V41  1  0.12563388  0.62868771  0.49823162  1
  V  V42  1  0.74907607  0.87497360  0.12291565  1
  V  V43  1  0.24909951  0.86936891  0.11687807  1
  V  V44  1  0.12125327  0.87604887  0.75052402  1
  V  V45  1  0.50504695  0.62119953  0.61240989  1
  V  V46  1  0.37063339  0.74690702  0.11737542  1
  V  V47  1  0.37005918  0.00160382  0.87287207  1
  V  V48  1  0.87605956  0.75081844  0.12433093  1
  V  V49  1  0.23715655  0.12128057  0.37989514  1
  V  V50  1  0.88024741  0.87345073  -0.00445981  1
  V  V51  1  0.62111449  0.37371542  0.25420233  1
  V  V52  1  0.74889785  0.37551102  0.12405948  1
  V  V53  1  0.12761696  -0.00310713  0.12501909  1
  V  V54  1  0.88316290  0.87346243  0.49409923  1
  V  V55  1  0.48309469  0.87965774  0.37770832  1
  V  V56  1  0.37718055  0.10798603  0.25403755  1
  V  V57  1  0.13247697  0.62890680  0.00200948  1
  V  V58  1  0.62972709  0.75230441  0.87441593  1
  V  V59  1  0.49508391  0.50119561  -0.00970257  1
  V  V60  1  0.12087642  0.87463369  0.25929965  1
  V  V61  1  0.62744410  0.62294872  -0.00627958  1
  V  V62  1  0.74360752  0.87812468  0.62290199  1
  V  V63  1  0.48077077  -0.00370877  0.50123434  1
  V  V64  1  0.62172552  0.87599206  0.24974455  1
  V  V65  1  0.00111180  0.37506762  0.87746810  1
  V  V66  1  0.62098444  0.00582662  0.12078488  1
  V  V67  1  0.62525661  0.36925940  0.75437321  1
  V  V68  1  0.88027463  0.25453799  0.62189995  1
  V  V69  1  0.12729063  0.37835551  0.75117407  1
  V  V70  1  0.24513341  0.01246744  0.75063721  1
  V  V71  1  0.00222647  0.12826743  0.12474795  1
  V  V72  1  0.62301256  0.49992504  0.61119650  1
  V  V73  1  0.00155298  0.62423014  0.12732665  1
  V  V74  1  0.50007033  0.75030872  0.75431202  1
  V  V75  1  0.87769854  0.12644825  0.24975302  1
  V  V76  1  0.25682316  0.87348146  0.62093131  1
  V  V77  1  0.25377495  0.37865692  0.62001095  1
  V  V78  1  0.74170970  0.25144133  -0.00630259  1
  V  V79  1  0.75136753  0.37426211  0.62302310  1
  V  V80  1  0.12329400  0.75622257  0.88004079  1
  V  V81  1  0.62440805  0.11084217  0.50389205  1
  V  V82  1  0.25626107  0.50876113  0.25586379  1
  V  V83  1  0.87227098  0.62539566  0.24911938  1
  V  V84  1  0.87220005  0.50701401  0.87534475  1
  Zn  Zn85  1  0.26192328  0.75345391  0.49303133  1
  Zn  Zn86  1  0.87586649  0.62631504  0.75313330  1
  Zn  Zn87  1  0.01467255  -0.00392724  0.47148324  1
  Zn  Zn88  1  0.24555436  0.25565048  0.48153596  1
  Zn  Zn89  1  -0.03283725  0.37340529  0.38150124  1
  Zn  Zn90  1  0.25753377  0.62724287  0.37861998  1
  Zn  Zn91  1  -0.00528072  0.49657308  0.50094241  1
  Zn  Zn92  1  0.62162585  0.49924837  0.12339712  1
  Zn  Zn93  1  0.87229219  0.12514692  0.74985337  1
  Zn  Zn94  1  0.12560191  0.00084536  0.61970847  1
  Zn  Zn95  1  0.36407118  0.13302965  0.75140994  1
  Zn  Zn96  1  0.61726496  0.13070230  -0.00551072  1
  Zn  Zn97  1  0.37331540  0.86824393  -0.01131999  1
  Zn  Zn98  1  0.50313799  0.24490543  0.75258146  1
  Zn  Zn99  1  0.87503592  -0.00688771  0.37094228  1
  Zn  Zn100  1  0.48719563  0.12770228  0.11793754  1
  Zn  Zn101  1  0.08553229  0.30219390  0.30001448  1
  Zn  Zn102  1  0.12696778  0.75196896  0.37980023  1
  Zn  Zn103  1  0.86750941  0.49673865  0.38987534  1
  Zn  Zn104  1  0.37736287  0.25239052  0.62686997  1
  Zn  Zn105  1  0.37914327  0.75218522  0.62168624  1
  Zn  Zn106  1  0.25642505  -0.00882441  0.25474725  1
  Zn  Zn107  1  0.19994558  0.18234746  0.18909897  1
  Zn  Zn108  1  0.16284360  0.21294851  0.64833620  1
  Zn  Zn109  1  0.18782321  0.68752159  0.19168357  1
  Zn  Zn110  1  0.19020676  0.68971957  0.68941678  1
  Zn  Zn111  1  0.68606424  0.18884965  0.18592608  1
  Zn  Zn112  1  0.68481879  0.18588184  0.68485694  1
  Zn  Zn113  1  0.68025921  0.68848702  0.18470298  1
  Zn  Zn114  1  0.68511855  0.68698764  0.68582080  1
  Zn  Zn115  1  0.30872174  0.31565119  0.31834874  1
  Zn  Zn116  1  0.31648110  0.31289252  0.81134361  1
  Zn  Zn117  1  0.30797648  0.80803297  0.30626591  1
  Zn  Zn118  1  0.31119384  0.81551025  0.80791375  1
  Zn  Zn119  1  0.81035849  0.31090530  0.31116451  1
  Zn  Zn120  1  0.81307644  0.31599768  0.81127022  1
  Zn  Zn121  1  0.80930680  0.80931127  0.31212095  1
  Zn  Zn122  1  0.81031588  0.81377829  0.81271329  1
  Zn  Zn123  1  0.18630459  0.43921388  0.43685338  1
  Zn  Zn124  1  0.18975520  0.44019782  0.93877683  1
  Zn  Zn125  1  0.19402052  0.94554971  0.44041906  1
  Zn  Zn126  1  0.19288025  0.93714156  0.93504150  1
  Zn  Zn127  1  0.69479955  0.43159532  0.43392598  1
  Zn  Zn128  1  0.68634756  0.43831246  0.93563697  1
  Zn  Zn129  1  0.68744019  0.93382919  0.43443543  1
  Zn  Zn130  1  0.68831642  0.93705637  0.93535453  1
  Zn  Zn131  1  0.31491869  0.06184426  0.06631667  1
  Zn  Zn132  1  0.30787964  0.06545964  0.56579111  1
  Zn  Zn133  1  0.31442950  0.56054838  0.06246543  1
  Zn  Zn134  1  0.31600388  0.56293056  0.56209002  1
  Zn  Zn135  1  0.80975720  0.06423367  0.05997947  1
  Zn  Zn136  1  0.81589510  0.06084518  0.56229826  1
  Zn  Zn137  1  0.81093099  0.56217624  0.06236684  1
  Zn  Zn138  1  0.80481916  0.56676786  0.56678338  1
  Zn  Zn139  1  0.43589025  0.43798326  0.18687638  1
  Zn  Zn140  1  0.43947052  0.43944810  0.68872361  1
  Zn  Zn141  1  0.43916785  0.93211808  0.18067904  1
  Zn  Zn142  1  0.43670586  0.94334381  0.68869170  1
  Zn  Zn143  1  0.94077671  0.43341380  0.19825857  1
  Zn  Zn144  1  0.93824250  0.43425690  0.68762231  1
  Zn  Zn145  1  0.94060417  0.93831103  0.18974983  1
  Zn  Zn146  1  0.93328637  0.92904340  0.69046876  1
  Zn  Zn147  1  0.06014440  0.06419350  0.30955085  1
  Zn  Zn148  1  0.06216187  0.06309789  0.81207855  1
  Zn  Zn149  1  0.06220772  0.55366400  0.31634032  1
  Zn  Zn150  1  0.06417307  0.56662450  0.81552248  1
  Zn  Zn151  1  0.55662178  0.06336835  0.31472644  1
  Zn  Zn152  1  0.56103728  0.05874044  0.81509254  1
  Zn  Zn153  1  0.56337181  0.56478627  0.31070317  1
  Zn  Zn154  1  0.56569835  0.55889963  0.81171994  1
  Zn  Zn155  1  0.43178039  0.18769941  0.43844657  1
  Zn  Zn156  1  0.43494220  0.18207959  0.93430849  1
  Zn  Zn157  1  0.43352148  0.68743070  0.43976480  1
  Zn  Zn158  1  0.44160133  0.68908611  0.93486425  1
  Zn  Zn159  1  0.93839267  0.18792792  0.43076461  1
  Zn  Zn160  1  0.93632768  0.18625117  0.93776330  1
  Zn  Zn161  1  0.92616025  0.65724831  0.45288590  1
  Zn  Zn162  1  0.94368094  0.68664030  0.93730679  1
  Zn  Zn163  1  0.08404121  0.29371242  0.10332181  1
  Zn  Zn164  1  0.07534174  0.30479771  0.47913968  1
  Zn  Zn165  1  0.06028205  0.81089055  0.06549887  1
  Zn  Zn166  1  0.06641622  0.81103696  0.56579951  1
  Zn  Zn167  1  0.56065013  0.31462728  0.06584394  1
  Zn  Zn168  1  0.56593557  0.30746088  0.56550994  1
  Zn  Zn169  1  0.56029672  0.81363202  0.06127480  1
  Zn  Zn170  1  0.55670867  0.81551797  0.56499764  1
  O  O171  1  0.12442908  0.11171118  0.11322969  1
  O  O172  1  0.09848479  0.11784812  0.63521560  1
  O  O173  1  0.12431923  0.61682728  0.11975937  1
  O  O174  1  0.13518786  0.61320565  0.62217513  1
  O  O175  1  0.62647498  0.11262273  0.12088750  1
  O  O176  1  0.61610590  0.12829519  0.61268945  1
  O  O177  1  0.61258157  0.62669574  0.11171092  1
  O  O178  1  0.61395001  0.61530065  0.63025999  1
  O  O179  1  0.37258852  0.38466555  0.38867032  1
  O  O180  1  0.38470523  0.37458071  0.88718058  1
  O  O181  1  0.38505998  0.87246459  0.36588427  1
  O  O182  1  0.36916808  0.89033621  0.87360123  1
  O  O183  1  0.84978390  0.38430001  0.38219205  1
  O  O184  1  0.88196996  0.38402670  0.87985151  1
  O  O185  1  0.86714971  0.86917419  0.39124827  1
  O  O186  1  0.86735539  0.88402386  0.88592120  1
  O  O187  1  0.25177867  0.01279994  0.36886214  1
  O  O188  1  0.25816098  0.00140445  0.86614064  1
  O  O189  1  0.25464627  0.50170547  0.36348330  1
  O  O190  1  0.24268345  0.51527776  0.86449504  1
  O  O191  1  0.75190171  0.00433368  0.36537529  1
  O  O192  1  0.75816665  0.00657609  0.86976234  1
  O  O193  1  0.74465494  0.51301183  0.36703368  1
  O  O194  1  0.76047337  0.49264800  0.86565212  1
  O  O195  1  0.24897055  0.49578772  0.13628150  1
  O  O196  1  0.25045979  0.49661565  0.63941781  1
  O  O197  1  0.24199728  0.99028090  0.12719739  1
  O  O198  1  0.24838740  0.99072817  0.63425629  1
  O  O199  1  0.74497459  0.49460154  0.13145731  1
  O  O200  1  0.74562220  0.49243343  0.63171409  1
  O  O201  1  0.74123310  0.99411933  0.12580866  1
  O  O202  1  0.75496420  0.99185369  0.63504721  1
  O  O203  1  -0.00040676  0.37543819  0.26891292  1
  O  O204  1  0.00710028  0.36517299  0.75519373  1
  O  O205  1  0.00848128  0.86143799  0.24144979  1
  O  O206  1  0.01302738  0.86677677  0.74852341  1
  O  O207  1  0.50784900  0.36346028  0.24396998  1
  O  O208  1  0.50779193  0.37674437  0.76041345  1
  O  O209  1  0.50491452  0.86892041  0.25553092  1
  O  O210  1  0.51221744  0.86786319  0.74001577  1
  O  O211  1  0.49146718  0.13389880  0.24732299  1
  O  O212  1  0.50649293  0.12129490  0.73660568  1
  O  O213  1  0.50679464  0.63448329  0.23801583  1
  O  O214  1  0.49612796  0.63048200  0.74995846  1
  O  O215  1  0.98396313  0.12255483  0.23985896  1
  O  O216  1  0.99349276  0.13776075  0.75617059  1
  O  O217  1  0.99432527  0.63009768  0.24418937  1
  O  O218  1  0.99878535  0.63991648  0.75413166  1
  O  O219  1  0.36349746  0.25501711  -0.00768686  1
  O  O220  1  0.37001346  0.26460590  0.50153686  1
  O  O221  1  0.38449497  0.75196700  0.01213720  1
  O  O222  1  0.37533882  0.75090298  0.50829032  1
  O  O223  1  0.86381748  0.25627616  0.00367109  1
  O  O224  1  0.85986365  0.24083069  0.50778666  1
  O  O225  1  0.87215672  0.75570138  0.00172323  1
  O  O226  1  0.86598287  0.75432800  0.50779826  1
  O  O227  1  0.14933600  0.24975744  0.54043282  1
  O  O228  1  0.13468878  0.24172437  0.99669851  1
  O  O229  1  0.13198577  0.74008467  0.50165447  1
  O  O230  1  0.11874512  0.73784085  0.99560569  1
  O  O231  1  0.63304012  0.24172730  0.49306198  1
  O  O232  1  0.63779898  0.25113180  1.00537202  1
  O  O233  1  0.62802814  0.75888222  0.48909911  1
  O  O234  1  0.62764164  0.74578499  0.99233473  1
  O  O235  1  0.50571387  0.24427229  0.13889318  1
  O  O236  1  0.49823397  0.23733022  0.62547482  1
  O  O237  1  0.49580001  0.74400115  0.13082839  1
  O  O238  1  0.50575802  0.73771156  0.63724901  1
  O  O239  1  0.98056853  0.24273636  0.10893365  1
  O  O240  1  0.98977856  0.23561810  0.63408983  1
  O  O241  1  0.99216732  0.74085590  0.12991534  1
  O  O242  1  0.98955196  0.75615826  0.63603589  1
  O  O243  1  0.01020746  0.25782776  0.38715917  1
  O  O244  1  0.00808458  0.25537661  0.87155387  1
  O  O245  1  -0.00026831  0.73930854  0.36607531  1
  O  O246  1  0.01162238  0.74939718  0.86908487  1
  O  O247  1  0.51104420  0.24416732  0.36590567  1
  O  O248  1  0.50283338  0.26058736  0.87880736  1
  O  O249  1  0.50268471  0.75498246  0.36829044  1
  O  O250  1  0.51224038  0.74875902  0.86261101  1
  O  O251  1  0.25564941  0.12422888  0.48331834  1
  O  O252  1  0.24385627  0.13320685  1.00512925  1
  O  O253  1  0.24174338  0.62640005  0.50202418  1
  O  O254  1  0.24310715  0.62073381  0.99262428  1
  O  O255  1  0.74261654  0.12807777  0.49624189  1
  O  O256  1  0.74759198  0.13471569  0.99114680  1
  O  O257  1  0.74360752  0.64069284  0.49236929  1
  O  O258  1  0.73981146  0.63355505  1.00576908  1
  O  O259  1  0.25805478  0.37082410  0.00356492  1
  O  O260  1  0.26193532  0.38131057  0.51164980  1
  O  O261  1  0.25025001  0.87371279  0.01250115  1
  O  O262  1  0.24712959  0.87424932  0.51799934  1
  O  O263  1  0.75501553  0.37059163  0.00433285  1
  O  O264  1  0.74257380  0.36346877  0.51527565  1
  O  O265  1  0.75753257  0.86752946  0.00453320  1
  O  O266  1  0.75313229  0.86581913  0.50611216  1
  O  O267  1  0.13976349  0.50464214  0.24307591  1
  O  O268  1  0.13299430  0.50295549  0.74466674  1
  O  O269  1  0.12254277  0.99167053  0.23636777  1
  O  O270  1  0.12887179  0.99223151  0.75178063  1
  O  O271  1  0.63253724  0.49210349  0.24869618  1
  O  O272  1  0.63321808  0.49022491  0.74419769  1
  O  O273  1  0.62760932  0.99710734  0.24153105  1
  O  O274  1  0.63649759  0.99068146  0.75628803  1
  O  O275  1  0.38042754  0.00526197  0.24937049  1
  O  O276  1  0.36504865  0.00365113  0.75803012  1
  O  O277  1  0.36660633  0.49213942  0.26366138  1
  O  O278  1  0.37066786  0.51219246  0.75162173  1
  O  O279  1  0.86289808  0.00768930  0.24235427  1
  O  O280  1  0.86315949  -0.00355186  0.75882646  1
  O  O281  1  0.85879901  0.50768924  0.24588910  1
  O  O282  1  0.86841067  0.50027473  0.75699821  1
  O  O283  1  0.14172817  0.35119330  0.38842950  1
  O  O284  1  0.12006010  0.36960937  0.87199607  1
  O  O285  1  0.13056370  0.87521071  0.36135018  1
  O  O286  1  0.13171299  0.86200174  0.87152696  1
  O  O287  1  0.63123083  0.36461896  0.36273054  1
  O  O288  1  0.61684985  0.37880415  0.86627956  1
  O  O289  1  0.61676010  0.86766625  0.36787080  1
  O  O290  1  0.62962772  0.86614123  0.86362836  1
  O  O291  1  0.37299398  0.12457112  0.14451939  1
  O  O292  1  0.38377290  0.12756069  0.62836222  1
  O  O293  1  0.38738999  0.63060775  0.11967288  1
  O  O294  1  0.39107790  0.62307410  0.63359516  1
  O  O295  1  0.87671650  0.13200649  0.12844713  1
  O  O296  1  0.87941334  0.13436162  0.62915693  1
  O  O297  1  0.87929512  0.63038761  0.12993038  1
  O  O298  1  0.86416745  0.64283085  0.63465100  1
  O  O299  1  0.25147876  0.26136892  0.11411758  1
  O  O300  1  0.26071069  0.27690058  0.64783589  1
  O  O301  1  0.26033471  0.75342957  0.12993790  1
  O  O302  1  0.25350317  0.76524347  0.63162607  1
  O  O303  1  0.75743092  0.25462681  0.11623534  1
  O  O304  1  0.75625083  0.25514780  0.61995341  1
  O  O305  1  0.75486478  0.75559092  0.11925066  1
  O  O306  1  0.75142343  0.75653267  0.61831280  1
  O  O307  1  0.25798918  0.22870818  0.36846304  1
  O  O308  1  0.23722810  0.25636774  0.88131574  1
  O  O309  1  0.24598231  0.74412379  0.37415869  1
  O  O310  1  0.24208103  0.73928986  0.86994015  1
  O  O311  1  0.73957081  0.24126475  0.38230561  1
  O  O312  1  0.75580068  0.24260549  0.88141659  1
  O  O313  1  0.73661556  0.74872599  0.38121954  1
  O  O314  1  0.73866925  0.75037360  0.87977031  1
  O  O315  1  0.00758721  0.11833846  0.00490674  1
  O  O316  1  -0.01193655  0.11443226  0.50976970  1
  O  O317  1  0.00820232  0.61716289  0.00799257  1
  O  O318  1  0.02336119  0.62606493  0.50856987  1
  O  O319  1  0.50074808  0.11374969  0.00115029  1
  O  O320  1  0.50405599  0.11379478  0.50392533  1
  O  O321  1  0.50572309  0.61756278  0.00296771  1
  O  O322  1  0.50442299  0.62788304  0.51434954  1
  O  O323  1  0.48997627  0.37116555  0.50349440  1
  O  O324  1  0.49533404  0.38061622  0.99616374  1
  O  O325  1  0.50201667  0.88878722  0.49408649  1
  O  O326  1  0.49546287  0.88840196  1.00400548  1
  O  O327  1  0.99530889  0.38284081  0.49639980  1
  O  O328  1  0.99384405  0.38294912  0.99563620  1
  O  O329  1  0.98439746  0.87014089  0.50550837  1
  O  O330  1  0.98762020  0.88047369  1.00492778  1
  O  O331  1  0.49108067  0.49808012  0.36854154  1
  O  O332  1  0.50532224  0.49128926  0.88656833  1
  O  O333  1  0.50319485  0.99238336  0.38937299  1
  O  O334  1  0.48770305  0.99910719  0.88037636  1
  O  O335  1  0.98505216  0.50735395  0.37986509  1
  O  O336  1  0.99554842  0.49520221  0.88063659  1
  O  O337  1  0.98744526  0.99921564  0.36342441  1
  O  O338  1  0.98459946  1.00513097  0.87964986  1
  O  O339  1  0.00795542  0.00577388  0.11693356  1
  O  O340  1  -0.01262525  0.01453822  0.63453223  1
  O  O341  1  0.01020624  0.50342919  0.12450214  1
  O  O342  1  0.01623544  0.49943483  0.63121383  1
  O  O343  1  0.50690318  0.00269373  0.11685832  1
  O  O344  1  0.49777450  0.00538942  0.61051205  1
  O  O345  1  0.50096842  0.50735624  0.11662113  1
  O  O346  1  0.50953445  0.51253987  0.62951978  1
  O  O347  1  0.25592574  0.38272851  0.23831057  1
  O  O348  1  0.24627545  0.38937054  0.75555681  1
  O  O349  1  0.23877646  0.87399458  0.23681841  1
  O  O350  1  0.23783571  0.88277634  0.74495075  1
  O  O351  1  0.74144179  0.38218457  0.24239301  1
  O  O352  1  0.74436386  0.38113397  0.74062351  1
  O  O353  1  0.74317946  0.87992538  0.24326761  1
  O  O354  1  0.74211782  0.88074703  0.74221110  1
  O  O355  1  0.26394826  0.11664423  0.25544694  1
  O  O356  1  0.24287914  0.11231616  0.73943691  1
  O  O357  1  0.25479429  0.61108447  0.24934368  1
  O  O358  1  0.26128130  0.62272176  0.75680069  1
  O  O359  1  0.75474116  0.11922046  0.25204766  1
  O  O360  1  0.74987362  0.11742145  0.75414088  1
  O  O361  1  0.74763740  0.61866172  0.25183476  1
  O  O362  1  0.74865669  0.61110049  0.74882846  1
  O  O363  1  0.37777593  0.12663689  0.35692300  1
  O  O364  1  0.37561382  0.10910706  0.86885911  1
  O  O365  1  0.37711419  0.60733004  0.37836870  1
  O  O366  1  0.36832259  0.63076684  0.86820876  1
  O  O367  1  0.86479245  0.12564764  0.36405485  1
  O  O368  1  0.86321303  0.11682860  0.87455628  1
  O  O369  1  0.85226724  0.63732473  0.36190956  1
  O  O370  1  0.87917939  0.61118621  0.87598301  1
  O  O371  1  0.14153418  0.39240698  0.11298468  1
  O  O372  1  0.13954641  0.39517929  0.63738031  1
  O  O373  1  0.12948537  0.88062855  0.12718179  1
  O  O374  1  0.13369572  0.87552133  0.63679119  1
  O  O375  1  0.63135885  0.37553955  0.13604174  1
  O  O376  1  0.63086266  0.38132988  0.63201633  1
  O  O377  1  0.62852579  0.88444119  0.12886937  1
  O  O378  1  0.63675105  0.87020424  0.63262520  1
  O  O379  1  0.11084197  0.24567276  0.20600130  1
  O  O380  1  0.11784930  0.25536591  0.75656110  1
  O  O381  1  0.11459662  0.75575431  0.25112683  1
  O  O382  1  0.11936008  0.75501572  0.75852031  1
  O  O383  1  0.61872420  0.25481145  0.25671083  1
  O  O384  1  0.62435394  0.26485744  0.74485875  1
  O  O385  1  0.61422372  0.75674863  0.25572765  1
  O  O386  1  0.62241067  0.75569736  0.75701167  1
  O  O387  1  0.38956248  0.25393421  0.25357427  1
  O  O388  1  0.38518396  0.24747884  0.75088661  1
  O  O389  1  0.38768549  0.75244255  0.23786000  1
  O  O390  1  0.38561477  0.74170292  0.74831066  1
  O  O391  1  0.86372305  0.23922653  0.23746393  1
  O  O392  1  0.88279996  0.25128660  0.74296609  1
  O  O393  1  0.88000473  0.74678165  0.24349859  1
  O  O394  1  0.88284634  0.75351968  0.74667621  1
  O  O395  1  0.37697853  0.49120224  0.48751569  1
  O  O396  1  0.38393560  0.49214625  0.99998858  1
  O  O397  1  0.38295901  0.99982887  0.50065211  1
  O  O398  1  0.37872005  0.99887109  0.98964744  1
  O  O399  1  0.88595370  0.54738438  0.49423660  1
  O  O400  1  0.87927618  0.49484470  0.99448381  1
  O  O401  1  0.87174564  0.98024427  0.49893891  1
  O  O402  1  0.87716175  0.99255812  0.99417010  1
  O  O403  1  0.12212235  0.00443972  0.00199656  1
  O  O404  1  0.11773577  -0.01012641  0.50811275  1
  O  O405  1  0.12203285  0.51124417  0.00641475  1
  O  O406  1  0.12904035  0.50927238  0.51486709  1
  O  O407  1  0.61746777  -0.00039976  0.00414326  1
  O  O408  1  0.62593928  0.00946993  0.49653645  1
  O  O409  1  0.61949446  0.50809051  0.00140291  1
  O  O410  1  0.63382187  0.49398669  0.51221480  1
  O  O411  1  0.36807448  0.37912782  0.11107821  1
  O  O412  1  0.37306031  0.38215755  0.61345684  1
  O  O413  1  0.36566823  0.86530776  0.12187531  1
  O  O414  1  0.35986802  0.87442282  0.63747194  1
  O  O415  1  0.86916306  0.36915065  0.12202048  1
  O  O416  1  0.86698384  0.36322541  0.62886277  1
  O  O417  1  0.86912091  0.87061313  0.11656439  1
  O  O418  1  0.86226648  0.86534594  0.61793116  1
  O  O419  1  0.13778875  0.12510492  0.36636782  1
  O  O420  1  0.12026724  0.13334115  0.88694709  1
  O  O421  1  0.13003268  0.62230488  0.38992797  1
  O  O422  1  0.13214818  0.63457166  0.88437003  1
  O  O423  1  0.62886789  0.13045809  0.38096860  1
  O  O424  1  0.63856596  0.12082359  0.87589262  1
  O  O425  1  0.63188814  0.63795484  0.36864372  1
  O  O426  1  0.62113207  0.63172507  0.88672337  1
