# generated using pymatgen
data_V85Zn86O256
_symmetry_space_group_name_H-M   'P 1'
_cell_length_a   16.95392240
_cell_length_b   16.94571009
_cell_length_c   16.95088771
_cell_angle_alpha   90.04617981
_cell_angle_beta   90.06473751
_cell_angle_gamma   89.99902518
_symmetry_Int_Tables_number   1
_chemical_formula_structural   V85Zn86O256
_chemical_formula_sum   'V85 Zn86 O256'
_cell_volume   4869.92184929
_cell_formula_units_Z   1
loop_
 _symmetry_equiv_pos_site_id
 _symmetry_equiv_pos_as_xyz
  1  'x, y, z'
loop_
 _atom_site_type_symbol
 _atom_site_label
 _atom_site_symmetry_multiplicity
 _atom_site_fract_x
 _atom_site_fract_y
 _atom_site_fract_z
 _atom_site_occupancy
  V  V0  1  0.25837204  0.87515549  0.62710618  1
  V  V1  1  0.62275111  0.75939125  0.86806101  1
  V  V2  1  0.12251800  0.00209659  0.62517171  1
  V  V3  1  0.37016195  0.49529268  0.37788872  1
  V  V4  1  0.62698023  0.12648772  0.50341745  1
  V  V5  1  0.12350150  0.49914776  0.12145415  1
  V  V6  1  0.24913712  0.87220981  0.12657398  1
  V  V7  1  0.12217608  0.75299342  0.37257887  1
  V  V8  1  0.37778557  0.87372911  -0.00798083  1
  V  V9  1  0.62956146  0.63790523  0.00085343  1
  V  V10  1  0.87778852  0.62241983  0.75894771  1
  V  V11  1  0.75186421  0.73933533  0.49909575  1
  V  V12  1  0.24912010  0.75594641  0.50357239  1
  V  V13  1  0.24860413  0.37135756  0.11380997  1
  V  V14  1  -0.00050708  0.49278075  0.49987962  1
  V  V15  1  0.62778211  0.50573155  0.62086025  1
  V  V16  1  0.87480730  0.12085131  0.24839731  1
  V  V17  1  0.63337616  0.37486562  0.24778565  1
  V  V18  1  0.24565699  0.00762039  0.75708207  1
  V  V19  1  0.37748484  0.36246661  0.50683203  1
  V  V20  1  0.49699977  0.62009884  0.12174517  1
  V  V21  1  0.49831007  -0.00346886  0.49282981  1
  V  V22  1  0.87336060  0.13637797  0.75056634  1
  V  V23  1  0.13167940  0.49802538  0.62278750  1
  V  V24  1  0.58269496  0.67967005  0.43900610  1
  V  V25  1  0.13950603  0.24868041  0.87844169  1
  V  V26  1  0.50373205  0.63871195  0.62916456  1
  V  V27  1  0.11927592  0.37624583  0.25688615  1
  V  V28  1  0.12114515  0.86618655  0.74942021  1
  V  V29  1  0.87321283  0.87261117  0.49952695  1
  V  V30  1  0.36788464  0.01465356  0.87994889  1
  V  V31  1  0.24543105  0.62234883  0.37515410  1
  V  V32  1  -0.01175697  0.74372579  0.25100678  1
  V  V33  1  0.74443523  -0.00072298  0.24304315  1
  V  V34  1  0.75556119  0.36932859  0.10296483  1
  V  V35  1  0.12963773  0.37741868  0.75326501  1
  V  V36  1  0.12263812  -0.00121942  0.12443093  1
  V  V37  1  0.62791477  0.24258861  0.87680970  1
  V  V38  1  0.76632481  0.24791347  0.50312090  1
  V  V39  1  -0.01429821  0.49768480  -0.00550118  1
  V  V40  1  0.87985042  0.49437062  0.36701795  1
  V  V41  1  0.75784518  0.62550506  0.36512420  1
  V  V42  1  -0.00205119  0.86457422  0.87176006  1
  V  V43  1  0.25805209  0.35863304  0.62538863  1
  V  V44  1  -0.00021748  0.25291959  0.74927269  1
  V  V45  1  0.50465671  0.50175431  0.50095338  1
  V  V46  1  -0.00706483  -0.00143355  0.49892857  1
  V  V47  1  0.62941772  0.12237606  0.00390576  1
  V  V48  1  0.62764721  0.37420444  0.74691487  1
  V  V49  1  -0.00215232  0.12778567  0.12121347  1
  V  V50  1  0.38161382  0.63936811  0.74622265  1
  V  V51  1  0.49573539  0.24915124  0.74556470  1
  V  V52  1  -0.00776639  0.87551831  0.37390801  1
  V  V53  1  0.00232325  0.62697153  0.63130495  1
  V  V54  1  0.13834926  0.12656844  -0.00412239  1
  V  V55  1  0.50389148  0.12158453  0.12770585  1
  V  V56  1  0.75891297  0.11812446  0.37615119  1
  V  V57  1  -0.00766488  0.25672987  0.25081974  1
  V  V58  1  0.75468654  0.49934086  0.75871107  1
  V  V59  1  0.76088475  0.37139616  0.62696972  1
  V  V60  1  0.74988134  0.87362493  0.62923434  1
  V  V61  1  0.61714188  0.87320978  0.26537838  1
  V  V62  1  0.50405434  0.38099764  0.88296768  1
  V  V63  1  0.50423563  0.37658611  0.37446968  1
  V  V64  1  0.50139730  -0.00159681  0.00000383  1
  V  V65  1  0.24770263  0.00392307  0.25344081  1
  V  V66  1  0.12476002  0.62701089  -0.00089847  1
  V  V67  1  0.73969565  0.86755988  0.12119844  1
  V  V68  1  0.25188463  0.49959864  0.24781236  1
  V  V69  1  0.37076869  0.12852039  0.25694875  1
  V  V70  1  0.37336182  0.24878267  0.11525827  1
  V  V71  1  0.74920885  -0.00100143  0.74908781  1
  V  V72  1  0.25445089  0.62468555  0.87423194  1
  V  V73  1  -0.00556344  0.12751493  0.62455733  1
  V  V74  1  -0.01020217  0.37719582  0.87750300  1
  V  V75  1  0.74972781  0.12525963  0.87918880  1
  V  V76  1  0.62145058  0.49635005  0.11492883  1
  V  V77  1  0.37862516  0.75096897  0.12903639  1
  V  V78  1  0.87537644  -0.00284732  0.87386657  1
  V  V79  1  0.12435807  0.62323471  0.50148232  1
  V  V80  1  0.48877340  0.13060587  0.62194666  1
  V  V81  1  -0.01072731  0.62394872  0.12754553  1
  V  V82  1  -0.00037139  -0.00434859  -0.00119829  1
  V  V83  1  0.63064142  0.25131108  0.37559709  1
  V  V84  1  0.88037340  0.74902385  0.63364443  1
  Zn  Zn85  1  0.86919435  0.24681332  0.10170114  1
  Zn  Zn86  1  0.36466387  0.13302520  0.75027109  1
  Zn  Zn87  1  0.75558733  0.62810943  0.88374703  1
  Zn  Zn88  1  0.59491132  0.86020040  0.74502208  1
  Zn  Zn89  1  0.49923401  0.75280303  0.26498475  1
  Zn  Zn90  1  0.38224357  0.86903579  0.49494699  1
  Zn  Zn91  1  0.12034595  0.87413214  0.24794433  1
  Zn  Zn92  1  0.37884169  -0.00613256  0.36995452  1
  Zn  Zn93  1  0.37721672  0.38101009  -0.00032847  1
  Zn  Zn94  1  0.13588167  0.22172852  0.35479505  1
  Zn  Zn95  1  0.62185687  -0.00109223  0.62671109  1
  Zn  Zn96  1  0.12386778  0.74690923  0.87201102  1
  Zn  Zn97  1  0.37766662  0.62512945  0.25002829  1
  Zn  Zn98  1  0.75501998  0.50257402  0.24349663  1
  Zn  Zn99  1  0.86545242  0.86865771  0.00118463  1
  Zn  Zn100  1  0.50166611  0.25037024  0.24903731  1
  Zn  Zn101  1  0.26168172  0.50008112  0.74915787  1
  Zn  Zn102  1  0.38680782  0.50774056  0.87887896  1
  Zn  Zn103  1  0.14946772  0.15157022  0.49950479  1
  Zn  Zn104  1  0.86497964  0.74587823  0.12276056  1
  Zn  Zn105  1  0.88040747  0.37009458  0.49711730  1
  Zn  Zn106  1  0.25121129  0.74845990  0.00017649  1
  Zn  Zn107  1  0.18655573  0.18890001  0.18202868  1
  Zn  Zn108  1  0.18158330  0.18729469  0.68697880  1
  Zn  Zn109  1  0.18404320  0.68682811  0.18779098  1
  Zn  Zn110  1  0.19247279  0.68757019  0.68859598  1
  Zn  Zn111  1  0.68928021  0.18992193  0.18566826  1
  Zn  Zn112  1  0.68817199  0.18929676  0.68798077  1
  Zn  Zn113  1  0.67858012  0.69068849  0.19242369  1
  Zn  Zn114  1  0.69024090  0.68686339  0.69153971  1
  Zn  Zn115  1  0.31244700  0.31285818  0.30459100  1
  Zn  Zn116  1  0.31754029  0.31579077  0.81290038  1
  Zn  Zn117  1  0.31318750  0.81682470  0.31465854  1
  Zn  Zn118  1  0.31022841  0.81365142  0.81421640  1
  Zn  Zn119  1  0.81582044  0.30977434  0.31039867  1
  Zn  Zn120  1  0.81474729  0.31102155  0.92277439  1
  Zn  Zn121  1  0.80835280  0.81287303  0.31160767  1
  Zn  Zn122  1  0.80626852  0.80770013  0.81737540  1
  Zn  Zn123  1  0.19168279  0.34182770  0.44163663  1
  Zn  Zn124  1  0.18683764  0.44242995  0.93512746  1
  Zn  Zn125  1  0.20430943  0.97143153  0.45875141  1
  Zn  Zn126  1  0.18682409  0.93469041  0.93900336  1
  Zn  Zn127  1  0.69508756  0.43931696  0.43900072  1
  Zn  Zn128  1  0.67894361  0.44301036  0.93494801  1
  Zn  Zn129  1  0.69002005  0.94029804  0.43931784  1
  Zn  Zn130  1  0.68313591  0.93915300  0.93723253  1
  Zn  Zn131  1  0.31467223  0.06031387  0.07038717  1
  Zn  Zn132  1  0.31306554  0.06658829  0.56307571  1
  Zn  Zn133  1  0.31611126  0.55907518  0.05675284  1
  Zn  Zn134  1  0.31501018  0.56187054  0.56389412  1
  Zn  Zn135  1  0.81246911  0.05551682  0.06274463  1
  Zn  Zn136  1  0.81631284  0.06229390  0.56492474  1
  Zn  Zn137  1  0.80877122  0.55943013  0.06273819  1
  Zn  Zn138  1  0.81556206  0.56023247  0.56401442  1
  Zn  Zn139  1  0.43897720  0.43466844  0.18648222  1
  Zn  Zn140  1  0.43976817  0.44494746  0.69108031  1
  Zn  Zn141  1  0.43797331  0.93900927  0.18800272  1
  Zn  Zn142  1  0.43201223  0.94697643  0.68348253  1
  Zn  Zn143  1  0.93359032  0.43748925  0.18048431  1
  Zn  Zn144  1  0.93922208  0.43933796  0.68998362  1
  Zn  Zn145  1  0.93046872  0.93567489  0.18791062  1
  Zn  Zn146  1  0.93549506  0.93802952  0.69040001  1
  Zn  Zn147  1  0.05983296  0.05876410  0.31335962  1
  Zn  Zn148  1  0.06334486  0.06227617  0.81428514  1
  Zn  Zn149  1  0.06034317  0.56034124  0.31194788  1
  Zn  Zn150  1  0.06412418  0.56085672  0.81291487  1
  Zn  Zn151  1  0.56772202  0.06434046  0.31164325  1
  Zn  Zn152  1  0.54441745  0.03630186  0.79857476  1
  Zn  Zn153  1  0.56096262  0.55577648  0.30083868  1
  Zn  Zn154  1  0.56671131  0.56734002  0.81049929  1
  Zn  Zn155  1  0.44104327  0.18789020  0.43265359  1
  Zn  Zn156  1  0.44230328  0.18942483  0.93788556  1
  Zn  Zn157  1  0.41949477  0.68270134  0.44205174  1
  Zn  Zn158  1  0.44237745  0.68949937  0.94006553  1
  Zn  Zn159  1  0.96240813  0.17604761  0.42359130  1
  Zn  Zn160  1  0.94798755  0.18364026  0.93171127  1
  Zn  Zn161  1  0.93530762  0.68190023  0.44083785  1
  Zn  Zn162  1  0.93540186  0.68908732  0.94381397  1
  Zn  Zn163  1  0.06069958  0.31146504  0.05944909  1
  Zn  Zn164  1  0.06215306  0.31219614  0.56765095  1
  Zn  Zn165  1  0.05773496  0.80942075  0.06300039  1
  Zn  Zn166  1  0.06420679  0.81347484  0.56290811  1
  Zn  Zn167  1  0.56582084  0.30407505  0.06301887  1
  Zn  Zn168  1  0.56789050  0.31316532  0.56166092  1
  Zn  Zn169  1  0.56181882  0.81515288  0.06898501  1
  Zn  Zn170  1  0.56650775  0.81863380  0.56369960  1
  O  O171  1  0.11447428  0.11985955  0.11803494  1
  O  O172  1  0.11432979  0.11850274  0.61949402  1
  O  O173  1  0.11834783  0.61706937  0.11787010  1
  O  O174  1  0.12011827  0.61874262  0.62485739  1
  O  O175  1  0.61683111  0.12998288  0.11768687  1
  O  O176  1  0.62423870  0.12617615  0.61169592  1
  O  O177  1  0.62014243  0.61902105  0.11852285  1
  O  O178  1  0.61881912  0.61564073  0.63286271  1
  O  O179  1  0.38114897  0.38330960  0.38015586  1
  O  O180  1  0.39501930  0.37359951  0.87496789  1
  O  O181  1  0.37321862  0.88009712  0.38225187  1
  O  O182  1  0.36751790  0.88288387  0.88933425  1
  O  O183  1  0.86893305  0.39008234  0.37790643  1
  O  O184  1  0.89096113  0.37545063  0.86415430  1
  O  O185  1  0.88457678  0.86658436  0.38223582  1
  O  O186  1  0.88088080  0.88013663  0.87379322  1
  O  O187  1  0.24625187  -0.00992545  0.35430401  1
  O  O188  1  0.25407416  -0.00364753  0.86840677  1
  O  O189  1  0.25855113  0.50184756  0.36441376  1
  O  O190  1  0.24911616  0.51549631  0.87054530  1
  O  O191  1  0.74957527  0.01321331  0.36846607  1
  O  O192  1  0.75673865  0.00282222  0.86788843  1
  O  O193  1  0.76284651  0.50749898  0.37402283  1
  O  O194  1  0.74425133  0.50382689  0.86168631  1
  O  O195  1  0.24209822  0.49718093  0.12971816  1
  O  O196  1  0.23957722  0.49999035  0.62780424  1
  O  O197  1  0.24360880  0.99035459  0.13264886  1
  O  O198  1  0.23924439  0.99272573  0.63421670  1
  O  O199  1  0.74334440  0.48452984  0.12342614  1
  O  O200  1  0.74414047  0.49388208  0.63053779  1
  O  O201  1  0.74934568  0.99333897  0.13857114  1
  O  O202  1  0.75272433  0.98970821  0.63023268  1
  O  O203  1  0.00741286  0.36643170  0.23090898  1
  O  O204  1  0.00973383  0.36962466  0.75248643  1
  O  O205  1  -0.00147989  0.86830486  0.25798840  1
  O  O206  1  0.00828881  0.88142145  0.76015495  1
  O  O207  1  0.51504844  0.37498036  0.25558204  1
  O  O208  1  0.51169202  0.36868630  0.75314661  1
  O  O209  1  0.51262079  0.87748775  0.24962450  1
  O  O210  1  0.51259968  0.93114277  0.75600484  1
  O  O211  1  0.49459818  0.12524592  0.24280313  1
  O  O212  1  0.50054795  0.13132607  0.73820187  1
  O  O213  1  0.49987751  0.62913936  0.23646563  1
  O  O214  1  0.49094147  0.62561420  0.74378664  1
  O  O215  1  0.99185266  0.13045621  0.23888703  1
  O  O216  1  0.99690377  0.13117635  0.74325864  1
  O  O217  1  1.00539547  0.63146704  0.23932393  1
  O  O218  1  0.99470374  0.61832317  0.73928755  1
  O  O219  1  0.38028213  0.25523380  0.01165240  1
  O  O220  1  0.38230312  0.26328817  0.49655932  1
  O  O221  1  0.37447253  0.75825628  0.00823823  1
  O  O222  1  0.35451256  0.75183517  0.50162828  1
  O  O223  1  0.87937375  0.24880304  -0.01084414  1
  O  O224  1  0.86758943  0.24807612  0.49276455  1
  O  O225  1  0.88084408  0.75710764  0.01020743  1
  O  O226  1  0.86887348  0.75238293  0.51200354  1
  O  O227  1  0.12308816  0.26080051  0.48990875  1
  O  O228  1  0.12032751  0.23929179  0.99045421  1
  O  O229  1  0.13003953  0.74390852  0.49295566  1
  O  O230  1  0.12511099  0.73631199  1.00092186  1
  O  O231  1  0.63621475  0.24425970  0.49302818  1
  O  O232  1  0.62117962  0.23373971  0.99016651  1
  O  O233  1  0.63531525  0.75024348  0.49944271  1
  O  O234  1  0.62541889  0.74037102  1.00184840  1
  O  O235  1  0.49351750  0.23974111  0.12744425  1
  O  O236  1  0.50992563  0.24185207  0.63256399  1
  O  O237  1  0.48785936  0.74496347  0.12727291  1
  O  O238  1  0.50658273  0.73812575  0.61820317  1
  O  O239  1  0.99651774  0.23745662  0.12484320  1
  O  O240  1  1.00382130  0.24298079  0.63956157  1
  O  O241  1  1.00115410  0.73964724  0.13528990  1
  O  O242  1  0.99266200  0.74003964  0.62063064  1
  O  O243  1  -0.01055275  0.26177685  0.35165392  1
  O  O244  1  0.01221627  0.25727163  0.86292882  1
  O  O245  1  0.00264013  0.74925973  0.36998943  1
  O  O246  1  0.00274735  0.76199114  0.87781783  1
  O  O247  1  0.51244019  0.25873162  0.37302819  1
  O  O248  1  0.51160711  0.25547262  0.86652832  1
  O  O249  1  0.50784384  0.73062679  0.38428705  1
  O  O250  1  0.52272772  0.74777606  0.88411645  1
  O  O251  1  0.23340418  0.08066897  0.48954994  1
  O  O252  1  0.23672778  0.11888648  1.00880137  1
  O  O253  1  0.24380813  0.63149646  0.49560652  1
  O  O254  1  0.24244871  0.62635182  0.99281090  1
  O  O255  1  0.74855264  0.12823171  0.49447458  1
  O  O256  1  0.74034666  0.11393684  0.99334527  1
  O  O257  1  0.75314764  0.63482080  0.49692304  1
  O  O258  1  0.73426111  0.62114480  1.00239261  1
  O  O259  1  0.24861696  0.37992662  0.01094220  1
  O  O260  1  0.26601140  0.38404221  0.51505756  1
  O  O261  1  0.25645580  0.87264692  0.01170313  1
  O  O262  1  0.24355908  0.87178433  0.51090920  1
  O  O263  1  0.74752998  0.37506641  -0.00111110  1
  O  O264  1  0.75366601  0.36486364  0.50904132  1
  O  O265  1  0.74447211  0.88406017  0.01823803  1
  O  O266  1  0.75429502  0.86753423  0.50961092  1
  O  O267  1  0.12769743  0.49693504  0.23673738  1
  O  O268  1  0.12687862  0.48855432  0.74328494  1
  O  O269  1  0.12742827  0.99943623  0.24153825  1
  O  O270  1  0.12688998  0.99429424  0.74209276  1
  O  O271  1  0.63147983  0.49127476  0.23528455  1
  O  O272  1  0.63126626  0.49363952  0.74107120  1
  O  O273  1  0.63379553  0.99046944  0.25448092  1
  O  O274  1  0.64708014  1.01607724  0.74497195  1
  O  O275  1  0.36597717  0.00959579  0.24731120  1
  O  O276  1  0.36126751  0.00619186  0.76197201  1
  O  O277  1  0.36659530  0.49808586  0.25600268  1
  O  O278  1  0.37795928  0.51349051  0.75926739  1
  O  O279  1  0.86636002  0.01396597  0.24647383  1
  O  O280  1  0.86735404  0.00822481  0.75546428  1
  O  O281  1  0.87581266  0.49693487  0.26237423  1
  O  O282  1  0.86614930  0.50952383  0.74392828  1
  O  O283  1  0.12166713  0.38975135  0.35566949  1
  O  O284  1  0.12249694  0.37036166  0.86736466  1
  O  O285  1  0.10953997  0.85966902  0.37572105  1
  O  O286  1  0.11702238  0.87420234  0.86692876  1
  O  O287  1  0.62686245  0.37288652  0.36699816  1
  O  O288  1  0.61951606  0.36679224  0.86730751  1
  O  O289  1  0.62971247  0.87763219  0.36443883  1
  O  O290  1  0.63026058  0.86335171  0.86988814  1
  O  O291  1  0.38150316  0.13287250  0.13245714  1
  O  O292  1  0.38472448  0.12593423  0.62735681  1
  O  O293  1  0.38054093  0.63199324  0.12526270  1
  O  O294  1  0.38537104  0.62224613  0.63752101  1
  O  O295  1  0.88181412  0.12525172  0.12673671  1
  O  O296  1  0.88173496  0.12241044  0.63891382  1
  O  O297  1  0.88570813  0.62186977  0.12403155  1
  O  O298  1  0.88383867  0.63030791  0.63234964  1
  O  O299  1  0.25888289  0.26060575  0.12849604  1
  O  O300  1  0.24846347  0.25908356  0.62707291  1
  O  O301  1  0.25923813  0.75472715  0.12591910  1
  O  O302  1  0.23888730  0.76293170  0.61569323  1
  O  O303  1  0.74779931  0.26636952  0.12059116  1
  O  O304  1  0.74698966  0.25905685  0.61610040  1
  O  O305  1  0.74680254  0.76363180  0.13308666  1
  O  O306  1  0.75660033  0.75519117  0.62011265  1
  O  O307  1  0.23801591  0.26448969  0.36961909  1
  O  O308  1  0.23883135  0.25478117  0.86932129  1
  O  O309  1  0.23827209  0.74502794  0.37928208  1
  O  O310  1  0.24607753  0.73921116  0.87787388  1
  O  O311  1  0.74795989  0.24031580  0.38069013  1
  O  O312  1  0.73589184  0.24240307  0.86994422  1
  O  O313  1  0.75749103  0.73864024  0.38497465  1
  O  O314  1  0.73341154  0.74265464  0.87514363  1
  O  O315  1  0.00679045  0.11131337  0.00505115  1
  O  O316  1  -0.01748067  0.11358357  0.51753122  1
  O  O317  1  0.00774602  0.61694877  0.00559129  1
  O  O318  1  0.00406836  0.61656966  0.51274359  1
  O  O319  1  0.50616862  0.11992724  0.00880457  1
  O  O320  1  0.50938619  0.12422171  0.50409650  1
  O  O321  1  0.51203907  0.62872948  0.01414066  1
  O  O322  1  0.50805743  0.62261506  0.50210966  1
  O  O323  1  0.49710198  0.38190632  0.49490642  1
  O  O324  1  0.50794900  0.36859841  0.98461328  1
  O  O325  1  0.50180073  0.89269477  0.50647929  1
  O  O326  1  0.48968302  0.88610817  1.01153385  1
  O  O327  1  0.99784448  0.38934298  0.50932438  1
  O  O328  1  1.00596287  0.38557733  0.99014155  1
  O  O329  1  0.99192004  0.87674288  0.49447678  1
  O  O330  1  1.00370605  0.88552559  0.99238842  1
  O  O331  1  0.49342985  0.49577974  0.37837758  1
  O  O332  1  0.51055528  0.48318687  0.86966652  1
  O  O333  1  0.50249380  1.01015216  0.39021599  1
  O  O334  1  0.48400446  1.00812652  0.89443712  1
  O  O335  1  0.98767791  0.50593469  0.38378152  1
  O  O336  1  1.00888513  0.49010615  0.88428592  1
  O  O337  1  1.00092322  0.98614852  0.38623082  1
  O  O338  1  0.99474284  0.99325838  0.88187732  1
  O  O339  1  0.00160428  0.00522452  0.11805699  1
  O  O340  1  0.00351021  0.00773273  0.62493274  1
  O  O341  1  0.00578152  0.50520086  0.11662860  1
  O  O342  1  0.01056056  0.50556096  0.62105964  1
  O  O343  1  0.49120862  0.01414002  0.11530175  1
  O  O344  1  0.50339250  0.01586317  0.61039481  1
  O  O345  1  0.50848625  0.50721244  0.13041017  1
  O  O346  1  0.50957007  0.50928288  0.61882765  1
  O  O347  1  0.24118742  0.38724859  0.23754705  1
  O  O348  1  0.24700229  0.37873936  0.74358368  1
  O  O349  1  0.24523479  0.87828648  0.23733771  1
  O  O350  1  0.24180069  0.88348956  0.74515019  1
  O  O351  1  0.74100952  0.37517580  0.24541901  1
  O  O352  1  0.73772493  0.38198460  0.74222858  1
  O  O353  1  0.74140694  0.88246377  0.24707139  1
  O  O354  1  0.75692239  0.88297463  0.73960848  1
  O  O355  1  0.25729820  0.11711341  0.24126369  1
  O  O356  1  0.24583582  0.11224540  0.74478555  1
  O  O357  1  0.24749294  0.61251368  0.25415136  1
  O  O358  1  0.26318446  0.62542340  0.75496578  1
  O  O359  1  0.75413850  0.11937495  0.25464433  1
  O  O360  1  0.75969597  0.12288738  0.75601975  1
  O  O361  1  0.74533581  0.62403384  0.26127669  1
  O  O362  1  0.76087878  0.61557885  0.74995026  1
  O  O363  1  0.37913841  0.12334241  0.35974154  1
  O  O364  1  0.37252402  0.11810865  0.87677856  1
  O  O365  1  0.36463878  0.61165525  0.37143494  1
  O  O366  1  0.37189188  0.62958534  0.86749023  1
  O  O367  1  0.86954473  0.12993778  0.36286758  1
  O  O368  1  0.87293380  0.11407321  0.86835024  1
  O  O369  1  0.86712744  0.61135062  0.37930462  1
  O  O370  1  0.87752273  0.63019841  0.86245307  1
  O  O371  1  0.13080459  0.38250868  0.12632301  1
  O  O372  1  0.13555937  0.38157880  0.63274775  1
  O  O373  1  0.13133508  0.87924968  0.12410825  1
  O  O374  1  0.12712837  0.88293313  0.63419749  1
  O  O375  1  0.63274919  0.37809021  0.12620748  1
  O  O376  1  0.63199386  0.38250179  0.63174088  1
  O  O377  1  0.63523605  0.87561884  0.13736761  1
  O  O378  1  0.63570210  0.87842220  0.63281860  1
  O  O379  1  0.11233710  0.25796427  0.24350949  1
  O  O380  1  0.12032320  0.26039903  0.75486832  1
  O  O381  1  0.11540751  0.75105728  0.25815128  1
  O  O382  1  0.12734752  0.76290606  0.74981003  1
  O  O383  1  0.62646205  0.25703453  0.25754749  1
  O  O384  1  0.61839744  0.25655844  0.75495506  1
  O  O385  1  0.61858127  0.76654716  0.25375764  1
  O  O386  1  0.62245134  0.74977433  0.76087816  1
  O  O387  1  0.37944847  0.24453072  0.23928146  1
  O  O388  1  0.39109673  0.24881358  0.75436094  1
  O  O389  1  0.37836450  0.74742866  0.24417435  1
  O  O390  1  0.37385492  0.73926142  0.75181251  1
  O  O391  1  0.87654717  0.23983280  0.23770182  1
  O  O392  1  0.88665653  0.23769845  0.75914982  1
  O  O393  1  0.88555622  0.75083203  0.24725042  1
  O  O394  1  0.86979728  0.74180270  0.73892012  1
  O  O395  1  0.38388475  0.49746172  0.49203999  1
  O  O396  1  0.37745237  0.49479137  0.99135047  1
  O  O397  1  0.39192898  1.00392668  0.49748287  1
  O  O398  1  0.37618612  0.99449271  0.99664206  1
  O  O399  1  0.88378146  0.49805820  0.49311237  1
  O  O400  1  0.88631963  0.50385138  0.99824087  1
  O  O401  1  0.88470918  0.98818475  0.50724027  1
  O  O402  1  0.88342823  0.99319838  0.99256068  1
  O  O403  1  0.11802364  0.00458784  0.00457131  1
  O  O404  1  0.10376312  -0.01279999  0.51761355  1
  O  O405  1  0.12177606  0.50953798  0.00879554  1
  O  O406  1  0.11671609  0.50813969  0.51014422  1
  O  O407  1  0.61314006  0.01017509  -0.00433114  1
  O  O408  1  0.61896043  0.00933023  0.50182279  1
  O  O409  1  0.62401418  0.50934845  0.01100314  1
  O  O410  1  0.62242029  0.49379481  0.51274217  1
  O  O411  1  0.36721264  0.36729445  0.12483030  1
  O  O412  1  0.36996414  0.38142421  0.61954443  1
  O  O413  1  0.36753929  0.86852263  0.12079332  1
  O  O414  1  0.36156009  0.88284134  0.61987060  1
  O  O415  1  0.85737153  0.37367787  0.12062220  1
  O  O416  1  0.86347018  0.37852654  0.62484366  1
  O  O417  1  0.85531705  0.87459730  0.12769474  1
  O  O418  1  0.87092697  0.86575797  0.62227288  1
  O  O419  1  0.07996513  0.13322669  0.39523065  1
  O  O420  1  0.12072632  0.13454690  0.88373214  1
  O  O421  1  0.12699414  0.63177546  0.38019404  1
  O  O422  1  0.13143006  0.62643923  0.88152545  1
  O  O423  1  0.63513283  0.13131552  0.38501866  1
  O  O424  1  0.62879148  0.12882271  0.88132058  1
  O  O425  1  0.63377781  0.61361186  0.37657977  1
  O  O426  1  0.62524326  0.62830383  0.89026611  1
