# generated using pymatgen
data_V85Zn86O256
_symmetry_space_group_name_H-M   'P 1'
_cell_length_a   16.97224637
_cell_length_b   16.95982114
_cell_length_c   16.94832572
_cell_angle_alpha   90.17141651
_cell_angle_beta   90.01926437
_cell_angle_gamma   90.04926078
_symmetry_Int_Tables_number   1
_chemical_formula_structural   V85Zn86O256
_chemical_formula_sum   'V85 Zn86 O256'
_cell_volume   4878.48830229
_cell_formula_units_Z   1
loop_
 _symmetry_equiv_pos_site_id
 _symmetry_equiv_pos_as_xyz
  1  'x, y, z'
loop_
 _atom_site_type_symbol
 _atom_site_label
 _atom_site_symmetry_multiplicity
 _atom_site_fract_x
 _atom_site_fract_y
 _atom_site_fract_z
 _atom_site_occupancy
  V  V0  1  0.86977237  0.12672725  0.25717870  1
  V  V1  1  -0.00549548  0.36549894  0.87039068  1
  V  V2  1  0.87017853  0.51256852  0.37808510  1
  V  V3  1  0.50417685  0.62696846  0.62309903  1
  V  V4  1  0.37890645  0.50036322  0.37146682  1
  V  V5  1  0.75467885  0.37495155  0.62480166  1
  V  V6  1  0.37776334  0.12932770  0.74794677  1
  V  V7  1  0.74667000  -0.00397613  0.25614193  1
  V  V8  1  -0.01155897  0.37502688  0.37719890  1
  V  V9  1  0.23594524  -0.00027272  0.25207615  1
  V  V10  1  0.49853530  0.12579933  0.13054048  1
  V  V11  1  0.87276565  0.25111472  0.12747925  1
  V  V12  1  0.37502120  0.62112549  0.75049413  1
  V  V13  1  0.88098370  0.63629415  0.24226612  1
  V  V14  1  0.37271269  0.12411498  0.24954380  1
  V  V15  1  0.50010342  -0.00164562  -0.00359144  1
  V  V16  1  0.62265062  0.88169080  0.74868719  1
  V  V17  1  0.87423754  0.88622130  -0.00185079  1
  V  V18  1  0.61874482  0.25005290  0.87005767  1
  V  V19  1  0.25512723  0.25406018  0.49996898  1
  V  V20  1  0.25039291  0.74699458  0.50007197  1
  V  V21  1  0.74962570  0.88213686  0.62623304  1
  V  V22  1  0.06600130  0.81536105  0.20824307  1
  V  V23  1  0.24303672  0.24979857  -0.00481515  1
  V  V24  1  0.75423258  0.74718216  0.50107046  1
  V  V25  1  0.79639149  0.69553513  -0.05301045  1
  V  V26  1  0.24627654  0.87710638  0.12869406  1
  V  V27  1  0.37519063  0.00109510  0.87047372  1
  V  V28  1  0.87279459  0.00163524  0.38010345  1
  V  V29  1  0.75408273  0.24747619  0.49947072  1
  V  V30  1  0.62061736  0.25390761  0.37700360  1
  V  V31  1  0.88914351  0.25376269  0.62518436  1
  V  V32  1  0.75877916  0.51276281  0.76274248  1
  V  V33  1  0.63003230  0.12004868  0.49103541  1
  V  V34  1  0.13020005  0.87420405  0.74274621  1
  V  V35  1  0.25185724  0.62009007  0.86938907  1
  V  V36  1  0.74510712  0.37491996  0.13312369  1
  V  V37  1  0.12389316  0.62158306  0.00276733  1
  V  V38  1  -0.00618969  0.50134105  -0.00422993  1
  V  V39  1  0.11805580  0.49979512  0.12469445  1
  V  V40  1  0.37248673  0.88027130  -0.00553033  1
  V  V41  1  0.50893944  0.12407231  0.62547063  1
  V  V42  1  0.12394530  0.25347870  0.37416755  1
  V  V43  1  0.50090824  0.75387214  0.75822744  1
  V  V44  1  0.62551903  0.76506640  0.36937181  1
  V  V45  1  -0.00463205  0.11828681  0.12180371  1
  V  V46  1  -0.00001501  0.49612923  0.50409552  1
  V  V47  1  0.12876413  0.61724382  0.50492390  1
  V  V48  1  0.74852565  0.86738786  0.12364274  1
  V  V49  1  0.89189936  0.13064275  0.74463218  1
  V  V50  1  0.62420547  0.50382135  0.12980877  1
  V  V51  1  0.12727412  0.75162256  0.86756892  1
  V  V52  1  0.50471673  -0.00604138  0.50115474  1
  V  V53  1  0.88117481  0.00629265  0.87554108  1
  V  V54  1  -0.00446001  0.62146957  0.63329191  1
  V  V55  1  0.11888021  0.11882749  -0.00226205  1
  V  V56  1  0.62210091  0.37502306  0.74904050  1
  V  V57  1  0.87067748  0.37944063  -0.00066432  1
  V  V58  1  -0.00014067  0.00234983  0.50970012  1
  V  V59  1  0.63035283  0.62666322  0.48812061  1
  V  V60  1  0.74864727  0.12783755  0.86836432  1
  V  V61  1  0.12564472  0.74668116  0.37844074  1
  V  V62  1  0.62247758  0.75945913  0.88319782  1
  V  V63  1  0.13553482  -0.00347997  0.62192948  1
  V  V64  1  0.37268014  0.87459986  0.49905571  1
  V  V65  1  0.24949542  0.50574446  0.25464289  1
  V  V66  1  0.37439950  0.25042289  0.12438563  1
  V  V67  1  0.62473178  -0.00318854  0.13103371  1
  V  V68  1  0.24910310  0.12536092  0.37506724  1
  V  V69  1  0.62817920  0.50312721  0.62655218  1
  V  V70  1  0.37915172  -0.00625194  0.37301218  1
  V  V71  1  0.12231160  0.12744790  0.50814911  1
  V  V72  1  0.25304049  0.39098968  0.62905583  1
  V  V73  1  0.37846283  0.50286817  0.87276401  1
  V  V74  1  0.50128338  0.49928851  0.00113584  1
  V  V75  1  0.37224187  0.37557658  -0.00245546  1
  V  V76  1  0.49955475  0.37329443  0.87012959  1
  V  V77  1  0.62400836  0.12638358  -0.00088417  1
  V  V78  1  0.00351131  0.87199463  0.37960614  1
  V  V79  1  0.24950488  0.75064034  -0.00053947  1
  V  V80  1  0.50504029  0.49301233  0.49186873  1
  V  V81  1  0.38131108  0.25212882  0.62618915  1
  V  V82  1  0.62625144  0.62792954  -0.00315283  1
  V  V83  1  0.37325988  0.75626185  0.62519388  1
  V  V84  1  0.24572121  0.37614071  0.12170970  1
  Zn  Zn85  1  -0.00564529  0.75093829  0.75074999  1
  Zn  Zn86  1  0.86985003  0.74518527  0.63924295  1
  Zn  Zn87  1  0.37408673  0.74966985  0.13160303  1
  Zn  Zn88  1  0.24692959  0.12672406  0.86958369  1
  Zn  Zn89  1  0.48987006  0.76216330  0.26687159  1
  Zn  Zn90  1  0.87752673  0.87199435  0.50671692  1
  Zn  Zn91  1  0.11237278  0.24359645  0.86194769  1
  Zn  Zn92  1  0.49663177  0.63187462  0.13056678  1
  Zn  Zn93  1  0.12433001  0.37752735  0.74050518  1
  Zn  Zn94  1  0.74662340  0.25154617  0.00000296  1
  Zn  Zn95  1  0.74696210  0.50732181  0.25988507  1
  Zn  Zn96  1  0.38425710  0.37210338  0.49234274  1
  Zn  Zn97  1  0.37444583  0.63117906  0.25319218  1
  Zn  Zn98  1  0.11615659  -0.00265325  0.12344151  1
  Zn  Zn99  1  0.49477203  0.25490986  0.25984813  1
  Zn  Zn100  1  0.00242292  0.88312449  0.87381141  1
  Zn  Zn101  1  0.25534038  -0.00356641  0.74334012  1
  Zn  Zn102  1  -0.00167764  0.25111675  0.25130387  1
  Zn  Zn103  1  0.12218975  0.37707492  0.25157223  1
  Zn  Zn104  1  0.88759601  0.75440005  0.12803110  1
  Zn  Zn105  1  0.61449531  0.38640348  0.26305147  1
  Zn  Zn106  1  0.74711044  0.00414565  0.74569453  1
  Zn  Zn107  1  0.18420568  0.18711408  0.18536135  1
  Zn  Zn108  1  0.19080100  0.19329788  0.68821699  1
  Zn  Zn109  1  0.19361738  0.68229751  0.18366182  1
  Zn  Zn110  1  0.18780614  0.68331998  0.68306167  1
  Zn  Zn111  1  0.68792274  0.18308030  0.19323646  1
  Zn  Zn112  1  0.68846795  0.19168701  0.68636729  1
  Zn  Zn113  1  0.69234902  0.68274900  0.19312648  1
  Zn  Zn114  1  0.68813087  0.69257956  0.68894182  1
  Zn  Zn115  1  0.31373961  0.31986860  0.31087230  1
  Zn  Zn116  1  0.31072989  0.31050710  0.80888367  1
  Zn  Zn117  1  0.30529626  0.81356199  0.31419229  1
  Zn  Zn118  1  0.31132788  0.81280412  0.81101931  1
  Zn  Zn119  1  0.80701191  0.31487231  0.31535148  1
  Zn  Zn120  1  0.81040836  0.31486683  0.81026308  1
  Zn  Zn121  1  0.81170480  0.81374199  0.31662491  1
  Zn  Zn122  1  0.81532016  0.81866069  0.80650407  1
  Zn  Zn123  1  0.18923824  0.43636829  0.43702362  1
  Zn  Zn124  1  0.17084917  0.44872740  0.90516024  1
  Zn  Zn125  1  0.18909805  0.93266390  0.43906037  1
  Zn  Zn126  1  0.18896257  0.94165589  0.93327727  1
  Zn  Zn127  1  0.69161086  0.43399883  0.44351465  1
  Zn  Zn128  1  0.68870355  0.43785655  0.93944171  1
  Zn  Zn129  1  0.69266874  0.93752357  0.44371555  1
  Zn  Zn130  1  0.69216858  0.93968442  0.93653487  1
  Zn  Zn131  1  0.30674489  0.06338853  0.06181194  1
  Zn  Zn132  1  0.31514332  0.06592740  0.56067961  1
  Zn  Zn133  1  0.31236352  0.56308723  0.06506525  1
  Zn  Zn134  1  0.32004632  0.56785457  0.55399467  1
  Zn  Zn135  1  0.80744776  0.06338077  0.06180745  1
  Zn  Zn136  1  0.81354479  0.06486811  0.56685462  1
  Zn  Zn137  1  0.81547090  0.56105280  0.07672667  1
  Zn  Zn138  1  0.81433181  0.56049692  0.56417607  1
  Zn  Zn139  1  0.43842304  0.43562044  0.18973943  1
  Zn  Zn140  1  0.43900785  0.43827321  0.68264960  1
  Zn  Zn141  1  0.43110165  0.93514762  0.18448533  1
  Zn  Zn142  1  0.44148608  0.93731271  0.68472175  1
  Zn  Zn143  1  0.93706483  0.43917331  0.19322100  1
  Zn  Zn144  1  0.93425487  0.44166877  0.68955393  1
  Zn  Zn145  1  0.92847664  0.94072956  0.18809410  1
  Zn  Zn146  1  0.93931186  0.93677468  0.68978698  1
  Zn  Zn147  1  0.05542527  0.06672040  0.31839116  1
  Zn  Zn148  1  0.06531466  0.06178325  0.80837720  1
  Zn  Zn149  1  0.06034034  0.56432849  0.31469022  1
  Zn  Zn150  1  0.06413521  0.55271973  0.81121572  1
  Zn  Zn151  1  0.55812757  -0.06103487  0.30958625  1
  Zn  Zn152  1  0.55760415  0.06326452  0.81177497  1
  Zn  Zn153  1  0.55651160  0.57360930  0.30991716  1
  Zn  Zn154  1  0.56909543  0.56574038  0.81452734  1
  Zn  Zn155  1  0.44042918  0.18067247  0.43867993  1
  Zn  Zn156  1  0.43674849  0.18698087  0.93796448  1
  Zn  Zn157  1  0.44147785  0.68361032  0.43459995  1
  Zn  Zn158  1  0.45312274  0.70485836  0.96493007  1
  Zn  Zn159  1  0.93842719  0.18697326  0.44236149  1
  Zn  Zn160  1  0.93228048  0.18913868  0.94188555  1
  Zn  Zn161  1  0.94082184  0.68580474  0.44181482  1
  Zn  Zn162  1  0.95398694  0.68879534  0.93853560  1
  Zn  Zn163  1  0.05887317  0.31036750  0.05901070  1
  Zn  Zn164  1  0.06969150  0.31947330  0.56196785  1
  Zn  Zn165  1  0.06257838  0.81844077  0.04342953  1
  Zn  Zn166  1  0.06090027  0.80929280  0.56531712  1
  Zn  Zn167  1  0.56211404  0.31364135  0.06442615  1
  Zn  Zn168  1  0.56638837  0.31039096  0.56399459  1
  Zn  Zn169  1  0.56063395  0.81697861  0.06824230  1
  Zn  Zn170  1  0.56391462  0.81264369  0.56275065  1
  O  O171  1  0.11183912  0.12485909  0.11906868  1
  O  O172  1  0.13246027  0.12062550  0.61239195  1
  O  O173  1  0.13280269  0.61546004  0.11085728  1
  O  O174  1  0.11605043  0.62564474  0.61244683  1
  O  O175  1  0.61822455  0.11698262  0.12166828  1
  O  O176  1  0.61224124  0.13298246  0.61977648  1
  O  O177  1  0.62356818  0.61966794  0.11647637  1
  O  O178  1  0.61532932  0.62575922  0.62022367  1
  O  O179  1  0.37577348  0.38983579  0.37700339  1
  O  O180  1  0.37963894  0.38067563  0.87806210  1
  O  O181  1  0.36897456  0.88675392  0.38247113  1
  O  O182  1  0.36724614  0.88436131  0.88581555  1
  O  O183  1  0.88545260  0.38127911  0.37263455  1
  O  O184  1  0.87919619  0.36930705  0.88840564  1
  O  O185  1  0.88416088  0.88585340  0.37943130  1
  O  O186  1  0.87083259  0.89100152  0.88054631  1
  O  O187  1  0.25375291  0.00383877  0.36866718  1
  O  O188  1  0.26370667  0.00635790  0.87269102  1
  O  O189  1  0.25768467  0.49280570  0.36324925  1
  O  O190  1  0.26489719  0.51587917  0.88973537  1
  O  O191  1  0.76108907  -0.00501158  0.36990015  1
  O  O192  1  0.75857349  0.01215725  0.86998659  1
  O  O193  1  0.76714980  0.49232151  0.37913104  1
  O  O194  1  0.74315787  0.49823288  0.86182430  1
  O  O195  1  0.23856748  0.49173320  0.12641937  1
  O  O196  1  0.26342227  0.48864258  0.61576556  1
  O  O197  1  0.24253703  0.99380757  0.13274116  1
  O  O198  1  0.23931501  1.00188273  0.61955898  1
  O  O199  1  0.73751281  0.49274852  0.12834677  1
  O  O200  1  0.74527935  0.49192768  0.62917275  1
  O  O201  1  0.74118213  0.99648786  0.13285329  1
  O  O202  1  0.75153896  0.98732099  0.62601503  1
  O  O203  1  0.00284024  0.37125994  0.26096056  1
  O  O204  1  -0.00339793  0.38325918  0.76905246  1
  O  O205  1  0.00153932  0.88168791  0.25936629  1
  O  O206  1  0.01458817  0.87509152  0.75404981  1
  O  O207  1  0.50750299  0.36334722  0.23668573  1
  O  O208  1  0.51303684  0.38186681  0.75410437  1
  O  O209  1  0.50413365  0.87145231  0.23767184  1
  O  O210  1  0.50573546  0.86132674  0.74448862  1
  O  O211  1  0.49133356  0.13230941  0.23541792  1
  O  O212  1  0.48916688  0.11906215  0.73843529  1
  O  O213  1  0.49654514  0.64429017  0.24671827  1
  O  O214  1  0.49740907  0.63580397  0.74464411  1
  O  O215  1  0.98605071  0.12855131  0.24499769  1
  O  O216  1  0.98982146  0.12975566  0.75055991  1
  O  O217  1  0.98064938  0.61978724  0.25523542  1
  O  O218  1  1.01130065  0.61924010  0.73571539  1
  O  O219  1  0.36604955  0.25572191  0.00440825  1
  O  O220  1  0.37001492  0.24986152  0.50195708  1
  O  O221  1  0.35656935  0.76324128  -0.01061503  1
  O  O222  1  0.37172028  0.75395134  0.50403661  1
  O  O223  1  0.86761919  0.25807558  0.01201167  1
  O  O224  1  0.86829042  0.24068854  0.51635322  1
  O  O225  1  0.86827444  0.75552682  -0.00090571  1
  O  O226  1  0.86280055  0.74877699  0.50071758  1
  O  O227  1  0.13263517  0.24479829  0.49318150  1
  O  O228  1  0.13081880  0.23769676  1.00154126  1
  O  O229  1  0.13341676  0.74411767  0.49742143  1
  O  O230  1  0.13412614  0.74428652  0.99113912  1
  O  O231  1  0.63279572  0.24458620  0.49482436  1
  O  O232  1  0.62588026  0.24360071  0.99246110  1
  O  O233  1  0.63405644  0.74483454  0.49552913  1
  O  O234  1  0.62202893  0.74396721  0.99289108  1
  O  O235  1  0.49032541  0.23939487  0.11616352  1
  O  O236  1  0.48864780  0.24159140  0.61558858  1
  O  O237  1  0.48191243  0.74109500  0.08451180  1
  O  O238  1  0.49469781  0.74259313  0.63144162  1
  O  O239  1  0.98560544  0.24425177  0.12844270  1
  O  O240  1  0.98785848  0.25955289  0.61840840  1
  O  O241  1  1.00889809  0.76633731  0.13442729  1
  O  O242  1  0.99841088  0.73398675  0.62596870  1
  O  O243  1  0.00641672  0.25789003  0.37865677  1
  O  O244  1  -0.00870642  0.26085432  0.87515036  1
  O  O245  1  0.00617458  0.76363936  0.38328891  1
  O  O246  1  0.01803295  0.75217750  0.87248736  1
  O  O247  1  0.51624959  0.24505461  0.37931042  1
  O  O248  1  0.51104984  0.25573763  0.87989849  1
  O  O249  1  0.52005420  0.75181940  0.38382998  1
  O  O250  1  0.50838984  0.74832088  0.86990710  1
  O  O251  1  0.24610829  0.13633091  0.49351834  1
  O  O252  1  0.24065268  0.13446155  0.99937860  1
  O  O253  1  0.24105045  0.63260602  0.50189789  1
  O  O254  1  0.24595138  0.63477663  0.99316583  1
  O  O255  1  0.73970540  0.13394411  0.51343293  1
  O  O256  1  0.74161095  0.12676169  0.98713323  1
  O  O257  1  0.74025598  0.63364211  0.51043911  1
  O  O258  1  0.74401262  0.63023066  1.00977478  1
  O  O259  1  0.25069748  0.36848519  0.00878430  1
  O  O260  1  0.25382967  0.36408903  0.50527424  1
  O  O261  1  0.24918088  0.87224874  0.00837653  1
  O  O262  1  0.26464409  0.86745492  0.50067005  1
  O  O263  1  0.75625640  0.37547402  0.01208342  1
  O  O264  1  0.74740915  0.36600388  0.51765159  1
  O  O265  1  0.76141809  0.88264462  0.01017406  1
  O  O266  1  0.75288884  0.86711486  0.51071449  1
  O  O267  1  0.12996748  0.50048902  0.24229807  1
  O  O268  1  0.14151010  0.47610693  0.79444736  1
  O  O269  1  0.13383885  1.00906039  0.25177468  1
  O  O270  1  0.12901402  0.99503924  0.73861297  1
  O  O271  1  0.62612932  0.50447777  0.24403399  1
  O  O272  1  0.62932009  0.49423959  0.74328183  1
  O  O273  1  0.63326960  1.00216852  0.24286447  1
  O  O274  1  0.62114580  0.98503752  0.75699065  1
  O  O275  1  0.36603707  0.00500088  0.25691356  1
  O  O276  1  0.37627728  0.00329841  0.75557568  1
  O  O277  1  0.36704805  0.49938121  0.25462965  1
  O  O278  1  0.38487964  0.51505902  0.75344117  1
  O  O279  1  0.86844103  0.00748711  0.26058864  1
  O  O280  1  0.87364747  0.01705668  0.75271680  1
  O  O281  1  0.87330697  0.50576263  0.26336480  1
  O  O282  1  0.85771019  0.49947147  0.75020576  1
  O  O283  1  0.11745208  0.36649792  0.37470926  1
  O  O284  1  0.09767794  0.35985982  0.89843090  1
  O  O285  1  0.11738630  0.86288577  0.37864127  1
  O  O286  1  0.12573497  0.86786621  0.86943748  1
  O  O287  1  0.63028955  0.35955825  0.37860508  1
  O  O288  1  0.62084525  0.36835758  0.86961146  1
  O  O289  1  0.62543016  0.86971639  0.37702885  1
  O  O290  1  0.62943943  0.86609079  0.87012417  1
  O  O291  1  0.37962198  0.12811458  0.12783492  1
  O  O292  1  0.38373274  0.13216558  0.62808139  1
  O  O293  1  0.37548634  0.62849494  0.12964094  1
  O  O294  1  0.38656055  0.63350482  0.62944340  1
  O  O295  1  0.87651823  0.13264946  0.13041872  1
  O  O296  1  0.87477640  0.13571139  0.63801876  1
  O  O297  1  0.87993188  0.63550986  0.13513567  1
  O  O298  1  0.89198388  0.62518201  0.62103995  1
  O  O299  1  0.25286524  0.25608555  0.11702052  1
  O  O300  1  0.26509233  0.25309783  0.61433050  1
  O  O301  1  0.24863579  0.75973202  0.11533534  1
  O  O302  1  0.26129203  0.74350936  0.61319810  1
  O  O303  1  0.75558484  0.25595180  0.12722118  1
  O  O304  1  0.75699139  0.25766926  0.61964332  1
  O  O305  1  0.74610894  0.76640560  0.13123262  1
  O  O306  1  0.75093607  0.75924321  0.61841663  1
  O  O307  1  0.24391077  0.24859648  0.38047579  1
  O  O308  1  0.25072138  0.25031763  0.88784336  1
  O  O309  1  0.24007075  0.75470751  0.38965176  1
  O  O310  1  0.24199308  0.74261852  0.87864476  1
  O  O311  1  0.74681446  0.25447128  0.39355672  1
  O  O312  1  0.73861060  0.24506104  0.87568418  1
  O  O313  1  0.73811947  0.75882446  0.38829211  1
  O  O314  1  0.74258571  0.75356034  0.88045989  1
  O  O315  1  0.00513763  0.13093433  0.00973635  1
  O  O316  1  0.01201286  0.11564886  0.49575700  1
  O  O317  1  0.01186500  0.61534646  0.00068195  1
  O  O318  1  0.00808906  0.61533238  0.50829940  1
  O  O319  1  0.50282755  0.11592046  0.00798303  1
  O  O320  1  0.50887210  0.11525713  0.50585997  1
  O  O321  1  0.50956231  0.60882875  -0.00308636  1
  O  O322  1  0.50999820  0.61831703  0.50760673  1
  O  O323  1  0.50600180  0.39023021  0.50633629  1
  O  O324  1  0.49638800  0.38473466  0.99353105  1
  O  O325  1  0.48737459  0.88183476  0.50750962  1
  O  O326  1  0.48725341  0.89148470  1.00430866  1
  O  O327  1  1.00696166  0.38862198  0.49341401  1
  O  O328  1  0.98437929  0.37950816  0.99966684  1
  O  O329  1  0.99868456  0.88282095  0.49551509  1
  O  O330  1  0.98141935  0.87452498  0.99136360  1
  O  O331  1  0.49772090  0.50345635  0.38212980  1
  O  O332  1  0.49733096  0.49510860  0.88130828  1
  O  O333  1  0.48976875  0.99856568  0.38582400  1
  O  O334  1  0.48651861  1.00570864  0.88417147  1
  O  O335  1  0.99071721  0.49374039  0.38151049  1
  O  O336  1  0.99679252  0.48995148  0.89183702  1
  O  O337  1  0.99641435  0.99108371  0.38593410  1
  O  O338  1  0.98541289  1.00457884  0.86982218  1
  O  O339  1  -0.00292654  0.01395305  0.13005935  1
  O  O340  1  0.01023336  -0.00281507  0.61367117  1
  O  O341  1  0.01340726  0.49068933  0.11764741  1
  O  O342  1  -0.00357471  0.50695367  0.61700189  1
  O  O343  1  0.50531352  0.00827470  0.11903775  1
  O  O344  1  0.49381738  0.00983192  0.61089510  1
  O  O345  1  0.51076905  0.50085849  0.11745112  1
  O  O346  1  0.50778381  0.51040210  0.61858318  1
  O  O347  1  0.24619797  0.38225108  0.23558735  1
  O  O348  1  0.26383697  0.37790964  0.73003215  1
  O  O349  1  0.25078728  0.88481473  0.23690769  1
  O  O350  1  0.23682858  0.87756206  0.75267900  1
  O  O351  1  0.74266820  0.37927302  0.24186707  1
  O  O352  1  0.73992229  0.38162395  0.74289955  1
  O  O353  1  0.75941719  0.88975681  0.24111019  1
  O  O354  1  0.74005002  0.87973485  0.74366681  1
  O  O355  1  0.25358484  0.11834478  0.25425186  1
  O  O356  1  0.26531947  0.12062810  0.74714336  1
  O  O357  1  0.25131380  0.60902964  0.24751117  1
  O  O358  1  0.26051298  0.63066226  0.75841063  1
  O  O359  1  0.76282707  0.11272289  0.24683274  1
  O  O360  1  0.74960046  0.12472792  0.75863607  1
  O  O361  1  0.76988157  0.61991472  0.24726429  1
  O  O362  1  0.74148358  0.61102978  0.74643049  1
  O  O363  1  0.36837948  0.11396267  0.37195521  1
  O  O364  1  0.37554661  0.12066786  0.86466576  1
  O  O365  1  0.37795967  0.60896878  0.37368012  1
  O  O366  1  0.37009790  0.62449290  0.86641190  1
  O  O367  1  0.88244013  0.11305407  0.36952664  1
  O  O368  1  0.86717497  0.12680794  0.86440452  1
  O  O369  1  0.87722036  0.61513165  0.37224911  1
  O  O370  1  0.85790524  0.63771921  0.89632747  1
  O  O371  1  0.13026941  0.37949004  0.12489396  1
  O  O372  1  0.14721882  0.37755360  0.62273388  1
  O  O373  1  0.12494698  0.87456347  0.13103862  1
  O  O374  1  0.12315655  0.88354670  0.62977007  1
  O  O375  1  0.63297927  0.38417765  0.12241224  1
  O  O376  1  0.63181065  0.37919645  0.63341805  1
  O  O377  1  0.63257726  0.89000669  0.11648020  1
  O  O378  1  0.63390733  0.86739079  0.63736786  1
  O  O379  1  0.12350414  0.24798299  0.26421803  1
  O  O380  1  0.13594979  0.26379045  0.75325076  1
  O  O381  1  0.12987569  0.74688691  0.25818462  1
  O  O382  1  0.12564797  0.75543531  0.75345171  1
  O  O383  1  0.63026924  0.24330312  0.27188503  1
  O  O384  1  0.62721096  0.26110175  0.75828860  1
  O  O385  1  0.63111957  0.74778191  0.26931039  1
  O  O386  1  0.61789683  0.75651878  0.76178201  1
  O  O387  1  0.37189151  0.24250269  0.24350874  1
  O  O388  1  0.37516429  0.24178935  0.73941847  1
  O  O389  1  0.37261287  0.75182594  0.24945829  1
  O  O390  1  0.38128115  0.74425123  0.74426734  1
  O  O391  1  0.87091702  0.24293876  0.24681233  1
  O  O392  1  0.87019635  0.23962477  0.73887822  1
  O  O393  1  0.87443861  0.74134743  0.25170392  1
  O  O394  1  0.88095908  0.74859291  0.75354894  1
  O  O395  1  0.38925798  0.49984381  0.49149070  1
  O  O396  1  0.38449950  0.49456787  0.99650073  1
  O  O397  1  0.37937620  0.99296160  0.49349965  1
  O  O398  1  0.37845029  0.99824074  0.99353885  1
  O  O399  1  0.88494674  0.50489174  0.48814389  1
  O  O400  1  0.88196874  0.49136834  1.01298572  1
  O  O401  1  0.88345231  1.00196965  0.49685354  1
  O  O402  1  0.87080860  0.99847891  0.99012075  1
  O  O403  1  0.12854263  0.01399876  0.00223580  1
  O  O404  1  0.12128033  0.00671916  0.50353607  1
  O  O405  1  0.11897491  0.50623110  0.00293788  1
  O  O406  1  0.11721257  0.50981916  0.49006412  1
  O  O407  1  0.61650794  0.00634032  0.00358095  1
  O  O408  1  0.61630449  0.00660094  0.49543650  1
  O  O409  1  0.62039152  0.50667277  0.00643214  1
  O  O410  1  0.62346052  0.50893085  0.50514189  1
  O  O411  1  0.36526215  0.37203393  0.11613008  1
  O  O412  1  0.37317243  0.36777941  0.61678604  1
  O  O413  1  0.36090210  0.87792126  0.10999425  1
  O  O414  1  0.37783688  0.86182679  0.62031863  1
  O  O415  1  0.86632009  0.36886841  0.12455080  1
  O  O416  1  0.86830994  0.36165966  0.63418402  1
  O  O417  1  0.86822600  0.87308626  0.11692336  1
  O  O418  1  0.86627686  0.87155744  0.62662466  1
  O  O419  1  0.12998031  0.13274718  0.38486489  1
  O  O420  1  0.12606586  0.12734117  0.88110257  1
  O  O421  1  0.11490123  0.63954253  0.38690548  1
  O  O422  1  0.13364697  0.63083509  0.88258029  1
  O  O423  1  0.63062554  0.13717349  0.39155505  1
  O  O424  1  0.62831243  0.13215783  0.87590918  1
  O  O425  1  0.62670098  0.63211720  0.38625788  1
  O  O426  1  0.62593522  0.63475669  0.88961058  1
