# generated using pymatgen
data_V85Zn86O256
_symmetry_space_group_name_H-M   'P 1'
_cell_length_a   16.92994256
_cell_length_b   16.93031444
_cell_length_c   16.92742965
_cell_angle_alpha   90.05822190
_cell_angle_beta   90.04350704
_cell_angle_gamma   89.98087739
_symmetry_Int_Tables_number   1
_chemical_formula_structural   V85Zn86O256
_chemical_formula_sum   'V85 Zn86 O256'
_cell_volume   4851.89230920
_cell_formula_units_Z   1
loop_
 _symmetry_equiv_pos_site_id
 _symmetry_equiv_pos_as_xyz
  1  'x, y, z'
loop_
 _atom_site_type_symbol
 _atom_site_label
 _atom_site_symmetry_multiplicity
 _atom_site_fract_x
 _atom_site_fract_y
 _atom_site_fract_z
 _atom_site_occupancy
  V  V0  1  0.37355335  0.88156254  0.50565166  1
  V  V1  1  0.63133447  0.24249111  0.37448163  1
  V  V2  1  0.87687686  0.24971035  0.61877890  1
  V  V3  1  -0.00111314  0.24329589  0.25933750  1
  V  V4  1  0.87436082  0.87724130  -0.00827340  1
  V  V5  1  0.12837938  0.25031104  0.88860118  1
  V  V6  1  0.49734715  0.75123447  0.24549743  1
  V  V7  1  0.00115780  0.11296341  0.62174740  1
  V  V8  1  0.49868155  0.75234350  0.75097949  1
  V  V9  1  0.36861030  0.11867105  0.24964768  1
  V  V10  1  -0.00687733  0.50711289  0.49194431  1
  V  V11  1  0.87683875  0.50102501  0.87737930  1
  V  V12  1  0.13266342  0.36220617  0.25434181  1
  V  V13  1  0.49985810  0.00034054  -0.00015647  1
  V  V14  1  0.61893241  0.62127783  -0.00155421  1
  V  V15  1  0.50004460  0.37743901  0.37407281  1
  V  V16  1  0.62160661  0.73813995  0.38261431  1
  V  V17  1  0.37231066  0.00175553  0.87670765  1
  V  V18  1  0.11970614  0.74986477  0.37637796  1
  V  V19  1  0.49838787  0.12360936  0.12385332  1
  V  V20  1  0.76627266  0.61736314  0.37812004  1
  V  V21  1  0.37331945  0.86782210  0.00485790  1
  V  V22  1  0.12753454  0.50653197  0.61401782  1
  V  V23  1  0.63016970  0.00030116  0.12885807  1
  V  V24  1  0.74735322  0.00564454  0.75721915  1
  V  V25  1  0.12288484  0.75692457  0.87956234  1
  V  V26  1  0.24857714  0.62513852  0.87699644  1
  V  V27  1  0.00152099  0.37660743  0.87368019  1
  V  V28  1  0.24868354  0.36631842  0.61894511  1
  V  V29  1  0.87716949  0.24336462  0.12406302  1
  V  V30  1  0.25014103  -0.00236142  0.74310731  1
  V  V31  1  0.00004363  0.75684209  0.75461384  1
  V  V32  1  0.85612550  0.00249117  0.37468702  1
  V  V33  1  0.80113269  0.70557283  0.05283052  1
  V  V34  1  0.12396469  0.13120360  0.49864582  1
  V  V35  1  0.49707887  0.12486190  0.61193581  1
  V  V36  1  0.37084624  0.37100383  0.49648354  1
  V  V37  1  0.74995503  0.24308534  -0.00694568  1
  V  V38  1  0.62047265  0.49973488  0.12248812  1
  V  V39  1  0.49663235  0.24914332  0.24566139  1
  V  V40  1  0.13141543  0.49159341  0.12955382  1
  V  V41  1  0.37007736  0.62699720  0.24854259  1
  V  V42  1  0.36774548  0.75407105  0.62540210  1
  V  V43  1  0.50593225  0.62743063  0.61544107  1
  V  V44  1  -0.00031054  0.88534863  0.37570138  1
  V  V45  1  0.62280233  0.37756807  0.74757744  1
  V  V46  1  0.37540777  0.62213716  0.75011095  1
  V  V47  1  0.00133650  0.25046750  0.74797393  1
  V  V48  1  0.75125177  0.37452977  0.61849847  1
  V  V49  1  0.75101287  0.62903006  0.87478377  1
  V  V50  1  0.87595051  0.75011221  0.62349133  1
  V  V51  1  0.75751412  0.87692593  0.12540141  1
  V  V52  1  0.87731344  0.37103379  -0.00331950  1
  V  V53  1  0.12746337  0.37691801  0.74824790  1
  V  V54  1  0.12197235  0.62654625  0.01118344  1
  V  V55  1  0.87242762  0.12728543  0.75651302  1
  V  V56  1  0.87781705  0.62586998  0.74911282  1
  V  V57  1  0.61819647  0.00047686  0.61969981  1
  V  V58  1  0.63113085  0.87679810  0.25287229  1
  V  V59  1  0.74823377  0.87748335  0.62686181  1
  V  V60  1  0.24636556  0.12902122  0.88555398  1
  V  V61  1  0.00404167  0.12207558  0.12330894  1
  V  V62  1  0.49868357  0.87550040  0.87719814  1
  V  V63  1  0.37254341  0.37460748  0.00717519  1
  V  V64  1  0.36276547  -0.00114933  0.37600584  1
  V  V65  1  0.37463871  0.13040206  0.74995076  1
  V  V66  1  0.75295285  0.50031900  0.74761013  1
  V  V67  1  0.50008128  0.88307691  0.37959681  1
  V  V68  1  0.25432325  0.87130907  0.13650202  1
  V  V69  1  0.24400905  0.14050576  0.37872033  1
  V  V70  1  0.00586500  -0.00227714  -0.00631831  1
  V  V71  1  0.62804684  0.75205095  0.88021837  1
  V  V72  1  0.62588298  0.12384166  -0.00668283  1
  V  V73  1  0.00254532  0.49865614  0.00784171  1
  V  V74  1  0.62560306  0.24702585  0.86940874  1
  V  V75  1  0.49203850  0.62521176  0.12226950  1
  V  V76  1  0.24471508  0.75229574  0.50153147  1
  V  V77  1  0.12862032  0.87529209  0.74498766  1
  V  V78  1  0.74968273  0.37464076  0.12276922  1
  V  V79  1  0.12928051  -0.00140021  0.12969700  1
  V  V80  1  0.86021109  0.11754712  0.25103197  1
  V  V81  1  0.24490225  0.62421798  0.37893868  1
  V  V82  1  -0.01446374  0.74297756  0.24099599  1
  V  V83  1  0.62489219  0.37571606  0.24712372  1
  V  V84  1  0.88005584  0.88152773  0.50219634  1
  Zn  Zn85  1  0.24971913  0.50067815  0.74806520  1
  Zn  Zn86  1  0.62356370  0.87772895  0.75209186  1
  Zn  Zn87  1  0.37288033  0.50087507  0.37474688  1
  Zn  Zn88  1  0.25202484  0.74886041  0.00688629  1
  Zn  Zn89  1  0.50099511  0.38372381  0.88302931  1
  Zn  Zn90  1  0.75334888  0.24406257  0.49331657  1
  Zn  Zn91  1  0.76811556  0.49589239  0.26397825  1
  Zn  Zn92  1  0.87232685  0.38016518  0.48336242  1
  Zn  Zn93  1  0.49827268  0.25269491  0.74694699  1
  Zn  Zn94  1  0.74336083  0.74512204  0.50441802  1
  Zn  Zn95  1  0.37392124  0.25040097  0.62100888  1
  Zn  Zn96  1  0.35878662  0.24837686  0.11925254  1
  Zn  Zn97  1  0.87581841  0.00358744  0.87520970  1
  Zn  Zn98  1  0.12576186  -0.00605076  0.61738438  1
  Zn  Zn99  1  0.62875622  0.11509035  0.49139486  1
  Zn  Zn100  1  0.38367855  0.50136586  0.88455306  1
  Zn  Zn101  1  0.00622064  0.62825794  0.62234058  1
  Zn  Zn102  1  0.12572380  0.87767716  0.25462312  1
  Zn  Zn103  1  -0.00155765  0.37531142  0.37432381  1
  Zn  Zn104  1  0.50265308  0.50247917  0.49579260  1
  Zn  Zn105  1  0.25047649  0.49623992  0.24988402  1
  Zn  Zn106  1  0.63103828  0.50918516  0.61702031  1
  Zn  Zn107  1  0.18454082  0.17680231  0.19511206  1
  Zn  Zn108  1  0.18630284  0.18697280  0.68985403  1
  Zn  Zn109  1  0.18237804  0.69217484  0.19127571  1
  Zn  Zn110  1  0.18875276  0.68905512  0.68911364  1
  Zn  Zn111  1  0.68505896  0.18895946  0.18447619  1
  Zn  Zn112  1  0.68750033  0.18640608  0.68036652  1
  Zn  Zn113  1  0.68440684  0.68312060  0.19806293  1
  Zn  Zn114  1  0.68708604  0.69166231  0.69217136  1
  Zn  Zn115  1  0.31502466  0.31035188  0.30836330  1
  Zn  Zn116  1  0.31242883  0.31536380  0.81721608  1
  Zn  Zn117  1  0.31365149  0.80949389  0.31506982  1
  Zn  Zn118  1  0.30984943  0.81225117  0.81575704  1
  Zn  Zn119  1  0.81553746  0.31231083  0.30977085  1
  Zn  Zn120  1  0.81001037  0.31161724  0.80909856  1
  Zn  Zn121  1  0.81005621  0.80866606  0.31602932  1
  Zn  Zn122  1  0.81115224  0.81499413  0.81229334  1
  Zn  Zn123  1  0.18544305  0.43492487  0.43342881  1
  Zn  Zn124  1  0.19252806  0.44040289  0.93614806  1
  Zn  Zn125  1  0.18520603  0.93893438  0.44319760  1
  Zn  Zn126  1  0.18887950  0.93870321  0.93946987  1
  Zn  Zn127  1  0.68418760  0.43856356  0.44037669  1
  Zn  Zn128  1  0.68725497  0.43789373  0.93586022  1
  Zn  Zn129  1  0.68743754  0.93098641  0.44231592  1
  Zn  Zn130  1  0.69067460  0.93535041  0.94096559  1
  Zn  Zn131  1  0.30973322  0.05981736  0.06519357  1
  Zn  Zn132  1  0.30884139  0.06461624  0.56046207  1
  Zn  Zn133  1  0.31116973  0.55898211  0.06155486  1
  Zn  Zn134  1  0.31530622  0.56056680  0.55883359  1
  Zn  Zn135  1  0.81337153  0.06015686  0.06179624  1
  Zn  Zn136  1  0.80886573  0.06446445  0.56233158  1
  Zn  Zn137  1  0.84264036  0.53417862  0.10435418  1
  Zn  Zn138  1  0.81108715  0.56630191  0.55786413  1
  Zn  Zn139  1  0.43403206  0.43947680  0.18213438  1
  Zn  Zn140  1  0.43673483  0.44074326  0.68523013  1
  Zn  Zn141  1  0.43866627  0.93822622  0.18937810  1
  Zn  Zn142  1  0.43629911  0.94010522  0.68838775  1
  Zn  Zn143  1  0.94321281  0.42793168  0.19399566  1
  Zn  Zn144  1  0.93956723  0.43849959  0.68132171  1
  Zn  Zn145  1  0.93970528  0.93593389  0.19140672  1
  Zn  Zn146  1  0.93667801  0.93645423  0.69421663  1
  Zn  Zn147  1  0.06182400  0.06167169  0.31270415  1
  Zn  Zn148  1  0.06449989  0.06446236  0.81232464  1
  Zn  Zn149  1  0.06271672  0.56576568  0.30981220  1
  Zn  Zn150  1  0.06393102  0.56543051  0.81223972  1
  Zn  Zn151  1  0.55892926  0.05994271  0.31076155  1
  Zn  Zn152  1  0.56026533  0.06409320  0.80837515  1
  Zn  Zn153  1  0.56425848  0.55958932  0.30585248  1
  Zn  Zn154  1  0.56291684  0.56199663  0.80728701  1
  Zn  Zn155  1  0.43682091  0.19056233  0.43492512  1
  Zn  Zn156  1  0.43741379  0.19587651  0.93573560  1
  Zn  Zn157  1  0.43247053  0.69319194  0.43449244  1
  Zn  Zn158  1  0.43804319  0.68655314  0.93721878  1
  Zn  Zn159  1  0.93623649  0.17837705  0.43947701  1
  Zn  Zn160  1  0.94531631  0.18602636  0.93820838  1
  Zn  Zn161  1  0.94100907  0.68962335  0.43951646  1
  Zn  Zn162  1  0.94449071  0.68522361  0.93686967  1
  Zn  Zn163  1  0.19283671  0.31160253  0.06688284  1
  Zn  Zn164  1  0.06087955  0.31436686  0.55744132  1
  Zn  Zn165  1  0.06139980  0.81718160  0.06550615  1
  Zn  Zn166  1  0.06137510  0.81331388  0.56204920  1
  Zn  Zn167  1  0.55652032  0.31196871  0.05841903  1
  Zn  Zn168  1  0.56145913  0.31308844  0.56007775  1
  Zn  Zn169  1  0.56514423  0.81146624  0.06364118  1
  Zn  Zn170  1  0.55776494  0.81528249  0.56299760  1
  O  O171  1  0.11306516  0.11302167  0.12926691  1
  O  O172  1  0.11637143  0.12294779  0.62234387  1
  O  O173  1  0.12732984  0.62107952  0.11484404  1
  O  O174  1  0.12684622  0.60971427  0.63172500  1
  O  O175  1  0.61962758  0.11729128  0.11769172  1
  O  O176  1  0.61268574  0.11667065  0.62578220  1
  O  O177  1  0.61957503  0.61827505  0.11876292  1
  O  O178  1  0.60946328  0.63290576  0.62868215  1
  O  O179  1  0.38178967  0.37606390  0.37761166  1
  O  O180  1  0.37752089  0.37849661  0.88422335  1
  O  O181  1  0.38079921  0.88097903  0.38034345  1
  O  O182  1  0.37884339  0.88074502  0.88369411  1
  O  O183  1  0.88314337  0.37510911  0.36956002  1
  O  O184  1  0.87884090  0.38076370  0.87705394  1
  O  O185  1  0.87611412  0.88289061  0.38356501  1
  O  O186  1  0.86953510  0.87912269  0.88733772  1
  O  O187  1  0.26118154  -0.00054562  0.37488163  1
  O  O188  1  0.25358133  0.00782741  0.86728477  1
  O  O189  1  0.24990814  0.51074443  0.37216072  1
  O  O190  1  0.25045652  0.51582983  0.86995494  1
  O  O191  1  0.75742972  -0.00651825  0.37406269  1
  O  O192  1  0.74743102  -0.00304458  0.86076111  1
  O  O193  1  0.75092557  0.51138084  0.37872193  1
  O  O194  1  0.75735307  0.50769473  0.87002395  1
  O  O195  1  0.23539249  0.50579386  0.13004923  1
  O  O196  1  0.23956888  0.49479501  0.62441119  1
  O  O197  1  0.23989898  0.98836356  0.12159293  1
  O  O198  1  0.24976140  1.00347324  0.63981078  1
  O  O199  1  0.73600102  0.48187719  0.11050936  1
  O  O200  1  0.75318505  0.49241699  0.62914325  1
  O  O201  1  0.73724382  0.99254804  0.12074856  1
  O  O202  1  0.74362215  0.99264275  0.63419629  1
  O  O203  1  0.01045602  0.35875955  0.24873165  1
  O  O204  1  0.00604026  0.37116609  0.75381181  1
  O  O205  1  0.00053399  0.86685105  0.26193898  1
  O  O206  1  0.00727085  0.86434079  0.75154434  1
  O  O207  1  0.50225362  0.36702442  0.25198503  1
  O  O208  1  0.51567671  0.37530243  0.73998111  1
  O  O209  1  0.50751554  0.86762277  0.25458781  1
  O  O210  1  0.49909480  0.86820074  0.75771230  1
  O  O211  1  0.49217887  0.13118098  0.24511392  1
  O  O212  1  0.48508469  0.12515773  0.74353953  1
  O  O213  1  0.49404157  0.63194467  0.24271942  1
  O  O214  1  0.49260789  0.63620629  0.74257675  1
  O  O215  1  0.99166011  0.12603347  0.24314587  1
  O  O216  1  0.99450729  0.13170147  0.74297501  1
  O  O217  1  1.00267773  0.64387433  0.25544658  1
  O  O218  1  0.99501727  0.63728588  0.74801467  1
  O  O219  1  0.37579954  0.26282078  0.00246326  1
  O  O220  1  0.37785133  0.26503105  0.50066117  1
  O  O221  1  0.37646675  0.76429364  -0.00174943  1
  O  O222  1  0.36858063  0.75989058  0.50778977  1
  O  O223  1  0.86821334  0.25008520  0.00171608  1
  O  O224  1  0.87701284  0.25047625  0.51032919  1
  O  O225  1  0.87186948  0.75749966  -0.00488630  1
  O  O226  1  0.87402199  0.75766046  0.51283706  1
  O  O227  1  0.12244054  0.23319933  0.50556455  1
  O  O228  1  0.12106044  0.26015582  0.98670059  1
  O  O229  1  0.13217009  0.75517127  0.49126821  1
  O  O230  1  0.12231812  0.74389707  0.99508556  1
  O  O231  1  0.62190491  0.25175799  0.47983109  1
  O  O232  1  0.63106705  0.24486719  0.99204084  1
  O  O233  1  0.62309263  0.75849181  0.48564775  1
  O  O234  1  0.61963053  0.74027139  0.98810162  1
  O  O235  1  0.50193724  0.24191335  0.13582944  1
  O  O236  1  0.49887664  0.23960715  0.62686867  1
  O  O237  1  0.50838183  0.74148652  0.13746918  1
  O  O238  1  0.49079313  0.74445431  0.63082798  1
  O  O239  1  0.98898377  0.23441072  0.13429162  1
  O  O240  1  0.99285895  0.24619622  0.63102733  1
  O  O241  1  1.00395466  0.75659612  0.14233816  1
  O  O242  1  0.99261379  0.74921260  0.63239121  1
  O  O243  1  -0.00488917  0.24139228  0.36186664  1
  O  O244  1  0.00777888  0.25618132  0.86764268  1
  O  O245  1  0.00566081  0.76076506  0.37514913  1
  O  O246  1  0.01004592  0.74737199  0.86660545  1
  O  O247  1  0.50497113  0.25787249  0.36239964  1
  O  O248  1  0.51404039  0.25642618  0.86907930  1
  O  O249  1  0.50625171  0.75915951  0.36799483  1
  O  O250  1  0.50535497  0.75522299  0.86953969  1
  O  O251  1  0.24604729  0.12551538  0.48593570  1
  O  O252  1  0.25470359  0.11920215  0.98438133  1
  O  O253  1  0.25855199  0.63930006  0.49159156  1
  O  O254  1  0.24241866  0.62865166  0.99450220  1
  O  O255  1  0.74019622  0.13268678  0.50860289  1
  O  O256  1  0.74450278  0.13631540  1.00403739  1
  O  O257  1  0.74883114  0.62978320  0.48635236  1
  O  O258  1  0.74269515  0.63783995  0.99599562  1
  O  O259  1  0.26027876  0.37335198  -0.00341510  1
  O  O260  1  0.25648478  0.38044785  0.50640366  1
  O  O261  1  0.25897385  0.87347626  0.00882988  1
  O  O262  1  0.25895435  0.86228599  0.49619091  1
  O  O263  1  0.75466942  0.36306914  0.00153285  1
  O  O264  1  0.75426834  0.36753534  0.50573264  1
  O  O265  1  0.75882435  0.87329347  0.01048722  1
  O  O266  1  0.75939715  0.87052061  0.51253396  1
  O  O267  1  0.12154096  0.48922803  0.24298193  1
  O  O268  1  0.12309690  0.48984047  0.74147536  1
  O  O269  1  0.11791727  0.99479982  0.23593974  1
  O  O270  1  0.13225513  0.99110800  0.75132523  1
  O  O271  1  0.63121961  0.49266181  0.23789892  1
  O  O272  1  0.63596337  0.49487381  0.74086091  1
  O  O273  1  0.61917926  0.98992328  0.24084873  1
  O  O274  1  0.63078374  0.99939632  0.74069947  1
  O  O275  1  0.38226201  0.01166961  0.25965184  1
  O  O276  1  0.36757700  0.00559034  0.75778142  1
  O  O277  1  0.37282014  0.51387231  0.25023981  1
  O  O278  1  0.37125841  0.51507348  0.74621938  1
  O  O279  1  0.87487082  0.00324883  0.26449069  1
  O  O280  1  0.86737838  0.00847967  0.75337733  1
  O  O281  1  0.86672811  0.50395022  0.21074730  1
  O  O282  1  0.87216930  0.50536935  0.75447465  1
  O  O283  1  0.11861028  0.37652287  0.35877356  1
  O  O284  1  0.12175709  0.37286625  0.86523280  1
  O  O285  1  0.11580448  0.87148159  0.37743678  1
  O  O286  1  0.13151459  0.86195220  0.86893711  1
  O  O287  1  0.61813176  0.36651667  0.36562668  1
  O  O288  1  0.62580828  0.36936308  0.86395609  1
  O  O289  1  0.61836722  0.87045329  0.36905967  1
  O  O290  1  0.61888740  0.86774898  0.87683187  1
  O  O291  1  0.38068382  0.12094377  0.13374085  1
  O  O292  1  0.37982818  0.12641585  0.62995830  1
  O  O293  1  0.38502217  0.62264744  0.12931238  1
  O  O294  1  0.38096453  0.63459332  0.63140688  1
  O  O295  1  0.87998491  0.12325756  0.13305904  1
  O  O296  1  0.88353173  0.13131879  0.63225129  1
  O  O297  1  0.85933645  0.64742910  0.10615591  1
  O  O298  1  0.87482716  0.63604326  0.63154979  1
  O  O299  1  0.24720889  0.23652295  0.12712168  1
  O  O300  1  0.24948699  0.26336032  0.62831031  1
  O  O301  1  0.24629183  0.76631643  0.12458353  1
  O  O302  1  0.25977860  0.74674478  0.61877553  1
  O  O303  1  0.75222378  0.25793493  0.11518104  1
  O  O304  1  0.76087125  0.25829048  0.62617581  1
  O  O305  1  0.74176944  0.75661119  0.12285443  1
  O  O306  1  0.75669811  0.75904953  0.62759891  1
  O  O307  1  0.25094023  0.23852395  0.37389426  1
  O  O308  1  0.23910092  0.24074874  0.86715470  1
  O  O309  1  0.24201934  0.74631426  0.38233583  1
  O  O310  1  0.24283384  0.74075246  0.88001619  1
  O  O311  1  0.73373210  0.25147553  0.36912018  1
  O  O312  1  0.73850515  0.25346108  0.88116598  1
  O  O313  1  0.73483643  0.74244493  0.37761781  1
  O  O314  1  0.73941469  0.74320237  0.86747752  1
  O  O315  1  -0.00689864  0.11361313  0.01374863  1
  O  O316  1  0.00749573  0.12430101  0.51120222  1
  O  O317  1  0.01064361  0.61211459  -0.00510255  1
  O  O318  1  -0.00083924  0.61319063  0.50483567  1
  O  O319  1  0.50421449  0.12044093  0.00421794  1
  O  O320  1  0.50132738  0.12623743  0.50871527  1
  O  O321  1  0.50678672  0.63006422  0.01025633  1
  O  O322  1  0.49137145  0.63022597  0.51349539  1
  O  O323  1  0.49272627  0.37360414  0.48795171  1
  O  O324  1  0.48451334  0.37404560  0.99943627  1
  O  O325  1  0.48738101  0.87030547  0.49039672  1
  O  O326  1  0.49451696  0.88050986  0.99829208  1
  O  O327  1  0.99816658  0.38913339  0.49780867  1
  O  O328  1  0.99196306  0.38360772  0.98670622  1
  O  O329  1  0.98650481  0.87318417  0.49530757  1
  O  O330  1  0.98681231  0.88508077  1.00793934  1
  O  O331  1  0.49932637  0.48646135  0.36867207  1
  O  O332  1  0.49686710  0.49727990  0.86582093  1
  O  O333  1  0.49184973  0.98733166  0.37228189  1
  O  O334  1  0.49420005  0.99439669  0.87923208  1
  O  O335  1  1.00726804  0.50346417  0.38999171  1
  O  O336  1  0.99552125  0.49623967  0.88033013  1
  O  O337  1  0.99191859  0.98814384  0.37298730  1
  O  O338  1  1.00064986  1.00645779  0.88952251  1
  O  O339  1  0.00483166  0.00364646  0.11901603  1
  O  O340  1  0.00082074  0.01033812  0.63280670  1
  O  O341  1  0.01218364  0.49121970  0.11187276  1
  O  O342  1  0.01319814  0.50236984  0.61803874  1
  O  O343  1  0.51017054  0.00312821  0.11965819  1
  O  O344  1  0.50743211  0.00937029  0.63063501  1
  O  O345  1  0.51250056  0.50969634  0.12911109  1
  O  O346  1  0.49953189  0.52121645  0.62759762  1
  O  O347  1  0.23730466  0.37499889  0.25473286  1
  O  O348  1  0.24224884  0.37929467  0.74237111  1
  O  O349  1  0.25302542  0.87407733  0.23974686  1
  O  O350  1  0.24174824  0.88405281  0.75592218  1
  O  O351  1  0.74355029  0.37462928  0.23735591  1
  O  O352  1  0.74205187  0.38117217  0.74312425  1
  O  O353  1  0.73736187  0.86781394  0.24365131  1
  O  O354  1  0.74903508  0.88299788  0.73992125  1
  O  O355  1  0.25748324  0.12088066  0.26702264  1
  O  O356  1  0.25975516  0.11860210  0.75471864  1
  O  O357  1  0.25664867  0.62862602  0.25672486  1
  O  O358  1  0.25847481  0.62740968  0.75821195  1
  O  O359  1  0.76099200  0.12585814  0.24187903  1
  O  O360  1  0.75988160  0.11697034  0.74135330  1
  O  O361  1  0.74115698  0.62052023  0.27276976  1
  O  O362  1  0.75688539  0.61991969  0.75409437  1
  O  O363  1  0.36709111  0.11874770  0.37212939  1
  O  O364  1  0.37020283  0.12267998  0.86765430  1
  O  O365  1  0.36526496  0.62596356  0.36685348  1
  O  O366  1  0.36738016  0.62661881  0.86807026  1
  O  O367  1  0.87371950  0.10920906  0.36934336  1
  O  O368  1  0.87931134  0.12827012  0.86014333  1
  O  O369  1  0.86444498  0.63003275  0.37675785  1
  O  O370  1  0.87056791  0.62087574  0.86992860  1
  O  O371  1  0.12793998  0.38061326  0.13906248  1
  O  O372  1  0.13044825  0.38374457  0.62885046  1
  O  O373  1  0.13808356  0.88028996  0.12848571  1
  O  O374  1  0.12171372  0.87490063  0.63980299  1
  O  O375  1  0.62802175  0.37916583  0.12579761  1
  O  O376  1  0.63896320  0.37003460  0.62970209  1
  O  O377  1  0.63258967  0.88110265  0.13105593  1
  O  O378  1  0.63089091  0.87968950  0.62817590  1
  O  O379  1  0.11661999  0.25665903  0.24837029  1
  O  O380  1  0.11895116  0.26332612  0.75103110  1
  O  O381  1  0.12121303  0.75698088  0.26562792  1
  O  O382  1  0.11981252  0.75577384  0.75666573  1
  O  O383  1  0.61695122  0.25385181  0.25553553  1
  O  O384  1  0.62756994  0.25694519  0.75517201  1
  O  O385  1  0.61607461  0.75667029  0.26196179  1
  O  O386  1  0.61643374  0.75290621  0.76227881  1
  O  O387  1  0.38214150  0.23739968  0.24754514  1
  O  O388  1  0.37576589  0.24274593  0.74705382  1
  O  O389  1  0.38554176  0.73958510  0.25464848  1
  O  O390  1  0.37749633  0.74447807  0.74410480  1
  O  O391  1  0.87938887  0.23760705  0.24316723  1
  O  O392  1  0.87968140  0.24488107  0.74133480  1
  O  O393  1  0.88550917  0.75457173  0.25213128  1
  O  O394  1  0.88214021  0.75037833  0.74286021  1
  O  O395  1  0.38289540  0.48926104  0.49576299  1
  O  O396  1  0.37073849  0.48516115  1.00114724  1
  O  O397  1  0.36913264  0.98879932  0.49471264  1
  O  O398  1  0.38117921  0.99175698  0.99517321  1
  O  O399  1  0.89046398  0.49796178  0.50855283  1
  O  O400  1  0.88431923  0.49403893  1.00018051  1
  O  O401  1  0.86923924  0.99341256  0.48871297  1
  O  O402  1  0.88018693  0.99347660  0.99525861  1
  O  O403  1  0.11451416  -0.00931214  0.01176525  1
  O  O404  1  0.13241047  0.01605143  0.50573378  1
  O  O405  1  0.12106180  0.50589439  0.00508467  1
  O  O406  1  0.11889583  0.49741819  0.51111404  1
  O  O407  1  0.62014175  0.00489034  0.00523367  1
  O  O408  1  0.62648117  -0.00362396  0.51442860  1
  O  O409  1  0.62818275  0.51450035  0.00260425  1
  O  O410  1  0.61475923  0.49393027  0.50718735  1
  O  O411  1  0.37409732  0.36986529  0.11563991  1
  O  O412  1  0.36616257  0.37642444  0.61711229  1
  O  O413  1  0.36323765  0.88319758  0.12019337  1
  O  O414  1  0.38043806  0.86651663  0.61803049  1
  O  O415  1  0.86699904  0.36270757  0.11549398  1
  O  O416  1  0.86545390  0.36632922  0.62631856  1
  O  O417  1  0.86116702  0.88269361  0.12078510  1
  O  O418  1  0.86914463  0.87219681  0.62151001  1
  O  O419  1  0.13715903  0.12066266  0.37993411  1
  O  O420  1  0.13367375  0.13763732  0.86931142  1
  O  O421  1  0.13688122  0.63454602  0.37269629  1
  O  O422  1  0.13150109  0.63431274  0.88159850  1
  O  O423  1  0.61594416  0.13840894  0.37240002  1
  O  O424  1  0.62024173  0.13308472  0.88117977  1
  O  O425  1  0.61416191  0.63803646  0.37593161  1
  O  O426  1  0.62965691  0.63070007  0.88095912  1
