# generated using pymatgen
data_V85Zn86O256
_symmetry_space_group_name_H-M   'P 1'
_cell_length_a   16.94277924
_cell_length_b   16.94343108
_cell_length_c   16.93973794
_cell_angle_alpha   90.05135101
_cell_angle_beta   90.00363333
_cell_angle_gamma   90.05963976
_symmetry_Int_Tables_number   1
_chemical_formula_structural   V85Zn86O256
_chemical_formula_sum   'V85 Zn86 O256'
_cell_volume   4862.86585406
_cell_formula_units_Z   1
loop_
 _symmetry_equiv_pos_site_id
 _symmetry_equiv_pos_as_xyz
  1  'x, y, z'
loop_
 _atom_site_type_symbol
 _atom_site_label
 _atom_site_symmetry_multiplicity
 _atom_site_fract_x
 _atom_site_fract_y
 _atom_site_fract_z
 _atom_site_occupancy
  V  V0  1  -0.00461738  0.12472678  0.61878249  1
  V  V1  1  0.00138529  0.48670887  0.49949327  1
  V  V2  1  0.50226931  0.88096570  0.37859015  1
  V  V3  1  0.00109317  0.87734177  0.37565748  1
  V  V4  1  0.11939355  0.00127341  0.61722240  1
  V  V5  1  0.62364941  0.49634261  0.11750296  1
  V  V6  1  0.87926836  0.87059259  0.00779185  1
  V  V7  1  0.62656350  0.87150570  0.75193111  1
  V  V8  1  0.13562753  0.49715417  0.62038067  1
  V  V9  1  0.25596540  0.01049809  0.74911340  1
  V  V10  1  0.75359903  0.86860003  0.12895266  1
  V  V11  1  0.37781559  0.87996069  0.50004816  1
  V  V12  1  0.25577120  0.00345480  0.25083433  1
  V  V13  1  0.50160434  0.74052006  0.74881199  1
  V  V14  1  0.25061091  0.75141466  -0.00412908  1
  V  V15  1  0.37899511  0.01077627  0.37753778  1
  V  V16  1  0.25475309  0.61121316  0.87022417  1
  V  V17  1  0.87758686  0.13706498  0.25146854  1
  V  V18  1  0.10488461  0.38173861  0.26107490  1
  V  V19  1  0.37114685  0.24103228  0.63305196  1
  V  V20  1  -0.00279430  0.75230167  0.24041221  1
  V  V21  1  0.48413692  0.37010214  0.87240526  1
  V  V22  1  0.75374909  0.74530131  0.00197193  1
  V  V23  1  0.24747728  0.25647719  0.49790007  1
  V  V24  1  0.37648050  0.75228213  0.12546724  1
  V  V25  1  0.74514497  0.13624717  0.88194522  1
  V  V26  1  0.48583986  0.49918623  -0.01022087  1
  V  V27  1  0.75242547  0.74879593  0.50013956  1
  V  V28  1  0.24945410  0.13235055  0.37483420  1
  V  V29  1  0.87241177  0.62820533  0.24488525  1
  V  V30  1  0.13737727  0.38033507  0.74738921  1
  V  V31  1  0.24592494  0.49518953  0.25079759  1
  V  V32  1  0.37228833  0.62586805  0.25255545  1
  V  V33  1  -0.00413369  0.13108748  0.12441205  1
  V  V34  1  0.87786656  0.74751201  0.62453116  1
  V  V35  1  0.62642871  0.14208843  0.00250087  1
  V  V36  1  0.88040319  0.00355586  0.37895900  1
  V  V37  1  0.00089641  0.87546445  0.87551545  1
  V  V38  1  0.17790591  0.44388081  0.08587263  1
  V  V39  1  0.49899620  0.50342606  0.50680683  1
  V  V40  1  0.37431991  0.61373803  0.74973916  1
  V  V41  1  0.85802055  0.25267670  0.62260312  1
  V  V42  1  0.00198243  0.74822883  0.74905791  1
  V  V43  1  0.50719527  0.00058190  0.00062191  1
  V  V44  1  0.87578599  0.61504724  0.75619977  1
  V  V45  1  0.12720552  0.87758699  0.24834953  1
  V  V46  1  0.62714084  0.36492095  0.75636911  1
  V  V47  1  0.62237341  0.37124971  0.24495456  1
  V  V48  1  -0.01148473  0.49837199  -0.01196997  1
  V  V49  1  0.86861509  0.37024378  -0.01733511  1
  V  V50  1  0.49981307  0.75022494  0.25119912  1
  V  V51  1  0.62416139  0.74878959  0.37572422  1
  V  V52  1  0.17759230  0.18405839  0.04629568  1
  V  V53  1  0.12492480  0.24671552  0.86901237  1
  V  V54  1  0.87437848  0.00064205  0.87781882  1
  V  V55  1  0.24979194  0.87423873  0.62534369  1
  V  V56  1  0.12660216  0.87588566  0.75036150  1
  V  V57  1  0.00856000  0.00571520  -0.00102747  1
  V  V58  1  0.12369466  0.74413902  0.37627647  1
  V  V59  1  0.74868691  0.36576117  0.11894141  1
  V  V60  1  0.61883431  -0.00291692  0.61806564  1
  V  V61  1  0.48903996  0.24424212  0.25468660  1
  V  V62  1  0.87416915  0.12626488  0.75097980  1
  V  V63  1  0.10912414  0.25483113  0.37625580  1
  V  V64  1  0.87770869  0.49611257  0.37395035  1
  V  V65  1  0.00394190  0.62217437  0.61478538  1
  V  V66  1  0.75355780  0.87390350  0.62737723  1
  V  V67  1  0.74908007  -0.00212074  0.75518064  1
  V  V68  1  -0.00369770  0.26195504  0.74916278  1
  V  V69  1  0.38011243  0.74574980  0.62510960  1
  V  V70  1  0.12635375  0.62140115  0.00215961  1
  V  V71  1  0.75325725  0.00204396  0.25024042  1
  V  V72  1  0.88250845  0.87993380  0.50156748  1
  V  V73  1  0.49091169  0.12490372  0.13239877  1
  V  V74  1  0.63182202  0.25271397  0.38424420  1
  V  V75  1  0.85589896  0.37239444  0.50135135  1
  V  V76  1  0.24614809  0.74527837  0.50024017  1
  V  V77  1  0.37791095  0.87503887  -0.00081737  1
  V  V78  1  0.37507398  0.49859139  0.37688063  1
  V  V79  1  0.50012593  0.87241277  0.87574499  1
  V  V80  1  0.00319209  0.61690068  0.12588340  1
  V  V81  1  0.37117513  0.37532229  0.51081035  1
  V  V82  1  0.62063931  0.62569300  0.50943399  1
  V  V83  1  0.74976420  0.62461453  0.37487916  1
  V  V84  1  0.63200168  0.49141777  0.62812082  1
  Zn  Zn85  1  0.12972401  0.00448143  0.12235979  1
  Zn  Zn86  1  0.50120781  0.62246649  0.12415024  1
  Zn  Zn87  1  0.11833321  0.12301508  0.49561130  1
  Zn  Zn88  1  0.62893396  0.74650318  0.87709415  1
  Zn  Zn89  1  0.87280828  0.25243214  0.12148009  1
  Zn  Zn90  1  0.75094544  0.61676556  0.87816187  1
  Zn  Zn91  1  0.24457579  0.62374745  0.37938629  1
  Zn  Zn92  1  0.62872033  0.00050518  0.12810938  1
  Zn  Zn93  1  0.25206894  0.13335160  0.87414408  1
  Zn  Zn94  1  0.32591999  0.32016758  0.07108403  1
  Zn  Zn95  1  0.49382143  0.11715654  0.62601709  1
  Zn  Zn96  1  0.75278100  0.13145250  0.38174434  1
  Zn  Zn97  1  0.49935167  0.37417324  0.37529008  1
  Zn  Zn98  1  0.62208152  0.62491675  -0.00169468  1
  Zn  Zn99  1  0.38429407  0.01253120  0.86617082  1
  Zn  Zn100  1  0.75342980  0.49046632  0.75442256  1
  Zn  Zn101  1  0.62573777  0.12796447  0.50333849  1
  Zn  Zn102  1  0.25095676  0.87803059  0.12338673  1
  Zn  Zn103  1  0.12798605  0.74709286  0.87301540  1
  Zn  Zn104  1  0.49610060  0.23633143  0.75823129  1
  Zn  Zn105  1  0.74683598  0.49931005  0.24755503  1
  Zn  Zn106  1  0.62696744  0.87621666  0.25184324  1
  Zn  Zn107  1  0.18895621  0.19686881  0.20922212  1
  Zn  Zn108  1  0.18496764  0.19147226  0.68057286  1
  Zn  Zn109  1  0.18805579  0.68714175  0.18557846  1
  Zn  Zn110  1  0.18813713  0.68349302  0.68627369  1
  Zn  Zn111  1  0.68423576  0.18735931  0.18923782  1
  Zn  Zn112  1  0.68206408  0.18239918  0.69421439  1
  Zn  Zn113  1  0.68566931  0.68667253  0.18500423  1
  Zn  Zn114  1  0.68961211  0.68454516  0.68761121  1
  Zn  Zn115  1  0.32603744  0.33246733  0.27550216  1
  Zn  Zn116  1  0.30821957  0.31400959  0.81508576  1
  Zn  Zn117  1  0.31234443  0.81591155  0.31536117  1
  Zn  Zn118  1  0.31499636  0.81186053  0.81198680  1
  Zn  Zn119  1  0.81072450  0.31818803  0.31138843  1
  Zn  Zn120  1  0.80721114  0.31219480  0.80957623  1
  Zn  Zn121  1  0.81517961  0.81231838  0.31355688  1
  Zn  Zn122  1  0.81658029  0.80757955  0.81630084  1
  Zn  Zn123  1  0.18622089  0.43710642  0.43551673  1
  Zn  Zn124  1  0.18666062  0.43048932  0.92243701  1
  Zn  Zn125  1  0.19067218  0.93554608  0.43598224  1
  Zn  Zn126  1  0.19019135  0.93927423  0.93340116  1
  Zn  Zn127  1  0.68441882  0.44033093  0.43257410  1
  Zn  Zn128  1  0.68622647  0.43915048  0.93179139  1
  Zn  Zn129  1  0.69506233  0.93728516  0.43693912  1
  Zn  Zn130  1  0.68836617  0.93432925  0.93961409  1
  Zn  Zn131  1  0.31885129  0.05729115  0.06097686  1
  Zn  Zn132  1  0.30683189  0.06379916  0.55881714  1
  Zn  Zn133  1  0.31773612  0.56838227  0.06115680  1
  Zn  Zn134  1  0.31426667  0.56581174  0.56388230  1
  Zn  Zn135  1  0.81268891  0.06125204  0.06268986  1
  Zn  Zn136  1  0.80536249  0.06400857  0.56211930  1
  Zn  Zn137  1  0.81303284  0.55703897  0.06575044  1
  Zn  Zn138  1  0.81250436  0.56065923  0.56474511  1
  Zn  Zn139  1  0.43945582  0.43557082  0.18218347  1
  Zn  Zn140  1  0.44311226  0.43407116  0.68621495  1
  Zn  Zn141  1  0.43827059  0.93923348  0.19039584  1
  Zn  Zn142  1  0.43815256  0.93210565  0.68962973  1
  Zn  Zn143  1  0.93063235  0.44095587  0.18119161  1
  Zn  Zn144  1  0.93695980  0.43587488  0.68011903  1
  Zn  Zn145  1  0.93928145  0.94504576  0.18663010  1
  Zn  Zn146  1  0.93860257  0.93984266  0.68871267  1
  Zn  Zn147  1  0.06230540  0.06511079  0.31080175  1
  Zn  Zn148  1  0.06324962  0.06634478  0.80679543  1
  Zn  Zn149  1  0.05883121  0.56247794  0.31412088  1
  Zn  Zn150  1  0.06698660  0.56313862  0.80808219  1
  Zn  Zn151  1  0.56671368  0.06434598  0.31681961  1
  Zn  Zn152  1  0.56328251  0.06545223  0.81197100  1
  Zn  Zn153  1  0.56108388  0.56065788  0.31368642  1
  Zn  Zn154  1  0.56828157  0.56043023  0.81635849  1
  Zn  Zn155  1  0.44696801  0.18774841  0.44782832  1
  Zn  Zn156  1  0.42315612  0.19155926  0.94101933  1
  Zn  Zn157  1  0.43705233  0.68793668  0.43786657  1
  Zn  Zn158  1  0.43790865  0.68422786  0.93485901  1
  Zn  Zn159  1  0.93127086  0.19000711  0.44248160  1
  Zn  Zn160  1  0.93971636  0.18984957  0.93440263  1
  Zn  Zn161  1  0.93917234  0.68643033  0.43446973  1
  Zn  Zn162  1  0.94004167  0.68954899  0.93789406  1
  Zn  Zn163  1  0.04741518  0.31661092  0.06110218  1
  Zn  Zn164  1  0.05910694  0.31238693  0.56482809  1
  Zn  Zn165  1  0.06547498  0.81099099  0.06359843  1
  Zn  Zn166  1  0.06309689  0.81243824  0.56246042  1
  Zn  Zn167  1  0.51584592  0.29728062  0.04641437  1
  Zn  Zn168  1  0.55537759  0.31472014  0.56523691  1
  Zn  Zn169  1  0.56839025  0.81270944  0.06593239  1
  Zn  Zn170  1  0.56211701  0.81389665  0.56335743  1
  O  O171  1  0.12267940  0.13209263  0.12150789  1
  O  O172  1  0.11487022  0.11793136  0.62238890  1
  O  O173  1  0.11523584  0.62926589  0.11607920  1
  O  O174  1  0.11658759  0.60935109  0.63190553  1
  O  O175  1  0.62271906  0.12016092  0.11448670  1
  O  O176  1  0.63078357  0.10284519  0.62849187  1
  O  O177  1  0.62193502  0.61133229  0.12487848  1
  O  O178  1  0.62706564  0.61953907  0.61345036  1
  O  O179  1  0.37413563  0.39001585  0.37540391  1
  O  O180  1  0.38487286  0.38012626  0.86896714  1
  O  O181  1  0.38176667  0.88333287  0.38288151  1
  O  O182  1  0.38805966  0.87693358  0.87892271  1
  O  O183  1  0.87001219  0.38384324  0.38716278  1
  O  O184  1  0.87186231  0.37272300  0.88371599  1
  O  O185  1  0.88156196  0.88131942  0.38277806  1
  O  O186  1  0.88315551  0.88093520  0.88287487  1
  O  O187  1  0.25670442  0.00729290  0.37081146  1
  O  O188  1  0.24887721  0.00040709  0.85648728  1
  O  O189  1  0.25539269  0.50583336  0.36989144  1
  O  O190  1  0.25119419  0.51255551  0.87647543  1
  O  O191  1  0.76515655  -0.00283647  0.36698421  1
  O  O192  1  0.75563642  0.00194871  0.87203723  1
  O  O193  1  0.75943823  0.50783377  0.37259490  1
  O  O194  1  0.74974288  0.50407025  0.86715063  1
  O  O195  1  0.24386036  0.51181528  0.13406809  1
  O  O196  1  0.23424852  0.50342321  0.61690581  1
  O  O197  1  0.24957595  1.00019265  0.13527568  1
  O  O198  1  0.24338693  0.99370818  0.63238650  1
  O  O199  1  0.74019142  0.49032368  0.12582765  1
  O  O200  1  0.73557869  0.50377261  0.62934486  1
  O  O201  1  0.75299339  0.98948243  0.13398238  1
  O  O202  1  0.74642310  0.98960568  0.63603193  1
  O  O203  1  0.00638333  0.38774247  0.25040592  1
  O  O204  1  0.00269014  0.36445086  0.74226986  1
  O  O205  1  0.00574471  0.86976975  0.25214077  1
  O  O206  1  0.00787528  0.87032497  0.75374093  1
  O  O207  1  0.50656300  0.36349436  0.25125966  1
  O  O208  1  0.50450199  0.37335513  0.76083482  1
  O  O209  1  0.50101872  0.86945273  0.26243353  1
  O  O210  1  0.50492305  0.86513065  0.75895180  1
  O  O211  1  0.50658214  0.12625351  0.23921427  1
  O  O212  1  0.50360786  0.12461884  0.74062239  1
  O  O213  1  0.48710327  0.62998621  0.25203764  1
  O  O214  1  0.49285793  0.63603349  0.75758964  1
  O  O215  1  0.98911775  0.11741857  0.23864123  1
  O  O216  1  0.99119419  0.13257776  0.73998794  1
  O  O217  1  0.99513950  0.63135193  0.24268950  1
  O  O218  1  0.99294983  0.62790347  0.74099084  1
  O  O219  1  0.40626202  0.26898691  0.01709393  1
  O  O220  1  0.36703333  0.25947880  0.50193630  1
  O  O221  1  0.37082166  0.75507049  0.00415375  1
  O  O222  1  0.37020907  0.75888764  0.50549361  1
  O  O223  1  0.88122751  0.26709609  -0.00054778  1
  O  O224  1  0.87172007  0.26460743  0.50567931  1
  O  O225  1  0.87246005  0.76289403  -0.00221283  1
  O  O226  1  0.87291429  0.75522323  0.50517651  1
  O  O227  1  0.13066591  0.25261481  0.49449244  1
  O  O228  1  0.11683659  0.24904294  0.99102812  1
  O  O229  1  0.13386224  0.75924346  0.48938405  1
  O  O230  1  0.13463766  0.74380525  0.99745284  1
  O  O231  1  0.62158810  0.26045543  0.48616463  1
  O  O232  1  0.61613193  0.23953989  1.00444889  1
  O  O233  1  0.62921796  0.74282715  0.49660672  1
  O  O234  1  0.63860276  0.74712851  1.00250686  1
  O  O235  1  0.50945050  0.23242547  0.14116007  1
  O  O236  1  0.47832603  0.25264543  0.62586831  1
  O  O237  1  0.49581423  0.74965835  0.13524609  1
  O  O238  1  0.49123370  0.75609918  0.63488348  1
  O  O239  1  0.99550648  0.23572764  0.12153175  1
  O  O240  1  0.99051180  0.24269418  0.63124373  1
  O  O241  1  1.00304455  0.74202783  0.13574786  1
  O  O242  1  0.99896757  0.74087005  0.62872340  1
  O  O243  1  0.01035137  0.24357785  0.37994102  1
  O  O244  1  0.00878077  0.24413649  0.85980481  1
  O  O245  1  0.00669302  0.75655367  0.36587443  1
  O  O246  1  0.00530869  0.75736505  0.86805724  1
  O  O247  1  0.51172624  0.25167952  0.36923430  1
  O  O248  1  0.49374999  0.26588746  0.87416647  1
  O  O249  1  0.50333948  0.75695496  0.36910133  1
  O  O250  1  0.50157133  0.75668153  0.86806880  1
  O  O251  1  0.24324760  0.13212956  0.48895004  1
  O  O252  1  0.23774310  0.11590155  0.99932215  1
  O  O253  1  0.25420491  0.64123985  0.49867410  1
  O  O254  1  0.24846714  0.63107677  0.98991559  1
  O  O255  1  0.73919847  0.11891823  0.49348770  1
  O  O256  1  0.73592216  0.12050196  0.99741424  1
  O  O257  1  0.74411369  0.63015076  0.49563847  1
  O  O258  1  0.75833013  0.63859763  1.00575340  1
  O  O259  1  0.23725159  0.38783211  0.01901215  1
  O  O260  1  0.25763371  0.36580558  0.49129016  1
  O  O261  1  0.25703732  0.86901742  -0.00066127  1
  O  O262  1  0.25804512  0.86611651  0.50491025  1
  O  O263  1  0.76196669  0.38056733  0.00337500  1
  O  O264  1  0.75779318  0.38206539  0.50086485  1
  O  O265  1  0.75904309  0.86698758  0.00841511  1
  O  O266  1  0.76319951  0.86760211  0.50521933  1
  O  O267  1  0.12788654  0.49300523  0.25464329  1
  O  O268  1  0.11933882  0.48792415  0.73793281  1
  O  O269  1  0.13599608  0.99379634  0.25028282  1
  O  O270  1  0.13252564  0.99293145  0.74024911  1
  O  O271  1  0.62032593  0.48784356  0.24336539  1
  O  O272  1  0.62098439  0.49139824  0.74031533  1
  O  O273  1  0.64229574  0.99903583  0.25442558  1
  O  O274  1  0.63314357  0.98872076  0.74584668  1
  O  O275  1  0.36335652  -0.00592193  0.26212563  1
  O  O276  1  0.35957050  -0.00736628  0.74738182  1
  O  O277  1  0.36735214  0.50935504  0.25830750  1
  O  O278  1  0.37902820  0.51560438  0.73459389  1
  O  O279  1  0.86839459  0.00752917  0.25730211  1
  O  O280  1  0.86866394  0.00519954  0.75688978  1
  O  O281  1  0.87342556  0.50764617  0.25908275  1
  O  O282  1  0.87603630  0.51231818  0.74135989  1
  O  O283  1  0.11510019  0.37251386  0.36881014  1
  O  O284  1  0.12022178  0.36885201  0.85539865  1
  O  O285  1  0.12058703  0.87003050  0.36496525  1
  O  O286  1  0.12109993  0.87445608  0.86234059  1
  O  O287  1  0.62303246  0.36910818  0.36510769  1
  O  O288  1  0.61434236  0.37902504  0.85923153  1
  O  O289  1  0.61862274  0.86929434  0.37630395  1
  O  O290  1  0.61633679  0.87005237  0.87048126  1
  O  O291  1  0.39227935  0.12181255  0.12223959  1
  O  O292  1  0.37101541  0.13773659  0.61932177  1
  O  O293  1  0.37834591  0.63377046  0.13554066  1
  O  O294  1  0.37055322  0.63963944  0.63127018  1
  O  O295  1  0.87966013  0.12683610  0.13245429  1
  O  O296  1  0.87821049  0.12931507  0.63043489  1
  O  O297  1  0.88162680  0.62080256  0.13878892  1
  O  O298  1  0.88388746  0.62966347  0.63081003  1
  O  O299  1  0.23808903  0.23764833  0.10921735  1
  O  O300  1  0.25803270  0.24721170  0.61002596  1
  O  O301  1  0.25713898  0.75058492  0.11236865  1
  O  O302  1  0.25448174  0.75607438  0.61909819  1
  O  O303  1  0.74887523  0.26225585  0.12672692  1
  O  O304  1  0.75993857  0.24137107  0.63191575  1
  O  O305  1  0.75051398  0.76167763  0.12187221  1
  O  O306  1  0.75709532  0.75509115  0.61947921  1
  O  O307  1  0.24058449  0.24334699  0.38150903  1
  O  O308  1  0.23386817  0.25350876  0.87621818  1
  O  O309  1  0.24167314  0.75144636  0.38224350  1
  O  O310  1  0.25104457  0.74674152  0.88583439  1
  O  O311  1  0.73543194  0.25313751  0.37068693  1
  O  O312  1  0.75056845  0.23518664  0.87356866  1
  O  O313  1  0.74488987  0.74563372  0.38135557  1
  O  O314  1  0.75142461  0.74695310  0.88824927  1
  O  O315  1  -0.00741069  0.11475645  0.00676249  1
  O  O316  1  -0.00173155  0.12735333  0.51395385  1
  O  O317  1  0.00326347  0.61726609  0.00578344  1
  O  O318  1  -0.00566604  0.61745803  0.51083113  1
  O  O319  1  0.51111297  0.11706067  0.01044821  1
  O  O320  1  0.51211927  0.12519797  0.51268952  1
  O  O321  1  0.49891276  0.61249202  0.00130243  1
  O  O322  1  0.50937814  0.61837970  0.49505597  1
  O  O323  1  0.48809941  0.38434148  0.49566654  1
  O  O324  1  0.50953543  0.39081006  0.98119105  1
  O  O325  1  0.49197055  0.86915573  0.48769315  1
  O  O326  1  0.49912303  0.87811849  0.99440519  1
  O  O327  1  0.98942456  0.38464543  0.50346511  1
  O  O328  1  0.98480258  0.39026887  1.00144733  1
  O  O329  1  0.98927473  0.87056690  0.49500709  1
  O  O330  1  0.99539732  0.87918698  0.99731201  1
  O  O331  1  0.49183218  0.49938967  0.38559372  1
  O  O332  1  0.49711629  0.49671374  0.88456275  1
  O  O333  1  0.49226602  0.99278097  0.37029482  1
  O  O334  1  0.50207776  0.99095037  0.88286562  1
  O  O335  1  0.98581192  0.50959510  0.38630405  1
  O  O336  1  1.00704063  0.50804851  0.89115348  1
  O  O337  1  0.98868843  0.99415308  0.36981335  1
  O  O338  1  0.99678382  0.99668131  0.88012537  1
  O  O339  1  0.00669833  0.01173758  0.11740110  1
  O  O340  1  0.00869869  0.00984560  0.63146569  1
  O  O341  1  -0.00353354  0.51230754  0.11416250  1
  O  O342  1  0.00589762  0.50529276  0.61550891  1
  O  O343  1  0.50448840  0.00775489  0.12233842  1
  O  O344  1  0.51632449  -0.01074553  0.62845006  1
  O  O345  1  0.50670036  0.49736594  0.11366681  1
  O  O346  1  0.50810175  0.49892253  0.61148177  1
  O  O347  1  0.22940905  0.39257520  0.26066441  1
  O  O348  1  0.23570841  0.37643418  0.74686691  1
  O  O349  1  0.24250348  0.88277367  0.25057546  1
  O  O350  1  0.24257878  0.87858533  0.74410790  1
  O  O351  1  0.74119156  0.37834804  0.23982421  1
  O  O352  1  0.73244383  0.37278293  0.74898677  1
  O  O353  1  0.75432714  0.88078021  0.24412709  1
  O  O354  1  0.74770948  0.87594874  0.74785443  1
  O  O355  1  0.24912392  0.11824688  0.26455696  1
  O  O356  1  0.24479180  0.11137158  0.74330734  1
  O  O357  1  0.25828674  0.62043644  0.25315655  1
  O  O358  1  0.25730687  0.63088117  0.76314327  1
  O  O359  1  0.75888346  0.11793712  0.25281063  1
  O  O360  1  0.75315161  0.11645992  0.76162994  1
  O  O361  1  0.75717885  0.62447743  0.25433572  1
  O  O362  1  0.76941105  0.62831639  0.74776814  1
  O  O363  1  0.36937103  0.11401446  0.38729452  1
  O  O364  1  0.36475112  0.12246484  0.88057992  1
  O  O365  1  0.37206240  0.61664503  0.37017158  1
  O  O366  1  0.36278597  0.62829788  0.86597435  1
  O  O367  1  0.87536003  0.11915618  0.36955124  1
  O  O368  1  0.86717647  0.11880041  0.87264103  1
  O  O369  1  0.86973606  0.61984339  0.36641815  1
  O  O370  1  0.87990528  0.63003777  0.85803832  1
  O  O371  1  0.11680432  0.37543957  0.13680130  1
  O  O372  1  0.12007526  0.38660277  0.63325158  1
  O  O373  1  0.12769234  0.87586766  0.13815561  1
  O  O374  1  0.12664667  0.88138056  0.63372037  1
  O  O375  1  0.62955161  0.38179550  0.13001966  1
  O  O376  1  0.61467711  0.38248655  0.63805676  1
  O  O377  1  0.63774702  0.87895578  0.13175852  1
  O  O378  1  0.63302662  0.87864994  0.63190840  1
  O  O379  1  0.12361611  0.27133220  0.26180472  1
  O  O380  1  0.11833299  0.26076077  0.74887241  1
  O  O381  1  0.12007188  0.75800593  0.25530472  1
  O  O382  1  0.12033289  0.75835111  0.74802515  1
  O  O383  1  0.62015752  0.25923003  0.25788112  1
  O  O384  1  0.61659731  0.26197751  0.74434548  1
  O  O385  1  0.61746828  0.74983908  0.25802367  1
  O  O386  1  0.61801768  0.75395703  0.74829710  1
  O  O387  1  0.38987488  0.23936294  0.26695914  1
  O  O388  1  0.36712895  0.25457442  0.73431071  1
  O  O389  1  0.37816759  0.74493983  0.24826267  1
  O  O390  1  0.38235120  0.74580075  0.74203302  1
  O  O391  1  0.87136998  0.23993498  0.25023020  1
  O  O392  1  0.87949548  0.24669759  0.74307249  1
  O  O393  1  0.88650183  0.74111460  0.25718732  1
  O  O394  1  0.88462368  0.74454901  0.74221360  1
  O  O395  1  0.37929001  0.49688810  0.49616693  1
  O  O396  1  0.38749110  0.49601993  1.00685466  1
  O  O397  1  0.36781179  0.98680010  0.49444661  1
  O  O398  1  0.39032884  0.99061998  0.99901571  1
  O  O399  1  0.87839995  0.49061898  0.49642398  1
  O  O400  1  0.88327122  0.49443017  0.99710989  1
  O  O401  1  0.87167997  0.99032365  0.49276079  1
  O  O402  1  0.88454502  0.99010436  0.99652977  1
  O  O403  1  0.11266094  -0.00852925  0.00140830  1
  O  O404  1  0.13050044  -0.00212625  0.51327183  1
  O  O405  1  0.12073445  0.49793096  0.00693756  1
  O  O406  1  0.11644257  0.49402407  0.51026489  1
  O  O407  1  0.61430462  -0.00375090  0.00408167  1
  O  O408  1  0.63025245  -0.01209847  0.51718923  1
  O  O409  1  0.61843863  0.50137728  0.00824051  1
  O  O410  1  0.61802522  0.50553036  0.50472352  1
  O  O411  1  0.34961769  0.37361486  0.16662358  1
  O  O412  1  0.37323711  0.37092339  0.61367624  1
  O  O413  1  0.37459940  0.86893407  0.11936010  1
  O  O414  1  0.37108741  0.86645298  0.61775740  1
  O  O415  1  0.86411773  0.37457038  0.11628615  1
  O  O416  1  0.87233307  0.36772011  0.61191734  1
  O  O417  1  0.87076999  0.88019142  0.11715831  1
  O  O418  1  0.87441367  0.86998288  0.61910940  1
  O  O419  1  0.13049626  0.13363995  0.37533621  1
  O  O420  1  0.13005963  0.13828140  0.86566483  1
  O  O421  1  0.12401795  0.64030187  0.37097670  1
  O  O422  1  0.13797186  0.62571358  0.87938048  1
  O  O423  1  0.62796164  0.14266502  0.37411986  1
  O  O424  1  0.63119115  0.11844286  0.89362235  1
  O  O425  1  0.63060486  0.62867621  0.38329578  1
  O  O426  1  0.63100300  0.62988464  0.88029632  1
