# generated using pymatgen
data_V85Zn86O256
_symmetry_space_group_name_H-M   'P 1'
_cell_length_a   16.93183252
_cell_length_b   16.92718818
_cell_length_c   16.91954723
_cell_angle_alpha   90.03853522
_cell_angle_beta   90.05461344
_cell_angle_gamma   90.04637511
_symmetry_Int_Tables_number   1
_chemical_formula_structural   V85Zn86O256
_chemical_formula_sum   'V85 Zn86 O256'
_cell_volume   4849.27803667
_cell_formula_units_Z   1
loop_
 _symmetry_equiv_pos_site_id
 _symmetry_equiv_pos_as_xyz
  1  'x, y, z'
loop_
 _atom_site_type_symbol
 _atom_site_label
 _atom_site_symmetry_multiplicity
 _atom_site_fract_x
 _atom_site_fract_y
 _atom_site_fract_z
 _atom_site_occupancy
  V  V0  1  0.00905726  0.49392960  0.49877924  1
  V  V1  1  0.75223701  0.87570540  0.62725604  1
  V  V2  1  -0.00085455  0.11395244  0.11764709  1
  V  V3  1  0.87610929  0.37325972  0.50271790  1
  V  V4  1  0.87861216  0.74901755  0.62148529  1
  V  V5  1  0.88048938  0.49314708  0.37426532  1
  V  V6  1  0.37629362  -0.00102332  0.37418323  1
  V  V7  1  0.76463441  0.87055737  0.12325841  1
  V  V8  1  0.75282893  0.74454000  0.49932897  1
  V  V9  1  0.74813188  0.49356376  0.74809692  1
  V  V10  1  0.50375330  0.12373053  0.12366192  1
  V  V11  1  0.87320922  0.37782628  -0.00472181  1
  V  V12  1  0.87855966  0.11798465  0.25210344  1
  V  V13  1  0.49109556  0.75091185  0.74557793  1
  V  V14  1  0.11861250  0.37387101  0.25395393  1
  V  V15  1  0.36942740  0.87511070  0.00212447  1
  V  V16  1  0.62445941  0.12281171  0.49610093  1
  V  V17  1  0.50129204  0.62931499  0.61537585  1
  V  V18  1  0.63017828  0.49912877  0.61418006  1
  V  V19  1  0.24629413  0.37248517  0.12336273  1
  V  V20  1  0.25005566  0.24237015  0.50306265  1
  V  V21  1  0.12636696  0.75033247  0.87638209  1
  V  V22  1  0.49730867  0.49898936  -0.00572968  1
  V  V23  1  0.87539801  0.63101333  0.24814533  1
  V  V24  1  0.00031994  0.89220351  0.37541250  1
  V  V25  1  0.00245589  0.75062461  0.74997279  1
  V  V26  1  0.49765518  0.87701285  0.87555117  1
  V  V27  1  0.37447423  0.24840569  0.12431761  1
  V  V28  1  0.12720126  0.63171829  0.50158452  1
  V  V29  1  0.62740220  0.25080585  0.37403411  1
  V  V30  1  0.88046904  0.89193626  0.49580324  1
  V  V31  1  0.12225498  0.24581898  0.38093722  1
  V  V32  1  0.74840930  0.62346313  0.37649478  1
  V  V33  1  0.87669910  0.24829991  0.12459513  1
  V  V34  1  0.87536750  0.62025185  0.75114925  1
  V  V35  1  0.76308848  0.75113547  0.00402491  1
  V  V36  1  0.62414965  0.50016794  0.12214661  1
  V  V37  1  0.62481343  0.74685571  0.38034664  1
  V  V38  1  0.65249522  0.02397989  0.64768425  1
  V  V39  1  0.37130428  0.37504884  -0.00320880  1
  V  V40  1  0.24841686  0.49839421  0.24809135  1
  V  V41  1  0.25484840  0.74849150  0.00101559  1
  V  V42  1  0.75307666  0.25249610  0.50493647  1
  V  V43  1  0.00608940  0.61793941  0.62453610  1
  V  V44  1  0.13167767  0.87682437  0.74318504  1
  V  V45  1  0.75391632  0.62110707  0.87413989  1
  V  V46  1  0.62646708  0.87520029  0.25008623  1
  V  V47  1  -0.00407370  0.62901372  0.12150701  1
  V  V48  1  0.37202354  0.62472128  0.24578044  1
  V  V49  1  0.63030063  0.87656537  0.75109404  1
  V  V50  1  0.74979090  0.23844652  -0.00300270  1
  V  V51  1  0.49996018  -0.00395910  0.50695213  1
  V  V52  1  0.38073701  0.13296075  0.75792797  1
  V  V53  1  -0.00110224  0.25067220  0.25491243  1
  V  V54  1  0.31547232  0.81517374  0.56672092  1
  V  V55  1  0.13230305  0.00634968  0.61113458  1
  V  V56  1  0.24443851  0.38337673  0.62255166  1
  V  V57  1  0.31414275  0.80883278  0.18382781  1
  V  V58  1  0.49438910  0.63162309  0.12172598  1
  V  V59  1  0.49925854  0.37603426  0.37319009  1
  V  V60  1  0.24508525  0.24271325  -0.00787383  1
  V  V61  1  -0.00528810  0.88279072  0.88984673  1
  V  V62  1  0.12084423  0.11493743  -0.00876636  1
  V  V63  1  0.37142263  0.50189342  0.86474700  1
  V  V64  1  0.62549655  0.62679817  -0.00162110  1
  V  V65  1  0.75012604  0.37448602  0.12248477  1
  V  V66  1  0.14096178  -0.00348930  0.13186455  1
  V  V67  1  -0.00534891  0.37051413  0.86810317  1
  V  V68  1  0.62607536  0.75032732  0.87488908  1
  V  V69  1  0.62527080  0.37520367  0.24767895  1
  V  V70  1  0.88335700  0.25135609  0.63779680  1
  V  V71  1  0.75192238  0.50015880  0.24855179  1
  V  V72  1  -0.00191756  0.11651090  0.62458104  1
  V  V73  1  0.62090587  0.25099102  0.86947823  1
  V  V74  1  0.00043755  0.75469132  0.25028055  1
  V  V75  1  0.37529331  0.37666652  0.50035066  1
  V  V76  1  0.24809915  0.62713349  0.37738986  1
  V  V77  1  -0.00106912  0.49822154  -0.00533968  1
  V  V78  1  0.24544455  0.01140062  0.75654189  1
  V  V79  1  0.50058674  0.75039794  0.24855128  1
  V  V80  1  0.75279323  -0.00138919  0.25404313  1
  V  V81  1  0.12010609  0.37895785  0.74495484  1
  V  V82  1  0.25122303  0.12459869  0.36744660  1
  V  V83  1  0.75736976  0.12251854  0.37824829  1
  V  V84  1  0.11750496  0.24341797  0.86649483  1
  Zn  Zn85  1  0.36973822  0.63077261  0.74206832  1
  Zn  Zn86  1  0.12404008  0.75543565  0.37639437  1
  Zn  Zn87  1  0.36764850  0.00315932  0.87882300  1
  Zn  Zn88  1  0.37994232  0.25420361  0.63320934  1
  Zn  Zn89  1  0.49960516  0.25073291  0.24779401  1
  Zn  Zn90  1  0.13629070  0.87769722  0.25037890  1
  Zn  Zn91  1  0.74501618  0.10471448  0.84467361  1
  Zn  Zn92  1  0.49804093  0.13097053  0.62906682  1
  Zn  Zn93  1  0.37359687  0.12325297  0.24709387  1
  Zn  Zn94  1  0.49379166  0.36608670  0.86508676  1
  Zn  Zn95  1  0.50088068  -0.00356508  0.00367045  1
  Zn  Zn96  1  0.50511504  0.50488581  0.49453113  1
  Zn  Zn97  1  0.62527040  0.11825462  -0.00420052  1
  Zn  Zn98  1  0.50052510  0.87478091  0.37952814  1
  Zn  Zn99  1  0.37630555  0.50060187  0.37310036  1
  Zn  Zn100  1  0.87007560  0.00587671  0.87298470  1
  Zn  Zn101  1  0.24096144  0.50541498  0.74468226  1
  Zn  Zn102  1  0.62807675  -0.00006451  0.12299556  1
  Zn  Zn103  1  0.61770076  0.37427984  0.74230533  1
  Zn  Zn104  1  0.12101560  0.49756762  0.12247851  1
  Zn  Zn105  1  0.12660009  0.62244919  -0.00013043  1
  Zn  Zn106  1  0.24978425  0.62461920  0.87145025  1
  Zn  Zn107  1  0.18492576  0.18506512  0.18470778  1
  Zn  Zn108  1  0.18511393  0.18806196  0.68567264  1
  Zn  Zn109  1  0.17688699  0.68343955  0.18990641  1
  Zn  Zn110  1  0.18916847  0.68818515  0.68547267  1
  Zn  Zn111  1  0.68839514  0.18704634  0.18662238  1
  Zn  Zn112  1  0.68668586  0.19856368  0.68252844  1
  Zn  Zn113  1  0.68678193  0.68898174  0.18719981  1
  Zn  Zn114  1  0.68340612  0.68654793  0.68592353  1
  Zn  Zn115  1  0.31067429  0.31114720  0.31247733  1
  Zn  Zn116  1  0.30494559  0.31512670  0.81217727  1
  Zn  Zn117  1  0.31122832  0.81222900  0.40497835  1
  Zn  Zn118  1  0.30935403  0.81694210  0.81140556  1
  Zn  Zn119  1  0.81413310  0.31160193  0.31355759  1
  Zn  Zn120  1  0.80706703  0.31011766  0.81687546  1
  Zn  Zn121  1  0.81626981  0.81421008  0.31598620  1
  Zn  Zn122  1  0.81496150  0.81260017  0.81387653  1
  Zn  Zn123  1  0.18719596  0.43578768  0.43457631  1
  Zn  Zn124  1  0.18406521  0.43521652  0.93332824  1
  Zn  Zn125  1  0.18926511  0.93948847  0.43418427  1
  Zn  Zn126  1  0.18386998  0.93524937  0.93758691  1
  Zn  Zn127  1  0.69061993  0.43602411  0.43783684  1
  Zn  Zn128  1  0.68717056  0.43586831  0.93358021  1
  Zn  Zn129  1  0.69088514  0.93806201  0.44077112  1
  Zn  Zn130  1  0.69558477  0.94207293  0.94111151  1
  Zn  Zn131  1  0.31259596  0.06455336  0.05805012  1
  Zn  Zn132  1  0.31510646  0.06082189  0.56678806  1
  Zn  Zn133  1  0.31115891  0.56246085  0.06035706  1
  Zn  Zn134  1  0.31570459  0.56298039  0.56105998  1
  Zn  Zn135  1  0.81907551  0.05259253  0.05572760  1
  Zn  Zn136  1  0.82950983  0.06596184  0.69709274  1
  Zn  Zn137  1  0.81537044  0.56240624  0.06096459  1
  Zn  Zn138  1  0.81549614  0.56170447  0.56263771  1
  Zn  Zn139  1  0.43622401  0.43800507  0.18432173  1
  Zn  Zn140  1  0.44178860  0.43733247  0.68253293  1
  Zn  Zn141  1  0.44119142  0.94280713  0.19428637  1
  Zn  Zn142  1  0.43778933  0.94584023  0.68775266  1
  Zn  Zn143  1  0.93843211  0.43813872  0.18450205  1
  Zn  Zn144  1  0.93466509  0.43592366  0.68439535  1
  Zn  Zn145  1  0.94084956  0.93848915  0.18579290  1
  Zn  Zn146  1  0.94762792  0.93342050  0.68600841  1
  Zn  Zn147  1  0.06795049  0.06499536  0.31036713  1
  Zn  Zn148  1  0.04398492  0.05978289  0.80079776  1
  Zn  Zn149  1  0.06172832  0.56265092  0.31332627  1
  Zn  Zn150  1  0.06088637  0.56042653  0.81607499  1
  Zn  Zn151  1  0.56048304  0.06333357  0.31022430  1
  Zn  Zn152  1  0.56153087  0.06325431  0.81794534  1
  Zn  Zn153  1  0.56355707  0.56362856  0.31087144  1
  Zn  Zn154  1  0.56151774  0.56232246  0.80652782  1
  Zn  Zn155  1  0.43754006  0.18950588  0.44027603  1
  Zn  Zn156  1  0.43641195  0.18402114  0.93821001  1
  Zn  Zn157  1  0.43716823  0.68612853  0.43714502  1
  Zn  Zn158  1  0.43440221  0.68918302  0.93378766  1
  Zn  Zn159  1  0.93995096  0.18006291  0.44387849  1
  Zn  Zn160  1  0.93020685  0.17970770  0.92979872  1
  Zn  Zn161  1  0.93932779  0.68685369  0.43488866  1
  Zn  Zn162  1  0.93924493  0.68871414  0.93385721  1
  Zn  Zn163  1  0.06066759  0.30718574  0.06146602  1
  Zn  Zn164  1  0.05945091  0.30900741  0.56094514  1
  Zn  Zn165  1  0.06642967  0.81151781  0.06703631  1
  Zn  Zn166  1  0.06392053  0.81644812  0.56216871  1
  Zn  Zn167  1  0.56160006  0.31115814  0.05560052  1
  Zn  Zn168  1  0.56054237  0.31399684  0.56367650  1
  Zn  Zn169  1  0.56708891  0.81428492  0.06176152  1
  Zn  Zn170  1  0.56574689  0.81537647  0.56487331  1
  O  O171  1  0.11778020  0.11622148  0.11802368  1
  O  O172  1  0.12301850  0.11231756  0.62369623  1
  O  O173  1  0.10883594  0.62003484  0.12221000  1
  O  O174  1  0.11420803  0.62598471  0.61878916  1
  O  O175  1  0.61640344  0.12455651  0.12385124  1
  O  O176  1  0.62235825  0.12623443  0.61283786  1
  O  O177  1  0.61799842  0.61803775  0.11959612  1
  O  O178  1  0.61308051  0.61544697  0.62782478  1
  O  O179  1  0.38358272  0.37583746  0.37745265  1
  O  O180  1  0.37358684  0.38156275  0.88106161  1
  O  O181  1  0.38198228  0.89347669  0.37269514  1
  O  O182  1  0.38154341  0.87575243  0.88418229  1
  O  O183  1  0.87334491  0.38727699  0.37827689  1
  O  O184  1  0.88178208  0.36868495  0.88353688  1
  O  O185  1  0.88218408  0.87443558  0.38770830  1
  O  O186  1  0.89397753  0.86982111  0.87032589  1
  O  O187  1  0.26586446  0.01100021  0.38450052  1
  O  O188  1  0.24668971  -0.00324465  0.86059222  1
  O  O189  1  0.24903200  0.50599903  0.36152847  1
  O  O190  1  0.25838281  0.50107890  0.87391830  1
  O  O191  1  0.74761966  0.00724963  0.36301956  1
  O  O192  1  0.75234623  -0.00960611  0.86207812  1
  O  O193  1  0.75633976  0.50513436  0.36806520  1
  O  O194  1  0.74347196  0.51448819  0.86743412  1
  O  O195  1  0.24595946  0.49452339  0.13385103  1
  O  O196  1  0.25034628  0.48739827  0.62223080  1
  O  O197  1  0.23959177  1.00594388  0.12605794  1
  O  O198  1  0.23889523  1.00376633  0.63562978  1
  O  O199  1  0.74547222  0.49477220  0.12866969  1
  O  O200  1  0.73801468  0.51097619  0.63180427  1
  O  O201  1  0.75072223  0.98811973  0.13631073  1
  O  O202  1  0.75236250  0.98388088  0.62273568  1
  O  O203  1  0.00610010  0.36430821  0.24506198  1
  O  O204  1  0.00189219  0.37940822  0.76050856  1
  O  O205  1  -0.00395344  0.86818167  0.25831050  1
  O  O206  1  0.01453394  0.86549446  0.75464305  1
  O  O207  1  0.50595924  0.37465851  0.25440454  1
  O  O208  1  0.50474164  0.38125055  0.75412213  1
  O  O209  1  0.51027167  0.86767352  0.25260111  1
  O  O210  1  0.50533558  0.86965017  0.75548812  1
  O  O211  1  0.49832053  0.13148441  0.23818161  1
  O  O212  1  0.48419261  0.12010768  0.75201919  1
  O  O213  1  0.49338495  0.62993717  0.24227506  1
  O  O214  1  0.49831344  0.63556118  0.74038089  1
  O  O215  1  0.99361125  0.13010787  0.24337252  1
  O  O216  1  1.01256338  0.13701750  0.72522335  1
  O  O217  1  0.99358601  0.63034170  0.24350376  1
  O  O218  1  0.99453189  0.62623613  0.74381275  1
  O  O219  1  0.36504238  0.25287465  0.00555543  1
  O  O220  1  0.36540236  0.26323251  0.49572348  1
  O  O221  1  0.36310265  0.75500865  -0.00073609  1
  O  O222  1  0.37126720  0.75993523  0.49493962  1
  O  O223  1  0.86760961  0.25821995  0.00527712  1
  O  O224  1  0.87089796  0.25711577  0.50262035  1
  O  O225  1  0.86206970  0.74340469  -0.00120168  1
  O  O226  1  0.86924584  0.75077089  0.50499436  1
  O  O227  1  0.13401857  0.26053198  0.48680751  1
  O  O228  1  0.12897864  0.24012210  0.99283711  1
  O  O229  1  0.11809737  0.73545997  0.49751430  1
  O  O230  1  0.13730811  0.75058994  0.99489403  1
  O  O231  1  0.63449403  0.24727971  0.49249023  1
  O  O232  1  0.63492370  0.24767985  0.99254211  1
  O  O233  1  0.63531883  0.75795962  0.48754046  1
  O  O234  1  0.63294621  0.74310551  0.99399565  1
  O  O235  1  0.49027908  0.24553776  0.12199846  1
  O  O236  1  0.49226314  0.24362440  0.61369356  1
  O  O237  1  0.50943684  0.73769009  0.13040385  1
  O  O238  1  0.50855476  0.73928254  0.63040245  1
  O  O239  1  0.99585830  0.24049951  0.13556089  1
  O  O240  1  0.98588685  0.25544336  0.63042154  1
  O  O241  1  1.00166402  0.74230356  0.13606340  1
  O  O242  1  0.99772821  0.74210987  0.63080771  1
  O  O243  1  0.00713406  0.24083314  0.36365744  1
  O  O244  1  0.00639879  0.25984553  0.88158051  1
  O  O245  1  0.00065790  0.75324545  0.36233244  1
  O  O246  1  0.00878464  0.75406606  0.86833503  1
  O  O247  1  0.50681007  0.26140093  0.37277914  1
  O  O248  1  0.51675245  0.24803855  0.88427549  1
  O  O249  1  0.50876330  0.75064691  0.36900583  1
  O  O250  1  0.50520121  0.75846175  0.86788122  1
  O  O251  1  0.25749994  0.13921262  0.49331029  1
  O  O252  1  0.23769128  0.13334086  1.00052360  1
  O  O253  1  0.23975959  0.61469333  0.49049278  1
  O  O254  1  0.24694686  0.63387325  0.99836918  1
  O  O255  1  0.74006815  0.13359410  0.48816703  1
  O  O256  1  0.74827499  0.13678279  1.01528668  1
  O  O257  1  0.75606858  0.63730974  0.49496084  1
  O  O258  1  0.74606898  0.62856501  0.99367991  1
  O  O259  1  0.25140769  0.36785913  0.00576982  1
  O  O260  1  0.25540304  0.36974853  0.50278756  1
  O  O261  1  0.26156104  0.86799941  -0.00212770  1
  O  O262  1  0.25469866  0.86582987  0.49641759  1
  O  O263  1  0.75669041  0.36958477  0.00316298  1
  O  O264  1  0.76446072  0.36586937  0.49127432  1
  O  O265  1  0.74488908  0.86552032  0.01678374  1
  O  O266  1  0.76193252  0.86562495  0.50430885  1
  O  O267  1  0.12857549  0.49077101  0.24810432  1
  O  O268  1  0.12315234  0.48431571  0.75653341  1
  O  O269  1  0.12897911  0.99956837  0.23697713  1
  O  O270  1  0.13276617  0.99588408  0.74464317  1
  O  O271  1  0.63097415  0.49514197  0.24156537  1
  O  O272  1  0.63385765  0.50214417  0.73904516  1
  O  O273  1  0.63394131  0.99172146  0.24931056  1
  O  O274  1  0.61442854  0.98610086  0.74494408  1
  O  O275  1  0.38057225  0.00657812  0.26840374  1
  O  O276  1  0.36032748  0.00781064  0.75253580  1
  O  O277  1  0.36492969  0.50422180  0.24965599  1
  O  O278  1  0.37439471  0.49924607  0.75992925  1
  O  O279  1  0.87015387  0.01140789  0.24752222  1
  O  O280  1  0.89914490  0.00464290  0.75677364  1
  O  O281  1  0.87338849  0.50691969  0.25628673  1
  O  O282  1  0.86554689  0.51319210  0.74012487  1
  O  O283  1  0.12922604  0.36479663  0.36051477  1
  O  O284  1  0.11341202  0.36573043  0.86925919  1
  O  O285  1  0.11746819  0.87543453  0.37072556  1
  O  O286  1  0.11929681  0.86417453  0.86941151  1
  O  O287  1  0.61935966  0.37154632  0.36921423  1
  O  O288  1  0.62196218  0.36140065  0.87650641  1
  O  O289  1  0.62926580  0.86793012  0.36474790  1
  O  O290  1  0.61858832  0.86775473  0.86923457  1
  O  O291  1  0.38063098  0.13297075  0.12518343  1
  O  O292  1  0.37355517  0.12711958  0.64239825  1
  O  O293  1  0.38568996  0.61887784  0.13012588  1
  O  O294  1  0.39467726  0.61717172  0.62585702  1
  O  O295  1  0.88163057  0.12889706  0.13236031  1
  O  O296  1  0.88705357  0.13803555  0.62380175  1
  O  O297  1  0.88571133  0.61886085  0.13429797  1
  O  O298  1  0.88630073  0.63029397  0.62856471  1
  O  O299  1  0.25411071  0.25235844  0.11523297  1
  O  O300  1  0.25153076  0.25978716  0.61624327  1
  O  O301  1  0.25091489  0.75001070  0.12387809  1
  O  O302  1  0.25926153  0.75435007  0.62371127  1
  O  O303  1  0.75610010  0.25758268  0.12001910  1
  O  O304  1  0.76026728  0.24748097  0.60940400  1
  O  O305  1  0.74784723  0.76039545  0.11963901  1
  O  O306  1  0.75395653  0.75599879  0.61678991  1
  O  O307  1  0.24291764  0.24469678  0.38072656  1
  O  O308  1  0.23645826  0.25609548  0.88661599  1
  O  O309  1  0.24305312  0.73174847  0.36604011  1
  O  O310  1  0.24349719  0.74969272  0.88327354  1
  O  O311  1  0.74705875  0.24243978  0.38014947  1
  O  O312  1  0.73875417  0.24880709  0.88559985  1
  O  O313  1  0.74613358  0.74462802  0.38100708  1
  O  O314  1  0.74564890  0.74201864  0.88155733  1
  O  O315  1  0.00779256  0.13451781  0.00956613  1
  O  O316  1  0.00920342  0.14491748  0.52522722  1
  O  O317  1  -0.00279229  0.61707042  0.00507997  1
  O  O318  1  0.00556476  0.61688325  0.50641691  1
  O  O319  1  0.50043555  0.12257817  0.01218242  1
  O  O320  1  0.51526594  0.11862581  0.49200196  1
  O  O321  1  0.50301480  0.62161349  0.00529777  1
  O  O322  1  0.50133550  0.62524106  0.50980065  1
  O  O323  1  0.49271878  0.37886426  0.48950295  1
  O  O324  1  0.49093040  0.38465540  0.99610501  1
  O  O325  1  0.51348812  0.89205576  0.49765403  1
  O  O326  1  0.48856876  0.86925484  0.99426472  1
  O  O327  1  0.98916468  0.38241723  0.50068971  1
  O  O328  1  0.99249143  0.37915663  0.99475377  1
  O  O329  1  0.98877218  0.87092110  0.49059888  1
  O  O330  1  1.00501398  0.86585086  0.98740236  1
  O  O331  1  0.50143865  0.48959263  0.37417664  1
  O  O332  1  0.49357046  0.50463305  0.88499987  1
  O  O333  1  0.49301389  1.00179089  0.38286838  1
  O  O334  1  0.49758875  0.98521311  0.87733134  1
  O  O335  1  0.99013533  0.50560098  0.38401202  1
  O  O336  1  0.99962421  0.49031420  0.88738803  1
  O  O337  1  1.00195275  0.99210868  0.36913133  1
  O  O338  1  1.01029539  0.98356351  0.87769364  1
  O  O339  1  0.00802491  0.01133699  0.12872811  1
  O  O340  1  0.01296223  0.00954077  0.62240059  1
  O  O341  1  -0.00082252  0.50543751  0.11243473  1
  O  O342  1  -0.00603841  0.50796707  0.61320762  1
  O  O343  1  0.50303360  0.00964024  0.12600229  1
  O  O344  1  0.50932178  0.00948883  0.61835684  1
  O  O345  1  0.50250350  0.50725979  0.11224197  1
  O  O346  1  0.51277791  0.51059677  0.61910576  1
  O  O347  1  0.24279566  0.38052221  0.24423086  1
  O  O348  1  0.23953141  0.37888508  0.73990102  1
  O  O349  1  0.25887147  0.86063594  0.24709314  1
  O  O350  1  0.23787966  0.88515808  0.75189326  1
  O  O351  1  0.74655929  0.38086104  0.24370022  1
  O  O352  1  0.74765995  0.39175741  0.75706294  1
  O  O353  1  0.74822038  0.87942229  0.24537767  1
  O  O354  1  0.74139065  0.86269021  0.73967245  1
  O  O355  1  0.25275497  0.13307165  0.26312972  1
  O  O356  1  0.25294383  0.11495812  0.75049432  1
  O  O357  1  0.25134828  0.61554662  0.25183712  1
  O  O358  1  0.25297736  0.62112282  0.75070636  1
  O  O359  1  0.75791829  0.11778003  0.25454724  1
  O  O360  1  0.72376588  0.09865992  0.72251984  1
  O  O361  1  0.75800417  0.61960250  0.25196977  1
  O  O362  1  0.75645513  0.62272139  0.75610233  1
  O  O363  1  0.36969195  0.12173869  0.37224601  1
  O  O364  1  0.37403990  0.12144327  0.86447616  1
  O  O365  1  0.36713677  0.62249114  0.36623443  1
  O  O366  1  0.37310154  0.61560999  0.87067146  1
  O  O367  1  0.86535246  0.12981630  0.36847996  1
  O  O368  1  0.85585671  0.12713410  0.86907035  1
  O  O369  1  0.86893211  0.61499525  0.36803707  1
  O  O370  1  0.86671444  0.62846204  0.86373116  1
  O  O371  1  0.12913980  0.37172213  0.13515124  1
  O  O372  1  0.12943670  0.36849218  0.63381929  1
  O  O373  1  0.12345782  0.89232185  0.12706564  1
  O  O374  1  0.11859004  0.88984196  0.63224725  1
  O  O375  1  0.62902195  0.38065844  0.12663594  1
  O  O376  1  0.62432738  0.39339701  0.62216462  1
  O  O377  1  0.63350925  0.87274486  0.13960594  1
  O  O378  1  0.63705901  0.88076022  0.63353797  1
  O  O379  1  0.11707509  0.25406093  0.25564341  1
  O  O380  1  0.13184989  0.25970914  0.76197501  1
  O  O381  1  0.11407911  0.75663488  0.25159032  1
  O  O382  1  0.12420954  0.75721419  0.75610923  1
  O  O383  1  0.62650818  0.25866698  0.25619231  1
  O  O384  1  0.63431688  0.25630064  0.76431349  1
  O  O385  1  0.62271944  0.75541158  0.26025250  1
  O  O386  1  0.61681119  0.75970970  0.75403955  1
  O  O387  1  0.37417175  0.25295585  0.23346825  1
  O  O388  1  0.36517643  0.23619936  0.75384110  1
  O  O389  1  0.37813243  0.74645633  0.24102352  1
  O  O390  1  0.38794703  0.75280484  0.75439774  1
  O  O391  1  0.88095341  0.24066708  0.24676491  1
  O  O392  1  0.86231029  0.25385914  0.73473403  1
  O  O393  1  0.87894446  0.73613856  0.25550927  1
  O  O394  1  0.88032175  0.73918976  0.74165790  1
  O  O395  1  0.37699190  0.48814181  0.49344459  1
  O  O396  1  0.38027333  0.49563266  0.99153088  1
  O  O397  1  0.38965342  1.01141335  0.49162618  1
  O  O398  1  0.37693392  0.98977095  0.99856637  1
  O  O399  1  0.88038871  0.49286420  0.49309208  1
  O  O400  1  0.88001386  0.48524342  1.00327318  1
  O  O401  1  0.87370693  0.98666706  0.50167153  1
  O  O402  1  0.87990673  0.99665991  0.98689010  1
  O  O403  1  0.13004446  0.01044565  0.00832515  1
  O  O404  1  0.13272288  -0.00059475  0.51259571  1
  O  O405  1  0.11429792  0.49997017  0.00098558  1
  O  O406  1  0.11274102  0.50505532  0.49245107  1
  O  O407  1  0.62082099  -0.00045217  0.00535087  1
  O  O408  1  0.62796692  0.01034574  0.50981838  1
  O  O409  1  0.61684565  0.50576327  0.00163276  1
  O  O410  1  0.62910070  0.50224703  0.50968140  1
  O  O411  1  0.36814842  0.36858060  0.11663791  1
  O  O412  1  0.36664303  0.37539838  0.61543774  1
  O  O413  1  0.37295380  0.87323061  0.12541640  1
  O  O414  1  0.37493172  0.87642448  0.62058909  1
  O  O415  1  0.87059786  0.36768867  0.11847344  1
  O  O416  1  0.87408456  0.36431627  0.61538414  1
  O  O417  1  0.86315007  0.87246045  0.13175139  1
  O  O418  1  0.87385075  0.86852504  0.61567136  1
  O  O419  1  0.13499942  0.13501213  0.37274532  1
  O  O420  1  0.11000872  0.13170456  0.88073318  1
  O  O421  1  0.13066171  0.62514862  0.38268048  1
  O  O422  1  0.12348696  0.63865662  0.87663483  1
  O  O423  1  0.63486837  0.13039343  0.37574961  1
  O  O424  1  0.63157245  0.13420745  0.87568639  1
  O  O425  1  0.63487487  0.63460078  0.36842045  1
  O  O426  1  0.63093593  0.63162400  0.87790872  1
