# generated using pymatgen
data_V85Zn86O256
_symmetry_space_group_name_H-M   'P 1'
_cell_length_a   16.93421301
_cell_length_b   16.92172049
_cell_length_c   16.92434409
_cell_angle_alpha   89.94722156
_cell_angle_beta   90.00835062
_cell_angle_gamma   89.97496650
_symmetry_Int_Tables_number   1
_chemical_formula_structural   V85Zn86O256
_chemical_formula_sum   'V85 Zn86 O256'
_cell_volume   4849.77009947
_cell_formula_units_Z   1
loop_
 _symmetry_equiv_pos_site_id
 _symmetry_equiv_pos_as_xyz
  1  'x, y, z'
loop_
 _atom_site_type_symbol
 _atom_site_label
 _atom_site_symmetry_multiplicity
 _atom_site_fract_x
 _atom_site_fract_y
 _atom_site_fract_z
 _atom_site_occupancy
  V  V0  1  0.87511581  0.86702447  0.49717328  1
  V  V1  1  0.87747275  0.00090443  0.37181622  1
  V  V2  1  0.75585530  0.49246119  0.25406374  1
  V  V3  1  0.74959235  0.50536161  0.74129101  1
  V  V4  1  0.12229470  -0.00005581  0.63219716  1
  V  V5  1  0.77741152  0.85710406  0.65617316  1
  V  V6  1  0.00677949  0.37276287  0.87530693  1
  V  V7  1  0.00125704  -0.00171549  0.49997635  1
  V  V8  1  0.25234664  0.37647486  0.12191923  1
  V  V9  1  0.37512578  0.24473706  0.12847614  1
  V  V10  1  0.37535751  0.75118790  0.62077328  1
  V  V11  1  0.75373989  0.01796243  0.75608943  1
  V  V12  1  0.62273792  0.37806528  0.74331107  1
  V  V13  1  0.63846871  0.24686708  0.87522645  1
  V  V14  1  0.25380895  0.62018813  0.37809097  1
  V  V15  1  0.74521586  0.62445746  0.37393543  1
  V  V16  1  0.49933705  0.37120111  0.87520363  1
  V  V17  1  0.11897067  0.37834353  0.73871003  1
  V  V18  1  0.62045670  0.62198531  -0.00450954  1
  V  V19  1  -0.00276368  0.87526986  0.87720707  1
  V  V20  1  0.37220424  0.26067000  0.62530630  1
  V  V21  1  0.13142878  0.75199862  0.37093659  1
  V  V22  1  0.12134651  0.12557793  0.50058860  1
  V  V23  1  0.75239816  -0.01600862  0.24187752  1
  V  V24  1  0.49483368  0.87709394  0.87718585  1
  V  V25  1  0.87965061  0.12377519  0.24229146  1
  V  V26  1  0.12569037  0.50249095  0.12312986  1
  V  V27  1  0.24167893  0.50225143  0.74288923  1
  V  V28  1  0.25170043  0.87940088  0.62838791  1
  V  V29  1  0.37794630  0.75312492  0.11953085  1
  V  V30  1  0.74589674  0.37737908  0.61981715  1
  V  V31  1  0.87345230  0.49997987  0.86892452  1
  V  V32  1  -0.00184999  0.24397970  0.75406084  1
  V  V33  1  0.63481285  -0.00467174  0.61941472  1
  V  V34  1  0.00011845  0.24851611  0.24018916  1
  V  V35  1  0.62687290  0.36972357  0.25123866  1
  V  V36  1  0.37542720  0.50108164  0.87487237  1
  V  V37  1  0.52558812  0.64911048  0.16305675  1
  V  V38  1  0.87363278  0.01655100  0.87394953  1
  V  V39  1  0.12395033  0.37428321  0.24902907  1
  V  V40  1  0.88020489  0.62019027  0.25656533  1
  V  V41  1  0.12472434  0.87538756  0.75191447  1
  V  V42  1  0.24192664  0.12313910  0.87083256  1
  V  V43  1  0.75008444  0.62277056  0.87121054  1
  V  V44  1  0.75101774  0.12026717  0.37408794  1
  V  V45  1  0.87466190  0.24419533  0.62477852  1
  V  V46  1  0.62958688  -0.01223780  0.12318110  1
  V  V47  1  -0.00294338  0.50048429  -0.00020839  1
  V  V48  1  0.00920478  0.87552770  0.37051707  1
  V  V49  1  0.12320332  -0.00141312  0.13170515  1
  V  V50  1  0.48407550  0.37631904  0.37414555  1
  V  V51  1  0.47478312  0.10269048  0.60713144  1
  V  V52  1  0.62947263  0.49490177  0.12593626  1
  V  V53  1  0.62284703  0.88152520  0.74773046  1
  V  V54  1  0.62907296  0.12357459  0.50136596  1
  V  V55  1  0.24587652  0.25201831  -0.00774421  1
  V  V56  1  0.74565633  0.74895682  0.49511584  1
  V  V57  1  -0.00578629  0.38198466  0.37149662  1
  V  V58  1  0.25728676  0.49779172  0.25181020  1
  V  V59  1  0.63460786  0.12947670  -0.00254821  1
  V  V60  1  0.25925472  0.00140971  0.25020641  1
  V  V61  1  0.37242415  0.63101236  0.25055107  1
  V  V62  1  0.24882792  0.25773197  0.50021380  1
  V  V63  1  0.85890509  0.37422124  0.00264497  1
  V  V64  1  0.87234756  0.38450694  0.49509740  1
  V  V65  1  0.49781724  0.24657921  0.74783290  1
  V  V66  1  0.49854867  0.12258871  0.12636719  1
  V  V67  1  0.00024248  0.00537388  0.00621760  1
  V  V68  1  0.36935759  -0.00276172  0.87996205  1
  V  V69  1  0.12335742  0.61802577  0.50803376  1
  V  V70  1  0.37391265  0.62508756  0.74714969  1
  V  V71  1  0.49417807  0.48916006  0.50480755  1
  V  V72  1  0.50949931  0.62001505  0.62237422  1
  V  V73  1  0.75389766  0.75366769  0.00316331  1
  V  V74  1  0.25203355  0.75553055  -0.00305527  1
  V  V75  1  0.37084773  0.12054476  0.75432062  1
  V  V76  1  0.62350595  0.75093498  0.87031529  1
  V  V77  1  0.12291801  0.12920830  0.00464410  1
  V  V78  1  0.25425266  0.12489158  0.37028124  1
  V  V79  1  0.85836735  0.25164290  0.12091777  1
  V  V80  1  0.25342106  0.75875694  0.49500183  1
  V  V81  1  0.24913414  0.87385312  0.13063163  1
  V  V82  1  0.37576691  0.37624216  -0.00005599  1
  V  V83  1  0.00479906  0.75094981  0.24725888  1
  V  V84  1  0.12113504  0.74842622  0.87282907  1
  Zn  Zn85  1  0.86663568  0.88583270  0.00771402  1
  Zn  Zn86  1  0.42085375  -0.03841540  0.47347740  1
  Zn  Zn87  1  0.91643957  0.71916784  0.69986563  1
  Zn  Zn88  1  0.42487828  0.07082504  0.30481612  1
  Zn  Zn89  1  -0.00487182  0.61596051  0.64273665  1
  Zn  Zn90  1  0.12055850  0.24893471  0.37397307  1
  Zn  Zn91  1  0.62671106  0.61656172  0.49845839  1
  Zn  Zn92  1  -0.00662737  0.12157728  0.63143575  1
  Zn  Zn93  1  0.50127810  0.75351043  0.74227183  1
  Zn  Zn94  1  0.75203851  0.25061462  0.49529497  1
  Zn  Zn95  1  0.48914522  0.88049450  0.38615012  1
  Zn  Zn96  1  0.49718689  0.50364960  0.00946274  1
  Zn  Zn97  1  0.56631167  0.79148758  0.30151492  1
  Zn  Zn98  1  0.87140282  0.75364916  0.12970085  1
  Zn  Zn99  1  0.62149728  0.24572861  0.37315910  1
  Zn  Zn100  1  0.24600539  0.38308020  0.61724545  1
  Zn  Zn101  1  0.00348883  0.49785797  0.50623151  1
  Zn  Zn102  1  0.24862457  0.62663607  0.87602842  1
  Zn  Zn103  1  -0.00237737  0.62611634  0.12384428  1
  Zn  Zn104  1  0.49851272  -0.00026426  -0.00058478  1
  Zn  Zn105  1  0.49707563  0.24652045  0.25137208  1
  Zn  Zn106  1  0.12480669  0.62657568  -0.00083102  1
  Zn  Zn107  1  0.18911577  0.18676266  0.18461467  1
  Zn  Zn108  1  0.18164205  0.19366388  0.68889947  1
  Zn  Zn109  1  0.18851542  0.68736685  0.18702029  1
  Zn  Zn110  1  0.18489282  0.69158804  0.68802309  1
  Zn  Zn111  1  0.68469306  0.17886059  0.19009696  1
  Zn  Zn112  1  0.68615817  0.19191678  0.68440360  1
  Zn  Zn113  1  0.69696564  0.68385123  0.18666110  1
  Zn  Zn114  1  0.68914911  0.69054681  0.68450760  1
  Zn  Zn115  1  0.30851184  0.30699954  0.31118837  1
  Zn  Zn116  1  0.30743845  0.31412365  0.81011060  1
  Zn  Zn117  1  0.35391724  0.83534817  0.30585899  1
  Zn  Zn118  1  0.31068114  0.81365264  0.80813761  1
  Zn  Zn119  1  0.81096219  0.30882869  0.31157812  1
  Zn  Zn120  1  0.81592786  0.31681733  0.80826643  1
  Zn  Zn121  1  0.81776657  0.80777016  0.31653450  1
  Zn  Zn122  1  0.80882644  0.82366283  0.82980077  1
  Zn  Zn123  1  0.18506688  0.43693877  0.43127732  1
  Zn  Zn124  1  0.18668925  0.44040681  0.93279071  1
  Zn  Zn125  1  0.19567078  0.93806094  0.43532371  1
  Zn  Zn126  1  0.18849498  0.93821798  0.94196535  1
  Zn  Zn127  1  0.68150224  0.43953325  0.43484871  1
  Zn  Zn128  1  0.68350171  0.43660935  0.93273074  1
  Zn  Zn129  1  0.67486460  0.91787103  0.44028078  1
  Zn  Zn130  1  0.68556546  0.94152436  0.93533608  1
  Zn  Zn131  1  0.31117335  0.06171974  0.05985560  1
  Zn  Zn132  1  0.29817024  0.07314666  0.57167729  1
  Zn  Zn133  1  0.31472057  0.57055967  0.06332678  1
  Zn  Zn134  1  0.31605532  0.56176934  0.55973916  1
  Zn  Zn135  1  0.81180559  0.06651819  0.06318355  1
  Zn  Zn136  1  0.81265117  0.05615567  0.56277498  1
  Zn  Zn137  1  0.81182732  0.56657460  0.06620101  1
  Zn  Zn138  1  0.82147911  0.56971101  0.56600767  1
  Zn  Zn139  1  0.44319108  0.44255538  0.18683903  1
  Zn  Zn140  1  0.43673889  0.43987708  0.68780116  1
  Zn  Zn141  1  0.44619494  0.92974839  0.18494380  1
  Zn  Zn142  1  0.43711097  0.94128832  0.67730800  1
  Zn  Zn143  1  0.93502916  0.43466567  0.18354241  1
  Zn  Zn144  1  0.93503663  0.44024587  0.68156328  1
  Zn  Zn145  1  0.93856940  0.93252534  0.18446507  1
  Zn  Zn146  1  0.93705552  0.93031173  0.69377955  1
  Zn  Zn147  1  0.06637010  0.06419978  0.31038495  1
  Zn  Zn148  1  0.06195516  0.06255789  0.81626494  1
  Zn  Zn149  1  0.06737803  0.56266320  0.31466200  1
  Zn  Zn150  1  0.05562807  0.57001209  0.80718562  1
  Zn  Zn151  1  0.58593516  0.00917947  0.33197246  1
  Zn  Zn152  1  0.55924801  0.06428825  0.80949306  1
  Zn  Zn153  1  0.56513810  0.55176212  0.32085901  1
  Zn  Zn154  1  0.56053531  0.56043902  0.80879442  1
  Zn  Zn155  1  0.43671875  0.19438848  0.44197766  1
  Zn  Zn156  1  0.43934491  0.18628754  0.94117876  1
  Zn  Zn157  1  0.43828066  0.68245878  0.43419589  1
  Zn  Zn158  1  0.43777163  0.69097040  0.93462225  1
  Zn  Zn159  1  0.93718270  0.19315534  0.43489368  1
  Zn  Zn160  1  0.93836892  0.19074380  0.94246082  1
  Zn  Zn161  1  0.93891454  0.68651163  0.43744347  1
  Zn  Zn162  1  0.93865092  0.68278399  0.92637848  1
  Zn  Zn163  1  0.05936829  0.31457377  0.06187928  1
  Zn  Zn164  1  0.05740255  0.31245154  0.56243309  1
  Zn  Zn165  1  0.06433676  0.81773118  0.06152632  1
  Zn  Zn166  1  0.06001841  0.80457953  0.56380707  1
  Zn  Zn167  1  0.56333385  0.31108297  0.06204833  1
  Zn  Zn168  1  0.56044122  0.30562120  0.55947181  1
  Zn  Zn169  1  0.56485993  0.81158006  0.05586337  1
  Zn  Zn170  1  0.54168463  0.79355419  0.51935762  1
  O  O171  1  0.13275069  0.11604163  0.11205982  1
  O  O172  1  0.12368838  0.11662909  0.61912853  1
  O  O173  1  0.12343179  0.61257569  0.12319349  1
  O  O174  1  0.13098445  0.62765563  0.60898394  1
  O  O175  1  0.61776679  0.12136079  0.11305720  1
  O  O176  1  0.63154133  0.11760857  0.61214967  1
  O  O177  1  0.62412697  0.61861991  0.11365106  1
  O  O178  1  0.61202075  0.62590383  0.62710011  1
  O  O179  1  0.38533785  0.37061968  0.36916802  1
  O  O180  1  0.37768729  0.38251811  0.87924277  1
  O  O181  1  0.36670536  0.88448019  0.40607796  1
  O  O182  1  0.38129675  0.88591885  0.86265568  1
  O  O183  1  0.88129627  0.36782986  0.38229647  1
  O  O184  1  0.88011041  0.38392324  0.88370533  1
  O  O185  1  0.88591563  0.88078263  0.38124343  1
  O  O186  1  0.88557074  0.88673079  0.88815361  1
  O  O187  1  0.24573835  0.00933545  0.36213378  1
  O  O188  1  0.25522717  0.01018377  0.87828872  1
  O  O189  1  0.24777187  0.50674051  0.36367531  1
  O  O190  1  0.26139786  0.50263896  0.86712577  1
  O  O191  1  0.75834620  0.00730226  0.36437190  1
  O  O192  1  0.76532003  0.00073019  0.87306249  1
  O  O193  1  0.74908675  0.50505137  0.36129021  1
  O  O194  1  0.75425041  0.50274670  0.86586887  1
  O  O195  1  0.24395664  0.49584988  0.12707275  1
  O  O196  1  0.25583061  0.49986106  0.63846707  1
  O  O197  1  0.24466493  0.99272031  0.12661189  1
  O  O198  1  0.23725447  0.98723400  0.61951800  1
  O  O199  1  0.73708864  0.50660707  0.13591510  1
  O  O200  1  0.75268698  0.48710013  0.62954033  1
  O  O201  1  0.74295609  1.00036626  0.12831087  1
  O  O202  1  0.75253112  0.98979824  0.64034227  1
  O  O203  1  0.00352177  0.36968895  0.25274656  1
  O  O204  1  0.00365658  0.37174917  0.75727910  1
  O  O205  1  -0.00083975  0.86674662  0.26286388  1
  O  O206  1  0.01373725  0.88024219  0.76338273  1
  O  O207  1  0.50419615  0.37519153  0.26051045  1
  O  O208  1  0.50621426  0.36907025  0.75258797  1
  O  O209  1  0.47063266  0.85875380  0.26831515  1
  O  O210  1  0.50795916  0.87693270  0.75338212  1
  O  O211  1  0.49797000  0.12740465  0.23317871  1
  O  O212  1  0.48835692  0.12942793  0.73923256  1
  O  O213  1  0.48500338  0.61236666  0.25791319  1
  O  O214  1  0.49161859  0.62551382  0.74052946  1
  O  O215  1  0.98814867  0.13237824  0.25468528  1
  O  O216  1  1.00585829  0.13976273  0.75148339  1
  O  O217  1  0.99656914  0.63074400  0.25186989  1
  O  O218  1  0.98880804  0.64290750  0.75932282  1
  O  O219  1  0.36672297  0.25718020  0.00589090  1
  O  O220  1  0.36150177  0.24526315  0.51303711  1
  O  O221  1  0.36551537  0.74367354  0.00675408  1
  O  O222  1  0.36336643  0.73779965  0.51306766  1
  O  O223  1  0.87676172  0.25736002  0.01327099  1
  O  O224  1  0.87329159  0.25979608  0.50678031  1
  O  O225  1  0.85812572  0.74218448  -0.00629310  1
  O  O226  1  0.86766492  0.75902853  0.49265430  1
  O  O227  1  0.12796987  0.24115983  0.50085090  1
  O  O228  1  0.13304742  0.24346539  1.00707612  1
  O  O229  1  0.13406165  0.74021170  0.48908327  1
  O  O230  1  0.13104682  0.75144340  0.98942019  1
  O  O231  1  0.63064777  0.23758910  0.49501938  1
  O  O232  1  0.62101726  0.23939746  0.99081564  1
  O  O233  1  0.64355789  0.73902131  0.50904973  1
  O  O234  1  0.63394048  0.74178972  0.99078216  1
  O  O235  1  0.49080503  0.24263881  0.12312066  1
  O  O236  1  0.48807417  0.24026461  0.62763497  1
  O  O237  1  0.49219558  0.74018479  0.11127470  1
  O  O238  1  0.49053441  0.74001537  0.61821960  1
  O  O239  1  0.99214616  0.25536761  0.13635045  1
  O  O240  1  0.99103633  0.24772517  0.63296208  1
  O  O241  1  1.01110889  0.74827952  0.13918706  1
  O  O242  1  1.00060711  0.73281205  0.62084589  1
  O  O243  1  -0.00006312  0.25925052  0.36010592  1
  O  O244  1  -0.01002522  0.26178080  0.86739122  1
  O  O245  1  0.01038172  0.75560214  0.36755571  1
  O  O246  1  0.00721978  0.76503698  0.88545650  1
  O  O247  1  0.50090465  0.26075735  0.37331219  1
  O  O248  1  0.50227595  0.25550237  0.86761983  1
  O  O249  1  0.51313077  0.75898171  0.40286665  1
  O  O250  1  0.50523802  0.75861991  0.86761523  1
  O  O251  1  0.23727653  0.13249774  0.49459284  1
  O  O252  1  0.24379010  0.13351335  0.99178213  1
  O  O253  1  0.24419354  0.63032211  0.49403292  1
  O  O254  1  0.24642245  0.63881321  0.99849703  1
  O  O255  1  0.74779752  0.12399960  0.49079068  1
  O  O256  1  0.73368470  0.12642781  1.00135691  1
  O  O257  1  0.75392389  0.62829851  0.49039380  1
  O  O258  1  0.73940090  0.62924204  0.99207220  1
  O  O259  1  0.25350025  0.37000916  0.00162255  1
  O  O260  1  0.24138566  0.36257929  0.49868712  1
  O  O261  1  0.24767631  0.86383959  0.01119284  1
  O  O262  1  0.23915493  0.86328192  0.51202655  1
  O  O263  1  0.75963767  0.37937234  -0.00332891  1
  O  O264  1  0.75319760  0.37427405  0.50308552  1
  O  O265  1  0.74809608  0.85763339  -0.01100410  1
  O  O266  1  0.75934615  0.86411348  0.49548547  1
  O  O267  1  0.13463544  0.49576800  0.24127034  1
  O  O268  1  0.13223236  0.49455778  0.75932330  1
  O  O269  1  0.13508468  1.00610260  0.23684456  1
  O  O270  1  0.12066098  0.99597635  0.73882072  1
  O  O271  1  0.63320788  0.49160292  0.24445165  1
  O  O272  1  0.63148868  0.48514097  0.75409304  1
  O  O273  1  0.64154944  1.01086300  0.23240515  1
  O  O274  1  0.63591253  0.99926086  0.74836890  1
  O  O275  1  0.36249609  0.00448032  0.23356676  1
  O  O276  1  0.37510984  0.01581393  0.75550468  1
  O  O277  1  0.36124770  0.50837617  0.23906222  1
  O  O278  1  0.36803138  0.50676242  0.75640784  1
  O  O279  1  0.87433198  0.00742793  0.25096608  1
  O  O280  1  0.87042189  -0.00124455  0.76576831  1
  O  O281  1  0.86689590  0.50560695  0.24266244  1
  O  O282  1  0.86029467  0.48564185  0.75940780  1
  O  O283  1  0.11672442  0.37056036  0.36423330  1
  O  O284  1  0.11026859  0.37925555  0.87015217  1
  O  O285  1  0.12010434  0.86586489  0.38044649  1
  O  O286  1  0.12027075  0.87377068  0.86974379  1
  O  O287  1  0.61751787  0.37180605  0.36202652  1
  O  O288  1  0.61754118  0.36646412  0.86699215  1
  O  O289  1  0.61267065  0.89145919  0.35279952  1
  O  O290  1  0.61688276  0.87422298  0.86541046  1
  O  O291  1  0.38263690  0.13439990  0.11340461  1
  O  O292  1  0.36751700  0.14221999  0.63979457  1
  O  O293  1  0.38374526  0.63475574  0.13388472  1
  O  O294  1  0.37964280  0.62953502  0.63438985  1
  O  O295  1  0.87481280  0.13827353  0.13007227  1
  O  O296  1  0.87382542  0.13918744  0.61798240  1
  O  O297  1  0.87811822  0.63212272  0.13769780  1
  O  O298  1  0.87388163  0.62774823  0.64150065  1
  O  O299  1  0.25622100  0.25650562  0.11461520  1
  O  O300  1  0.25276140  0.25411640  0.61763149  1
  O  O301  1  0.25422374  0.75567342  0.11909787  1
  O  O302  1  0.25464112  0.75883558  0.61925172  1
  O  O303  1  0.76022349  0.24771809  0.12955320  1
  O  O304  1  0.75686234  0.26162369  0.62358451  1
  O  O305  1  0.74953792  0.74636156  0.10693221  1
  O  O306  1  0.75286124  0.76217893  0.61940983  1
  O  O307  1  0.24366849  0.24349215  0.38169071  1
  O  O308  1  0.25275772  0.24422067  0.88684363  1
  O  O309  1  0.24613218  0.74373410  0.38278083  1
  O  O310  1  0.24359163  0.75250248  0.88183911  1
  O  O311  1  0.74693548  0.23197662  0.37203543  1
  O  O312  1  0.73734253  0.25575656  0.86669457  1
  O  O313  1  0.75131298  0.73984432  0.38159472  1
  O  O314  1  0.74354206  0.74136856  0.87862313  1
  O  O315  1  0.00918361  0.11599307  -0.00332437  1
  O  O316  1  0.00997784  0.12122783  0.49833314  1
  O  O317  1  -0.00037764  0.61204126  0.00038822  1
  O  O318  1  0.01843621  0.62056909  0.48764363  1
  O  O319  1  0.50749587  0.12180904  0.00952751  1
  O  O320  1  0.50978139  0.12937671  0.51072308  1
  O  O321  1  0.51515798  0.62286817  -0.01055823  1
  O  O322  1  0.50090725  0.61220530  0.50742296  1
  O  O323  1  0.50120668  0.37882743  0.48954893  1
  O  O324  1  0.49379057  0.37985069  0.99412277  1
  O  O325  1  0.51663261  0.89972769  0.50294086  1
  O  O326  1  0.50402095  0.87757914  0.98129000  1
  O  O327  1  0.99183003  0.37486244  0.48940547  1
  O  O328  1  0.99331423  0.38460253  0.99341959  1
  O  O329  1  0.99610790  0.87671225  0.48948812  1
  O  O330  1  1.00568125  0.89150631  0.99209496  1
  O  O331  1  0.49669803  0.48339817  0.38374318  1
  O  O332  1  0.48716780  0.49263684  0.87231998  1
  O  O333  1  0.48365166  1.00957496  0.37914595  1
  O  O334  1  0.48983870  0.99455707  0.87279889  1
  O  O335  1  1.00534926  0.48513685  0.37433269  1
  O  O336  1  0.99037586  0.49432158  0.88048417  1
  O  O337  1  1.00032169  0.99228954  0.37754794  1
  O  O338  1  0.99100721  0.99680895  0.88175943  1
  O  O339  1  0.01038906  -0.00182476  0.11859560  1
  O  O340  1  0.00477009  0.00139039  0.61971504  1
  O  O341  1  0.00770495  0.49911281  0.11669926  1
  O  O342  1  0.00148277  0.50419939  0.62081317  1
  O  O343  1  0.50855437  0.00432589  0.12213338  1
  O  O344  1  0.52577994  0.00931245  0.64201234  1
  O  O345  1  0.51505137  0.51819330  0.12978961  1
  O  O346  1  0.49796252  0.50398216  0.61576487  1
  O  O347  1  0.24496525  0.38069451  0.24365281  1
  O  O348  1  0.23602857  0.38379316  0.75120628  1
  O  O349  1  0.25979351  0.88318340  0.23795271  1
  O  O350  1  0.23644004  0.87455555  0.74119837  1
  O  O351  1  0.74181886  0.38113643  0.25330775  1
  O  O352  1  0.74105947  0.38174772  0.74069091  1
  O  O353  1  0.76136128  0.88484862  0.25179201  1
  O  O354  1  0.73842348  0.88974811  0.75985667  1
  O  O355  1  0.24631243  0.11896958  0.25910714  1
  O  O356  1  0.25304539  0.13576267  0.76393372  1
  O  O357  1  0.25439398  0.61717829  0.25596625  1
  O  O358  1  0.25614793  0.62020730  0.75161607  1
  O  O359  1  0.76348870  0.11792942  0.25433353  1
  O  O360  1  0.74665269  0.11704237  0.74774615  1
  O  O361  1  0.76028472  0.61818640  0.25651056  1
  O  O362  1  0.73964748  0.61141949  0.75327795  1
  O  O363  1  0.35985511  0.13292953  0.37934598  1
  O  O364  1  0.36691875  0.12059696  0.87101444  1
  O  O365  1  0.36156812  0.62883420  0.36755109  1
  O  O366  1  0.37567974  0.61967220  0.86285875  1
  O  O367  1  0.87077504  0.12041979  0.36743363  1
  O  O368  1  0.87895613  0.11537493  0.87723495  1
  O  O369  1  0.86858291  0.62629434  0.36280663  1
  O  O370  1  0.86511728  0.60839773  0.87840845  1
  O  O371  1  0.13044073  0.38545667  0.12811651  1
  O  O372  1  0.12384024  0.37621573  0.63515200  1
  O  O373  1  0.13637948  0.88517981  0.12421076  1
  O  O374  1  0.12700398  0.87955802  0.63269968  1
  O  O375  1  0.61505950  0.38345148  0.13703727  1
  O  O376  1  0.63155409  0.36471920  0.63271306  1
  O  O377  1  0.61955768  0.88804026  0.12059221  1
  O  O378  1  0.64462358  0.88224310  0.64144543  1
  O  O379  1  0.11723287  0.25543431  0.24566974  1
  O  O380  1  0.11192099  0.26416915  0.74869494  1
  O  O381  1  0.12213925  0.74384033  0.26324533  1
  O  O382  1  0.13036729  0.75977095  0.76448733  1
  O  O383  1  0.62115055  0.25541817  0.25019063  1
  O  O384  1  0.61671764  0.25526293  0.75518579  1
  O  O385  1  0.59542928  0.71429521  0.22433587  1
  O  O386  1  0.62465431  0.76172112  0.75366481  1
  O  O387  1  0.37323129  0.25309949  0.23260913  1
  O  O388  1  0.37945408  0.24464667  0.74868704  1
  O  O389  1  0.36500055  0.73658616  0.23956290  1
  O  O390  1  0.37556709  0.74167781  0.73909819  1
  O  O391  1  0.87907368  0.24465920  0.23859019  1
  O  O392  1  0.88522333  0.25912985  0.73786649  1
  O  O393  1  0.88856657  0.74150493  0.25137465  1
  O  O394  1  0.85810952  0.81243309  0.72734152  1
  O  O395  1  0.39244413  0.50064016  0.50091150  1
  O  O396  1  0.37606487  0.49854091  0.99251460  1
  O  O397  1  0.40037525  1.02365967  0.56577558  1
  O  O398  1  0.37685359  1.00238488  0.98433384  1
  O  O399  1  0.87528713  0.48729146  0.50051421  1
  O  O400  1  0.87918661  0.49380433  0.99736773  1
  O  O401  1  0.88330027  0.99608455  0.48864337  1
  O  O402  1  0.88266177  1.00577725  0.99353684  1
  O  O403  1  0.11964010  0.00752692  0.00922693  1
  O  O404  1  0.12016847  0.00572048  0.50861436  1
  O  O405  1  0.11690994  0.50003711  0.00571010  1
  O  O406  1  0.12966059  0.51469446  0.49566772  1
  O  O407  1  0.62425337  0.01050458  0.00552345  1
  O  O408  1  0.64511568  0.00412267  0.51491690  1
  O  O409  1  0.62425742  0.50442376  0.00705908  1
  O  O410  1  0.60598684  0.50100869  0.49463782  1
  O  O411  1  0.37194624  0.37218616  0.11756942  1
  O  O412  1  0.36837524  0.36445300  0.63444510  1
  O  O413  1  0.37018751  0.85957177  0.12330876  1
  O  O414  1  0.36390754  0.86488893  0.63179406  1
  O  O415  1  0.87430053  0.36241960  0.11666123  1
  O  O416  1  0.86583976  0.36692996  0.61471782  1
  O  O417  1  0.88382718  0.86493757  0.11589147  1
  O  O418  1  0.87204689  0.89255709  0.60348501  1
  O  O419  1  0.13274778  0.12684957  0.38366840  1
  O  O420  1  0.13292671  0.11926493  0.88845090  1
  O  O421  1  0.13834590  0.63111211  0.37970996  1
  O  O422  1  0.12678622  0.63578165  0.87764645  1
  O  O423  1  0.63382869  0.11350625  0.38756828  1
  O  O424  1  0.61715425  0.13230774  0.88725161  1
  O  O425  1  0.64068566  0.62043347  0.37356606  1
  O  O426  1  0.63019244  0.62751044  0.87677309  1
