# generated using pymatgen
data_V85Zn86O256
_symmetry_space_group_name_H-M   'P 1'
_cell_length_a   16.95310756
_cell_length_b   16.93954600
_cell_length_c   16.95840486
_cell_angle_alpha   90.01826071
_cell_angle_beta   89.94832983
_cell_angle_gamma   89.94999322
_symmetry_Int_Tables_number   1
_chemical_formula_structural   V85Zn86O256
_chemical_formula_sum   'V85 Zn86 O256'
_cell_volume   4870.07577876
_cell_formula_units_Z   1
loop_
 _symmetry_equiv_pos_site_id
 _symmetry_equiv_pos_as_xyz
  1  'x, y, z'
loop_
 _atom_site_type_symbol
 _atom_site_label
 _atom_site_symmetry_multiplicity
 _atom_site_fract_x
 _atom_site_fract_y
 _atom_site_fract_z
 _atom_site_occupancy
  V  V0  1  0.25230860  0.62546052  0.87429798  1
  V  V1  1  0.37886874  0.74808046  0.62405778  1
  V  V2  1  0.75475672  0.12843097  0.37888775  1
  V  V3  1  -0.00002663  0.12393443  0.61043339  1
  V  V4  1  0.50833904  0.86946761  0.87566474  1
  V  V5  1  0.00332426  0.49609198  0.49810296  1
  V  V6  1  0.62100945  0.62343710  0.50261954  1
  V  V7  1  0.61830337  0.12727596  0.50520029  1
  V  V8  1  0.37812154  0.48982526  0.88018410  1
  V  V9  1  0.00362353  0.86836502  0.38035805  1
  V  V10  1  0.87905143  0.74445070  0.13155300  1
  V  V11  1  0.12452816  0.24820167  0.87545626  1
  V  V12  1  0.25584505  0.25106770  -0.00459049  1
  V  V13  1  0.24758833  0.87566747  0.12613844  1
  V  V14  1  0.25295002  0.49801562  0.74760316  1
  V  V15  1  0.11893430  0.00782987  0.12889166  1
  V  V16  1  0.37475797  0.87546940  -0.00001063  1
  V  V17  1  0.87659129  0.88285508  0.50000328  1
  V  V18  1  0.49850483  0.75383694  0.25551321  1
  V  V19  1  0.74956892  0.87057215  0.62461509  1
  V  V20  1  0.62804658  0.37525816  0.25139959  1
  V  V21  1  0.12702310  0.63395808  0.49668272  1
  V  V22  1  0.62324187  0.75202079  0.37724652  1
  V  V23  1  0.12531563  0.24408384  0.38124463  1
  V  V24  1  0.12706763  0.75136113  0.87598098  1
  V  V25  1  0.87506180  0.87419868  0.00442533  1
  V  V26  1  0.75270498  0.00005045  0.25544460  1
  V  V27  1  0.74781329  0.00135663  0.74980281  1
  V  V28  1  0.87522837  0.37581597  0.00502134  1
  V  V29  1  0.12504485  0.37434057  0.74660316  1
  V  V30  1  0.38157472  -0.00475157  0.37290169  1
  V  V31  1  0.87852207  0.12960041  0.23955340  1
  V  V32  1  0.00135860  0.87610156  0.87776216  1
  V  V33  1  0.61425678  -0.00375598  0.62718772  1
  V  V34  1  0.62908272  0.25029337  0.37437932  1
  V  V35  1  0.86962644  0.37336465  0.50855139  1
  V  V36  1  0.49651400  0.00319564  0.00486936  1
  V  V37  1  0.49459295  0.50260424  0.51012094  1
  V  V38  1  0.75438789  0.24863118  0.00151548  1
  V  V39  1  0.75492134  0.51198151  0.25739749  1
  V  V40  1  0.50652151  0.74841984  0.75342237  1
  V  V41  1  0.37737268  0.50250508  0.36572056  1
  V  V42  1  0.25066906  0.75042626  0.00021338  1
  V  V43  1  0.62565870  0.50206917  0.12766302  1
  V  V44  1  0.62408108  0.12368307  0.00062643  1
  V  V45  1  0.12627121  0.37315586  0.24971739  1
  V  V46  1  0.38225700  0.24785239  0.11906573  1
  V  V47  1  -0.00228576  0.01020964  0.00531114  1
  V  V48  1  -0.00388833  0.50231656  -0.00199809  1
  V  V49  1  0.62041602  0.00307260  0.12974784  1
  V  V50  1  0.12454245  0.62449938  0.00018182  1
  V  V51  1  0.37672812  0.12442936  0.24479529  1
  V  V52  1  0.86905980  0.62680706  0.75657385  1
  V  V53  1  0.25021917  0.63001595  0.36602795  1
  V  V54  1  0.24858090  0.00038959  0.24814015  1
  V  V55  1  0.36064540  0.36686780  0.50061320  1
  V  V56  1  0.24904073  0.12665137  0.38191664  1
  V  V57  1  0.62107613  0.62873923  -0.00735618  1
  V  V58  1  0.49672162  0.48847475  -0.00004790  1
  V  V59  1  0.82093909  0.44907700  0.82082654  1
  V  V60  1  0.25342199  0.12569222  0.86845300  1
  V  V61  1  0.49938354  -0.00263806  0.49583148  1
  V  V62  1  0.61627274  0.26602610  0.87552314  1
  V  V63  1  0.12708004  0.87839154  0.74873011  1
  V  V64  1  0.87328400  0.00005309  0.87487301  1
  V  V65  1  0.63949794  0.49344201  0.63522856  1
  V  V66  1  0.37784419  0.00136580  0.86218020  1
  V  V67  1  -0.00024876  0.37748649  0.87418058  1
  V  V68  1  0.11960927  -0.00090815  0.60475783  1
  V  V69  1  0.49779771  0.62410784  0.13111172  1
  V  V70  1  0.13240069  0.50099792  0.62257643  1
  V  V71  1  0.25415911  0.87803519  0.62047634  1
  V  V72  1  0.74892467  0.87410625  0.12980503  1
  V  V73  1  0.11720064  0.86271164  0.25300010  1
  V  V74  1  0.38109574  0.62262051  0.74610582  1
  V  V75  1  0.50217480  0.24517293  0.24797153  1
  V  V76  1  0.38226657  0.87314907  0.49584991  1
  V  V77  1  0.75728659  0.37190891  0.13054341  1
  V  V78  1  0.12668288  0.49735976  0.12300343  1
  V  V79  1  0.75500918  0.74068051  0.49333368  1
  V  V80  1  -0.00292439  0.24728035  0.23650370  1
  V  V81  1  0.74510774  0.75030076  -0.00489459  1
  V  V82  1  0.37423251  0.74531041  0.13057170  1
  V  V83  1  0.00009653  0.74826777  0.74942684  1
  V  V84  1  0.25727252  0.37214153  0.12222688  1
  Zn  Zn85  1  0.28822184  0.31853666  0.66510821  1
  Zn  Zn86  1  0.74102421  0.26208991  0.52262233  1
  Zn  Zn87  1  0.87985211  0.12134842  0.74732215  1
  Zn  Zn88  1  0.24965315  0.00027087  0.74666233  1
  Zn  Zn89  1  0.88699450  0.63697954  0.27130508  1
  Zn  Zn90  1  -0.00794591  0.24624246  0.74978172  1
  Zn  Zn91  1  0.62679455  0.86839168  0.75441700  1
  Zn  Zn92  1  0.49898339  0.37693427  0.37460660  1
  Zn  Zn93  1  0.87628163  0.74831795  0.62466643  1
  Zn  Zn94  1  0.74951338  0.12655947  0.87574637  1
  Zn  Zn95  1  0.00058277  0.62560194  0.62463628  1
  Zn  Zn96  1  0.24986983  0.75100814  0.49487768  1
  Zn  Zn97  1  0.86690203  0.24474415  0.62782239  1
  Zn  Zn98  1  -0.00105981  0.37174329  0.37631443  1
  Zn  Zn99  1  0.12178336  0.12824800  0.00442887  1
  Zn  Zn100  1  0.62042407  0.87872436  0.26011626  1
  Zn  Zn101  1  0.88888198  0.00694003  0.37950692  1
  Zn  Zn102  1  0.00327040  0.62814228  0.13226394  1
  Zn  Zn103  1  0.44716313  0.22224629  0.69192852  1
  Zn  Zn104  1  0.25569073  0.50069904  0.24617145  1
  Zn  Zn105  1  0.87037605  0.50440686  0.38365038  1
  Zn  Zn106  1  0.74666229  0.62466545  0.87167915  1
  Zn  Zn107  1  0.18972031  0.18833494  0.18996587  1
  Zn  Zn108  1  0.18145164  0.18201954  0.68913896  1
  Zn  Zn109  1  0.18716221  0.68474351  0.18647074  1
  Zn  Zn110  1  0.19065593  0.68832784  0.68455043  1
  Zn  Zn111  1  0.69110689  0.18536539  0.18591658  1
  Zn  Zn112  1  0.63532000  0.20989485  0.66923069  1
  Zn  Zn113  1  0.68550281  0.68952192  0.18582590  1
  Zn  Zn114  1  0.68611332  0.67941817  0.68123723  1
  Zn  Zn115  1  0.31218106  0.31317547  0.31434716  1
  Zn  Zn116  1  0.38000107  0.31540564  0.81192555  1
  Zn  Zn117  1  0.31125254  0.81241095  0.31053676  1
  Zn  Zn118  1  0.31739122  0.81484511  0.81014023  1
  Zn  Zn119  1  0.81773659  0.31722870  0.31888805  1
  Zn  Zn120  1  0.76284386  0.27504545  0.75305361  1
  Zn  Zn121  1  0.81335000  0.81393928  0.31729681  1
  Zn  Zn122  1  0.81255002  0.81312041  0.81340928  1
  Zn  Zn123  1  0.18685204  0.44185926  0.43009519  1
  Zn  Zn124  1  0.19126069  0.43470137  0.93575594  1
  Zn  Zn125  1  0.19351614  0.93524292  0.43127495  1
  Zn  Zn126  1  0.18728547  0.94138233  0.93909907  1
  Zn  Zn127  1  0.68497549  0.43857587  0.44055970  1
  Zn  Zn128  1  0.68403115  0.43829098  0.94511097  1
  Zn  Zn129  1  0.68856047  0.93434407  0.43879860  1
  Zn  Zn130  1  0.68707933  0.93702072  0.94104200  1
  Zn  Zn131  1  0.30996163  0.06554164  0.06004314  1
  Zn  Zn132  1  0.30274895  0.18189486  0.56327815  1
  Zn  Zn133  1  0.31356212  0.56282869  0.06311514  1
  Zn  Zn134  1  0.31303062  0.56273261  0.55861159  1
  Zn  Zn135  1  0.81062012  0.06139816  0.06582310  1
  Zn  Zn136  1  0.80663204  0.06337855  0.56430215  1
  Zn  Zn137  1  0.80964004  0.56259133  0.06309400  1
  Zn  Zn138  1  0.81612108  0.56411531  0.56753651  1
  Zn  Zn139  1  0.43993533  0.43250578  0.18675294  1
  Zn  Zn140  1  0.44600763  0.42699053  0.68485881  1
  Zn  Zn141  1  0.43765233  0.93375642  0.18704585  1
  Zn  Zn142  1  0.43119510  1.05981621  0.68032582  1
  Zn  Zn143  1  0.93937479  0.44055532  0.18886549  1
  Zn  Zn144  1  0.94392570  0.43688159  0.68091711  1
  Zn  Zn145  1  0.93762785  0.93730378  0.19242937  1
  Zn  Zn146  1  0.93919282  0.93767604  0.68558816  1
  Zn  Zn147  1  0.06009528  0.06102241  0.31531561  1
  Zn  Zn148  1  0.06001628  0.06568462  0.81165747  1
  Zn  Zn149  1  0.06312263  0.56331567  0.31299421  1
  Zn  Zn150  1  0.06229688  0.56291037  0.81391867  1
  Zn  Zn151  1  0.56260681  0.06623711  0.31398200  1
  Zn  Zn152  1  0.56236434  0.06760078  0.81249745  1
  Zn  Zn153  1  0.56465987  0.56691279  0.31697505  1
  Zn  Zn154  1  0.56044378  0.55745132  0.81314362  1
  Zn  Zn155  1  0.43923068  0.18717455  0.43634074  1
  Zn  Zn156  1  0.44052203  0.18171624  0.93427523  1
  Zn  Zn157  1  0.43600436  0.68342662  0.43578498  1
  Zn  Zn158  1  0.43711469  0.68316611  0.93879412  1
  Zn  Zn159  1  0.93842095  0.19388047  0.43641419  1
  Zn  Zn160  1  0.93469615  0.19033457  0.93593843  1
  Zn  Zn161  1  0.94013257  0.68681359  0.43725441  1
  Zn  Zn162  1  0.93530183  0.68752975  0.93903920  1
  Zn  Zn163  1  0.06474757  0.31407816  0.06106150  1
  Zn  Zn164  1  0.06982591  0.30841202  0.56554749  1
  Zn  Zn165  1  0.06125481  0.81677913  0.06470036  1
  Zn  Zn166  1  0.05981642  0.81284308  0.56206099  1
  Zn  Zn167  1  0.56706925  0.31076218  0.06507273  1
  Zn  Zn168  1  0.55536866  0.32152148  0.55929736  1
  Zn  Zn169  1  0.56273653  0.81490240  0.06618988  1
  Zn  Zn170  1  0.56046014  0.81043636  0.56505704  1
  O  O171  1  0.13053226  0.11176185  0.12473011  1
  O  O172  1  0.11482299  0.10461590  0.62611511  1
  O  O173  1  0.12592616  0.61676665  0.11675996  1
  O  O174  1  0.12631328  0.61787799  0.61704748  1
  O  O175  1  0.63025254  0.11155151  0.11710386  1
  O  O176  1  0.63928684  0.10619923  0.60870449  1
  O  O177  1  0.61742561  0.61993066  0.11833819  1
  O  O178  1  0.62312350  0.61347546  0.61040800  1
  O  O179  1  0.37612999  0.38407944  0.38079913  1
  O  O180  1  0.36190240  0.39090869  0.88878711  1
  O  O181  1  0.36836013  0.88326953  0.38164064  1
  O  O182  1  0.38112053  0.88282269  0.88258566  1
  O  O183  1  0.88081409  0.38206387  0.38990928  1
  O  O184  1  0.88049427  0.38670244  0.88333514  1
  O  O185  1  0.88485683  0.87763962  0.38220506  1
  O  O186  1  0.88025085  0.88340855  0.88305582  1
  O  O187  1  0.26016147  0.00555693  0.36525254  1
  O  O188  1  0.26001367  0.00602162  0.87709172  1
  O  O189  1  0.25937690  0.50880412  0.36956245  1
  O  O190  1  0.25420256  0.50752357  0.86778198  1
  O  O191  1  0.74821194  0.00740545  0.36545274  1
  O  O192  1  0.75787964  -0.00641716  0.86924474  1
  O  O193  1  0.74656162  0.49587128  0.35930883  1
  O  O194  1  0.75546014  0.50296096  0.88042784  1
  O  O195  1  0.24724255  0.49021715  0.12458273  1
  O  O196  1  0.24055161  0.50572450  0.63205554  1
  O  O197  1  0.24301112  0.99361838  0.12814020  1
  O  O198  1  0.23202662  0.98597603  0.62851875  1
  O  O199  1  0.74533525  0.49268628  0.13451039  1
  O  O200  1  0.73885543  0.50348407  0.62552994  1
  O  O201  1  0.74405117  0.99552908  0.13835404  1
  O  O202  1  0.74357006  0.98703974  0.63164186  1
  O  O203  1  0.00683690  0.36536488  0.25037252  1
  O  O204  1  0.00789917  0.37445106  0.75731834  1
  O  O205  1  0.01176863  0.87361448  0.25557931  1
  O  O206  1  0.00550319  0.86515796  0.75635436  1
  O  O207  1  0.50889879  0.36249079  0.25060931  1
  O  O208  1  0.46781962  0.33688762  0.74171770  1
  O  O209  1  0.50345500  0.85887803  0.24401173  1
  O  O210  1  0.50317234  0.86223632  0.76425951  1
  O  O211  1  0.49357068  0.13681596  0.25103632  1
  O  O212  1  0.49018324  0.12411345  0.75392904  1
  O  O213  1  0.50642697  0.63409083  0.23719971  1
  O  O214  1  0.48586219  0.63040808  0.75797142  1
  O  O215  1  0.99334388  0.13764483  0.25170288  1
  O  O216  1  0.99838375  0.12480150  0.73860567  1
  O  O217  1  0.99570736  0.61583059  0.24377755  1
  O  O218  1  0.99797408  0.63726197  0.75323234  1
  O  O219  1  0.36949318  0.24166399  0.00858770  1
  O  O220  1  0.37233658  0.26272743  0.48999209  1
  O  O221  1  0.37007404  0.75443395  0.00936254  1
  O  O222  1  0.37571340  0.75436997  0.50673080  1
  O  O223  1  0.86905001  0.26508929  -0.00347739  1
  O  O224  1  0.87028504  0.26157205  0.50390796  1
  O  O225  1  0.86743493  0.75599021  0.00905046  1
  O  O226  1  0.86722187  0.75821677  0.50307587  1
  O  O227  1  0.12050995  0.25245283  0.47889647  1
  O  O228  1  0.13089109  0.25043615  0.98989467  1
  O  O229  1  0.12724451  0.73735029  0.50464333  1
  O  O230  1  0.13035967  0.74644836  0.99725459  1
  O  O231  1  0.62810617  0.24382806  0.48837876  1
  O  O232  1  0.62951777  0.24076231  0.99700572  1
  O  O233  1  0.62778209  0.74259492  0.49727678  1
  O  O234  1  0.63265083  0.74185092  1.00943795  1
  O  O235  1  0.48970975  0.25263675  0.13022352  1
  O  O236  1  0.53715559  0.23217791  0.61980994  1
  O  O237  1  0.49256306  0.74380110  0.12982021  1
  O  O238  1  0.48516019  0.75537418  0.63566193  1
  O  O239  1  1.00480888  0.25166309  0.13732926  1
  O  O240  1  1.00528517  0.23206482  0.62653890  1
  O  O241  1  0.98243602  0.75124423  0.11892166  1
  O  O242  1  0.99948231  0.74842658  0.63691550  1
  O  O243  1  0.01269819  0.25066683  0.36375183  1
  O  O244  1  0.00800819  0.25791584  0.87505455  1
  O  O245  1  -0.00179526  0.76693083  0.37522375  1
  O  O246  1  0.00720997  0.75658472  0.87159876  1
  O  O247  1  0.51251652  0.25045512  0.36609001  1
  O  O248  1  0.51717111  0.24655118  0.88260060  1
  O  O249  1  0.50521804  0.74267999  0.36470647  1
  O  O250  1  0.49056264  0.75782167  0.86848517  1
  O  O251  1  0.25337028  0.11886627  0.48018669  1
  O  O252  1  0.24521618  0.13511566  0.99297813  1
  O  O253  1  0.24333582  0.62622689  0.48988577  1
  O  O254  1  0.24493974  0.63169356  0.99465932  1
  O  O255  1  0.74286237  0.12563294  0.48759616  1
  O  O256  1  0.74403447  0.13184599  1.00323352  1
  O  O257  1  0.74305832  0.63618605  0.50842712  1
  O  O258  1  0.74014947  0.63252014  0.99974527  1
  O  O259  1  0.24568354  0.36006554  0.00792148  1
  O  O260  1  0.26272049  0.38090778  0.49099451  1
  O  O261  1  0.25316011  0.86937972  0.00649515  1
  O  O262  1  0.25891247  0.87201685  0.50385895  1
  O  O263  1  0.75728347  0.37159408  0.01002162  1
  O  O264  1  0.76490450  0.37702058  0.49735878  1
  O  O265  1  0.75469262  0.86984409  0.00925445  1
  O  O266  1  0.75580816  0.86592275  0.50741875  1
  O  O267  1  0.12651811  0.48515576  0.24268222  1
  O  O268  1  0.13186456  0.49722779  0.74441337  1
  O  O269  1  0.12901534  0.99342091  0.24315623  1
  O  O270  1  0.12260306  0.98379519  0.75303438  1
  O  O271  1  0.63346748  0.49688744  0.24670827  1
  O  O272  1  0.61845780  0.50353581  0.73420826  1
  O  O273  1  0.63069494  1.00093661  0.24572501  1
  O  O274  1  0.63093983  0.99519245  0.74276854  1
  O  O275  1  0.37204407  0.00563590  0.25181018  1
  O  O276  1  0.37113374  -0.00634431  0.75989222  1
  O  O277  1  0.37715880  0.49472183  0.26130949  1
  O  O278  1  0.37005536  0.50463371  0.75579083  1
  O  O279  1  0.86750452  0.00881622  0.25356446  1
  O  O280  1  0.86917671  -0.00578109  0.76026080  1
  O  O281  1  0.86081207  0.49850995  0.25123801  1
  O  O282  1  0.88013271  0.50568522  0.75419250  1
  O  O283  1  0.12674771  0.36474410  0.36390017  1
  O  O284  1  0.12217318  0.36973651  0.86580478  1
  O  O285  1  0.11995107  0.87534414  0.36210652  1
  O  O286  1  0.12274813  0.86963308  0.86920788  1
  O  O287  1  0.62433495  0.36630680  0.36947403  1
  O  O288  1  0.62195214  0.36511166  0.88487814  1
  O  O289  1  0.62494654  0.85904641  0.37820317  1
  O  O290  1  0.61190003  0.87593092  0.87860065  1
  O  O291  1  0.37015503  0.13248257  0.13661062  1
  O  O292  1  0.38722584  0.14041558  0.61807809  1
  O  O293  1  0.38285320  0.63479631  0.12233813  1
  O  O294  1  0.36671426  0.63435169  0.63444559  1
  O  O295  1  0.86800894  0.12598149  0.14038115  1
  O  O296  1  0.88889057  0.11830984  0.62319391  1
  O  O297  1  0.87436958  0.63990269  0.12170081  1
  O  O298  1  0.88100034  0.62745515  0.64022896  1
  O  O299  1  0.25941202  0.25371954  0.11844583  1
  O  O300  1  0.22080124  0.24772521  0.60810074  1
  O  O301  1  0.25750015  0.75341423  0.12139532  1
  O  O302  1  0.25811919  0.76091902  0.62344142  1
  O  O303  1  0.74329549  0.26000242  0.11431315  1
  O  O304  1  0.74438325  0.24376466  0.63573805  1
  O  O305  1  0.75666724  0.75520768  0.11730701  1
  O  O306  1  0.74891833  0.76003462  0.61868697  1
  O  O307  1  0.23614122  0.24050919  0.36286663  1
  O  O308  1  0.24295917  0.24192076  0.88386638  1
  O  O309  1  0.25524354  0.73449239  0.37469865  1
  O  O310  1  0.24700752  0.74653001  0.87948282  1
  O  O311  1  0.74104252  0.24366151  0.37183698  1
  O  O312  1  0.74098880  0.24800720  0.89526837  1
  O  O313  1  0.74190327  0.75372894  0.38606259  1
  O  O314  1  0.75308287  0.75190439  0.89158719  1
  O  O315  1  -0.00141488  0.11346599  -0.00165726  1
  O  O316  1  -0.00206410  0.12539078  0.51063924  1
  O  O317  1  0.00519938  0.61765208  0.00323304  1
  O  O318  1  0.01131562  0.61704056  0.50180536  1
  O  O319  1  0.50724390  0.11014467  0.00030858  1
  O  O320  1  0.51308647  0.11489474  0.48689286  1
  O  O321  1  0.50590136  0.62193839  0.01187256  1
  O  O322  1  0.50386874  0.61125172  0.49763047  1
  O  O323  1  0.48827501  0.38794219  0.49387821  1
  O  O324  1  0.50265011  0.38984592  1.01255930  1
  O  O325  1  0.48862018  0.87780179  0.50227477  1
  O  O326  1  0.49474031  0.88223978  0.99703824  1
  O  O327  1  0.99510262  0.37998018  0.50168380  1
  O  O328  1  0.99280016  0.37973996  0.99590123  1
  O  O329  1  0.99169627  0.87223444  0.49134769  1
  O  O330  1  0.99413467  0.88353586  0.99503050  1
  O  O331  1  0.49211641  0.50098402  0.38066563  1
  O  O332  1  0.49026377  0.50216572  0.88637915  1
  O  O333  1  0.48819705  1.00065172  0.37340833  1
  O  O334  1  0.49274895  0.99090258  0.88444381  1
  O  O335  1  1.00659139  0.49419246  0.39071105  1
  O  O336  1  1.00831057  0.49423118  0.89028508  1
  O  O337  1  1.00067108  0.98181969  0.36919119  1
  O  O338  1  0.99345317  0.99472926  0.88340402  1
  O  O339  1  0.00692507  -0.00591938  0.11781210  1
  O  O340  1  0.01202577  0.00294974  0.62409433  1
  O  O341  1  0.00933149  0.49592519  0.11250734  1
  O  O342  1  0.01489160  0.50356738  0.61636909  1
  O  O343  1  0.50853123  -0.00607383  0.11805931  1
  O  O344  1  0.51052234  -0.00431088  0.61763197  1
  O  O345  1  0.50309489  0.50797627  0.12304939  1
  O  O346  1  0.49605983  0.50004462  0.61183662  1
  O  O347  1  0.24320494  0.37340122  0.23972004  1
  O  O348  1  0.24163901  0.39100836  0.74904912  1
  O  O349  1  0.24007580  0.88068922  0.24557528  1
  O  O350  1  0.24251559  0.87375177  0.74126453  1
  O  O351  1  0.74711133  0.37823669  0.24488551  1
  O  O352  1  0.76466677  0.39018662  0.76644679  1
  O  O353  1  0.74733259  0.88490600  0.24915290  1
  O  O354  1  0.74681529  0.87838000  0.74302489  1
  O  O355  1  0.25899823  0.11793697  0.25282938  1
  O  O356  1  0.23634265  0.11595353  0.76616580  1
  O  O357  1  0.24520624  0.62065018  0.26150027  1
  O  O358  1  0.25641981  0.61678621  0.75474923  1
  O  O359  1  0.75613937  0.12097883  0.26015145  1
  O  O360  1  0.75520953  0.10417626  0.75524641  1
  O  O361  1  0.75138564  0.61255681  0.24427424  1
  O  O362  1  0.76018688  0.63404064  0.75487516  1
  O  O363  1  0.36999322  0.11977568  0.36213131  1
  O  O364  1  0.36483919  0.11311175  0.88231505  1
  O  O365  1  0.36105801  0.61582582  0.37802814  1
  O  O366  1  0.36708264  0.61955961  0.86730692  1
  O  O367  1  0.86856785  0.12534179  0.36981109  1
  O  O368  1  0.87167320  0.10979474  0.87833193  1
  O  O369  1  0.87231864  0.61853294  0.38130102  1
  O  O370  1  0.87457502  0.62788541  0.86290325  1
  O  O371  1  0.13699601  0.37688676  0.12927965  1
  O  O372  1  0.11983712  0.38366085  0.63943340  1
  O  O373  1  0.12776447  0.88305393  0.13496447  1
  O  O374  1  0.12688379  0.88059298  0.63033148  1
  O  O375  1  0.63582469  0.38154670  0.13182089  1
  O  O376  1  0.62376967  0.39555281  0.61418188  1
  O  O377  1  0.63223406  0.88694387  0.12882180  1
  O  O378  1  0.63247000  0.88040526  0.62602618  1
  O  O379  1  0.11631921  0.25706119  0.25039778  1
  O  O380  1  0.12472893  0.25905441  0.76232819  1
  O  O381  1  0.12730002  0.76492080  0.24220925  1
  O  O382  1  0.12034667  0.75840590  0.75404647  1
  O  O383  1  0.61983327  0.25109499  0.25321514  1
  O  O384  1  0.64856447  0.24585007  0.77733462  1
  O  O385  1  0.61847852  0.75023636  0.25925713  1
  O  O386  1  0.60940423  0.74433174  0.74312333  1
  O  O387  1  0.38288357  0.24362664  0.24440901  1
  O  O388  1  0.33883192  0.24500165  0.73799570  1
  O  O389  1  0.38144640  0.75406978  0.23834478  1
  O  O390  1  0.37981214  0.74193454  0.74325832  1
  O  O391  1  0.88973334  0.24649434  0.25536157  1
  O  O392  1  0.87261726  0.24010484  0.74715329  1
  O  O393  1  0.86474216  0.74926560  0.23520404  1
  O  O394  1  0.88459870  0.74590297  0.75063931  1
  O  O395  1  0.38247009  0.49684237  0.49059473  1
  O  O396  1  0.38557124  0.51017764  0.99168794  1
  O  O397  1  0.38521104  0.99014795  0.48757471  1
  O  O398  1  0.38204677  0.99495688  0.99826292  1
  O  O399  1  0.88568600  0.49104798  0.50690684  1
  O  O400  1  0.88329328  0.48974207  1.00777171  1
  O  O401  1  0.86357166  0.98585878  0.49687667  1
  O  O402  1  0.87917384  0.99384028  0.99759937  1
  O  O403  1  0.11431696  -0.00037918  0.00938869  1
  O  O404  1  0.12563677  -0.00815423  0.50714047  1
  O  O405  1  0.12162265  0.50382401  0.00435824  1
  O  O406  1  0.12346564  0.50385385  0.50737124  1
  O  O407  1  0.61881772  0.00384744  0.00974651  1
  O  O408  1  0.61803847  0.00192839  0.50353363  1
  O  O409  1  0.61697062  0.50880566  0.00928459  1
  O  O410  1  0.61210520  0.50613120  0.50013785  1
  O  O411  1  0.36470744  0.36439647  0.12887360  1
  O  O412  1  0.36706630  0.38114645  0.60464675  1
  O  O413  1  0.36763782  0.86726592  0.11902723  1
  O  O414  1  0.36413019  0.86719227  0.61311721  1
  O  O415  1  0.86486312  0.37729998  0.12073693  1
  O  O416  1  0.88112449  0.36984950  0.61258221  1
  O  O417  1  0.86882719  0.86732839  0.12383313  1
  O  O418  1  0.86794041  0.87284625  0.61857769  1
  O  O419  1  0.13299706  0.13582823  0.36539008  1
  O  O420  1  0.12876264  0.13325333  0.88028087  1
  O  O421  1  0.14045638  0.61649228  0.38324505  1
  O  O422  1  0.13231860  0.63205172  0.88044084  1
  O  O423  1  0.63391773  0.13177053  0.37988605  1
  O  O424  1  0.63043394  0.11823656  0.89273709  1
  O  O425  1  0.62342921  0.63652043  0.38933219  1
  O  O426  1  0.62353545  0.62107983  0.88933615  1
