# generated using pymatgen
data_V85Zn86O256
_symmetry_space_group_name_H-M   'P 1'
_cell_length_a   16.94355606
_cell_length_b   16.93368577
_cell_length_c   16.96395024
_cell_angle_alpha   90.01415480
_cell_angle_beta   90.00659930
_cell_angle_gamma   90.00276188
_symmetry_Int_Tables_number   1
_chemical_formula_structural   V85Zn86O256
_chemical_formula_sum   'V85 Zn86 O256'
_cell_volume   4867.24305349
_cell_formula_units_Z   1
loop_
 _symmetry_equiv_pos_site_id
 _symmetry_equiv_pos_as_xyz
  1  'x, y, z'
loop_
 _atom_site_type_symbol
 _atom_site_label
 _atom_site_symmetry_multiplicity
 _atom_site_fract_x
 _atom_site_fract_y
 _atom_site_fract_z
 _atom_site_occupancy
  V  V0  1  0.38471678  0.87478786  0.50187746  1
  V  V1  1  -0.00171156  0.87490463  0.87574699  1
  V  V2  1  0.50665529  0.51248520  0.50634993  1
  V  V3  1  0.12341038  0.24092471  0.88227548  1
  V  V4  1  0.74313620  0.13151784  0.87694332  1
  V  V5  1  0.50153048  0.62672779  0.11855586  1
  V  V6  1  0.62553817  0.24437691  0.37501547  1
  V  V7  1  0.25495442  0.50789066  0.24763293  1
  V  V8  1  0.00123454  0.74499750  0.74835617  1
  V  V9  1  0.62177897  0.50108912  0.11586134  1
  V  V10  1  -0.00201708  0.25792299  0.24784001  1
  V  V11  1  0.51226042  0.35578253  0.87710155  1
  V  V12  1  0.37535047  0.74488089  0.62600533  1
  V  V13  1  0.87503529  0.62211995  0.25210911  1
  V  V14  1  0.74365148  0.49814639  0.75626633  1
  V  V15  1  -0.00511039  0.49651058  -0.01745826  1
  V  V16  1  0.13597721  0.37423405  0.23721553  1
  V  V17  1  0.25018291  0.74955062  0.00046389  1
  V  V18  1  0.62977249  0.88671192  0.25181236  1
  V  V19  1  0.25391499  0.49838353  0.75166377  1
  V  V20  1  0.25559498  0.25128096  0.50045896  1
  V  V21  1  0.87772164  0.61205419  0.75311191  1
  V  V22  1  0.77153932  0.01254030  0.25361611  1
  V  V23  1  0.62688893  0.75003027  0.37939268  1
  V  V24  1  -0.00172167  0.61769825  0.12355517  1
  V  V25  1  0.11925555  0.87466135  0.24973641  1
  V  V26  1  0.24880587  0.00054685  0.75005538  1
  V  V27  1  0.38441212  0.25063190  0.62996945  1
  V  V28  1  0.38861484  0.49150567  0.88976493  1
  V  V29  1  0.74398231  0.37773825  0.62195659  1
  V  V30  1  0.75316934  0.00537471  0.74977655  1
  V  V31  1  0.37629264  0.75201441  0.12632983  1
  V  V32  1  0.50556264  0.75039772  0.74717963  1
  V  V33  1  0.62326715  0.37614493  0.25194158  1
  V  V34  1  -0.00191065  0.74962723  0.25406692  1
  V  V35  1  0.50272923  0.87649379  0.88257200  1
  V  V36  1  0.00043591  0.61499702  0.61644585  1
  V  V37  1  0.24493157  0.00155843  0.25202307  1
  V  V38  1  0.12536701  0.74865628  0.87425451  1
  V  V39  1  0.24529606  0.12610872  0.37538504  1
  V  V40  1  0.49775320  0.24957147  0.24681343  1
  V  V41  1  0.25362641  0.37436130  0.62805928  1
  V  V42  1  0.87919133  0.74859664  0.62364654  1
  V  V43  1  0.12665200  0.26196348  0.37609418  1
  V  V44  1  0.25813069  0.25396017  0.00728504  1
  V  V45  1  0.75142355  0.87633509  0.62479577  1
  V  V46  1  0.38236995  0.00017489  0.87650275  1
  V  V47  1  0.87554448  0.01027396  0.87334981  1
  V  V48  1  0.37905839  0.12782364  0.75146297  1
  V  V49  1  0.50228863  0.75205072  0.25352665  1
  V  V50  1  0.37904408  -0.00066596  0.38106438  1
  V  V51  1  0.87142753  0.24621447  0.12537678  1
  V  V52  1  0.74825166  0.37312462  0.12358656  1
  V  V53  1  0.24962968  0.75198826  0.49728735  1
  V  V54  1  0.12032120  0.00143169  0.61783402  1
  V  V55  1  0.12799831  0.74470567  0.37249506  1
  V  V56  1  0.61455191  0.12019664  -0.00063831  1
  V  V57  1  0.86858880  0.74857077  0.12003949  1
  V  V58  1  0.50276767  0.10622409  0.12919884  1
  V  V59  1  0.49853053  0.11485956  0.61949584  1
  V  V60  1  -0.00610757  0.12484247  0.63036105  1
  V  V61  1  0.12548154  0.00671807  0.11689579  1
  V  V62  1  0.87253050  0.25275899  0.62780378  1
  V  V63  1  0.74646437  0.88133359  0.12490335  1
  V  V64  1  0.12322782  0.62261650  -0.00188727  1
  V  V65  1  0.87357266  0.37591827  -0.01317026  1
  V  V66  1  0.87931092  0.48574724  0.38387587  1
  V  V67  1  0.62806319  0.88073615  0.75098997  1
  V  V68  1  -0.00746449  0.25200293  0.75658708  1
  V  V69  1  0.74872441  0.49978209  0.25301432  1
  V  V70  1  0.12892913  0.61682472  0.49451428  1
  V  V71  1  0.74955075  0.25200164  0.49963531  1
  V  V72  1  0.00088719  0.12897717  0.11696304  1
  V  V73  1  0.88727420  0.88209857  0.48949277  1
  V  V74  1  0.24782346  0.87633721  0.12444052  1
  V  V75  1  0.37661191  0.88174948  0.00154665  1
  V  V76  1  0.87001213  0.87449796  -0.00221422  1
  V  V77  1  0.12406753  0.87386994  0.74836390  1
  V  V78  1  0.75091787  0.74648848  0.50246171  1
  V  V79  1  0.74827856  0.62311864  0.37914121  1
  V  V80  1  0.38393942  0.62197924  0.75142319  1
  V  V81  1  0.25421482  0.62206077  0.87619790  1
  V  V82  1  0.62292764  0.11249936  0.49543346  1
  V  V83  1  0.12190396  0.37316437  0.75798761  1
  V  V84  1  0.75483923  0.62769747  0.88350251  1
  Zn  Zn85  1  0.12258128  0.12943802  0.50366266  1
  Zn  Zn86  1  0.37350386  0.50585752  0.37929438  1
  Zn  Zn87  1  0.00142319  0.45791878  0.49298845  1
  Zn  Zn88  1  0.62319014  0.51888975  0.62576490  1
  Zn  Zn89  1  0.37021876  0.26035817  0.12649697  1
  Zn  Zn90  1  0.13073929  0.49412034  0.11700218  1
  Zn  Zn91  1  0.12437506  0.49435014  0.62180815  1
  Zn  Zn92  1  0.62849343  0.63456993  0.00140057  1
  Zn  Zn93  1  0.78294321  0.12387391  0.38198736  1
  Zn  Zn94  1  0.24885387  0.87392965  0.62478944  1
  Zn  Zn95  1  0.62035612  0.35663706  0.74783307  1
  Zn  Zn96  1  0.38022223  0.38166528  0.49976648  1
  Zn  Zn97  1  0.49800507  0.37911613  0.38028378  1
  Zn  Zn98  1  0.73433722  0.25329710  -0.00169744  1
  Zn  Zn99  1  0.00368810  0.00636889  -0.00425666  1
  Zn  Zn100  1  0.37203043  0.12829202  0.24755059  1
  Zn  Zn101  1  0.37128129  0.62992711  0.25361024  1
  Zn  Zn102  1  -0.04591029  0.05449058  0.45771701  1
  Zn  Zn103  1  0.24742293  0.12179913  0.88237135  1
  Zn  Zn104  1  0.63573902  0.75628778  0.88410570  1
  Zn  Zn105  1  0.50765613  0.87981352  0.38365526  1
  Zn  Zn106  1  0.61654263  -0.01026000  0.61489327  1
  Zn  Zn107  1  0.18629192  0.18699053  0.18441166  1
  Zn  Zn108  1  0.18840530  0.18734067  0.69153393  1
  Zn  Zn109  1  0.18494703  0.68489489  0.18352777  1
  Zn  Zn110  1  0.18909407  0.68176991  0.68474608  1
  Zn  Zn111  1  0.68057989  0.18417397  0.18169530  1
  Zn  Zn112  1  0.68752025  0.17956681  0.68033230  1
  Zn  Zn113  1  0.68695556  0.69001332  0.18995277  1
  Zn  Zn114  1  0.69381918  0.69156201  0.69783088  1
  Zn  Zn115  1  0.31613549  0.32059907  0.31341665  1
  Zn  Zn116  1  0.31403761  0.31237867  0.81958111  1
  Zn  Zn117  1  0.30982065  0.81382761  0.31547569  1
  Zn  Zn118  1  0.31288564  0.81271148  0.81229697  1
  Zn  Zn119  1  0.80863090  0.30746590  0.30989147  1
  Zn  Zn120  1  0.80591368  0.31202317  0.80839033  1
  Zn  Zn121  1  0.81359190  0.81377769  0.31189134  1
  Zn  Zn122  1  0.81720063  0.80978112  0.81067840  1
  Zn  Zn123  1  0.19358032  0.43788223  0.43466647  1
  Zn  Zn124  1  0.18903752  0.43522623  0.93585364  1
  Zn  Zn125  1  0.12177970  0.97410265  0.40204427  1
  Zn  Zn126  1  0.18940435  0.93677723  0.93522395  1
  Zn  Zn127  1  0.68151462  0.43742994  0.44057961  1
  Zn  Zn128  1  0.68318839  0.43705982  0.93432641  1
  Zn  Zn129  1  0.70069956  0.93716433  0.43262949  1
  Zn  Zn130  1  0.68573277  0.94458548  0.94035849  1
  Zn  Zn131  1  0.31227874  0.07237035  0.06157884  1
  Zn  Zn132  1  0.30887783  0.06142999  0.56271446  1
  Zn  Zn133  1  0.31315472  0.56084872  0.06849214  1
  Zn  Zn134  1  0.31496411  0.56309851  0.56302601  1
  Zn  Zn135  1  0.80925060  0.06286909  0.05895747  1
  Zn  Zn136  1  0.80994912  0.06664157  0.56614941  1
  Zn  Zn137  1  0.81311574  0.55531716  0.06397185  1
  Zn  Zn138  1  0.81171977  0.55879369  0.56315744  1
  Zn  Zn139  1  0.43641399  0.43686034  0.18321237  1
  Zn  Zn140  1  0.44549080  0.43753406  0.69081141  1
  Zn  Zn141  1  0.43229681  0.93249985  0.19826020  1
  Zn  Zn142  1  0.43674373  0.93429421  0.68917025  1
  Zn  Zn143  1  0.93648621  0.43363577  0.18755628  1
  Zn  Zn144  1  0.93634556  0.43284451  0.68364024  1
  Zn  Zn145  1  0.93937272  0.93711159  0.18255625  1
  Zn  Zn146  1  0.93659175  0.93747061  0.68705969  1
  Zn  Zn147  1  -0.04162689  0.07826959  0.30742119  1
  Zn  Zn148  1  0.05953018  0.06447683  0.80731900  1
  Zn  Zn149  1  0.06254497  0.55498082  0.31321575  1
  Zn  Zn150  1  0.06613199  0.56038343  0.80880006  1
  Zn  Zn151  1  0.56249427  0.06224898  0.31201566  1
  Zn  Zn152  1  0.56164735  0.18179390  0.81163330  1
  Zn  Zn153  1  0.55947163  0.56494869  0.31533890  1
  Zn  Zn154  1  0.56784470  0.56399303  0.81562005  1
  Zn  Zn155  1  0.43725675  0.18680975  0.43689872  1
  Zn  Zn156  1  0.43337888  0.18062935  0.94702851  1
  Zn  Zn157  1  0.43429703  0.68292284  0.43264010  1
  Zn  Zn158  1  0.43939143  0.69126709  0.93639346  1
  Zn  Zn159  1  0.94842183  0.24204597  0.44758637  1
  Zn  Zn160  1  0.93491481  0.19207206  0.93926847  1
  Zn  Zn161  1  0.93765331  0.68643582  0.43649754  1
  Zn  Zn162  1  0.93428520  0.68631920  0.93706532  1
  Zn  Zn163  1  0.05867005  0.31524357  0.05722560  1
  Zn  Zn164  1  0.06681414  0.30943372  0.56935561  1
  Zn  Zn165  1  0.05724376  0.81106129  0.06306468  1
  Zn  Zn166  1  0.06423418  0.80986594  0.56145799  1
  Zn  Zn167  1  0.53754680  0.31807258  0.06756104  1
  Zn  Zn168  1  0.56340471  0.31379348  0.56058234  1
  Zn  Zn169  1  0.56664786  0.81314757  0.06236363  1
  Zn  Zn170  1  0.56531809  0.69414807  0.56464110  1
  O  O171  1  0.11733337  0.11564992  0.12555903  1
  O  O172  1  0.11869431  0.11756972  0.62863608  1
  O  O173  1  0.11344572  0.62318744  0.11502615  1
  O  O174  1  0.11591674  0.61761819  0.61914872  1
  O  O175  1  0.61066600  0.11415515  0.12254248  1
  O  O176  1  0.61541484  0.11596262  0.61290959  1
  O  O177  1  0.62099854  0.61996328  0.12593797  1
  O  O178  1  0.63226956  0.63271901  0.62817817  1
  O  O179  1  0.37932988  0.38502893  0.38028013  1
  O  O180  1  0.38640344  0.38656640  0.87200611  1
  O  O181  1  0.37372020  0.88142827  0.38484264  1
  O  O182  1  0.38041412  0.87910497  0.88130384  1
  O  O183  1  0.86612856  0.38778404  0.37088492  1
  O  O184  1  0.86763958  0.37071004  0.88855305  1
  O  O185  1  0.87376621  0.87128379  0.39117440  1
  O  O186  1  0.87804550  0.87976759  0.88207727  1
  O  O187  1  0.23792830  0.00980688  0.36661965  1
  O  O188  1  0.25524796  -0.00023360  0.86358299  1
  O  O189  1  0.24997384  0.49414426  0.35301880  1
  O  O190  1  0.26032923  0.50281662  0.86903595  1
  O  O191  1  0.75804647  0.00588390  0.35885173  1
  O  O192  1  0.75627196  0.00810086  0.86896752  1
  O  O193  1  0.75466052  0.50688741  0.37388973  1
  O  O194  1  0.74754791  0.51015007  0.86569476  1
  O  O195  1  0.24590766  0.49986406  0.13734657  1
  O  O196  1  0.25109036  0.49033604  0.63276410  1
  O  O197  1  0.24476840  0.99851198  0.13089512  1
  O  O198  1  0.24283627  0.99745406  0.63656378  1
  O  O199  1  0.74257581  0.49375972  0.13441370  1
  O  O200  1  0.74821119  0.49212392  0.63147189  1
  O  O201  1  0.76253272  0.99122378  0.13974762  1
  O  O202  1  0.75226030  0.99256231  0.63424384  1
  O  O203  1  0.01412342  0.36615279  0.24290387  1
  O  O204  1  0.01012789  0.36587370  0.74386145  1
  O  O205  1  0.00715775  0.86099904  0.23792702  1
  O  O206  1  0.00410930  0.86649140  0.75603816  1
  O  O207  1  0.51337675  0.36795352  0.25718234  1
  O  O208  1  0.50440053  0.38111023  0.76921935  1
  O  O209  1  0.51158756  0.86718722  0.25458277  1
  O  O210  1  0.50916440  0.87050859  0.75664838  1
  O  O211  1  0.49562293  0.12689934  0.24467681  1
  O  O212  1  0.48485042  0.12497771  0.74058880  1
  O  O213  1  0.50603512  0.64236343  0.24328427  1
  O  O214  1  0.49125136  0.63525929  0.75921422  1
  O  O215  1  1.00308530  0.14675449  0.22933557  1
  O  O216  1  1.00105092  0.13758612  0.74034955  1
  O  O217  1  0.99540558  0.62758123  0.24170390  1
  O  O218  1  0.99517628  0.62274465  0.73908074  1
  O  O219  1  0.36108193  0.25205376  -0.00188052  1
  O  O220  1  0.36712976  0.25151257  0.50812903  1
  O  O221  1  0.37006077  0.75940435  0.00595328  1
  O  O222  1  0.36982733  0.75072371  0.50785805  1
  O  O223  1  0.87096211  0.26328102  0.00693575  1
  O  O224  1  0.85568139  0.24791877  0.51225263  1
  O  O225  1  0.87930148  0.75868091  0.00982652  1
  O  O226  1  0.87074668  0.75678750  0.50547726  1
  O  O227  1  0.14140116  0.25239140  0.49315725  1
  O  O228  1  0.12203589  0.25249069  0.98387458  1
  O  O229  1  0.13028461  0.74409087  0.49033653  1
  O  O230  1  0.12791355  0.74375939  0.99415504  1
  O  O231  1  0.63159735  0.24055528  0.49363199  1
  O  O232  1  0.62145051  0.22838716  1.01650767  1
  O  O233  1  0.63553520  0.75250749  0.48744890  1
  O  O234  1  0.62821434  0.74912266  0.99673077  1
  O  O235  1  0.51631981  0.23133784  0.14505839  1
  O  O236  1  0.48735928  0.24061407  0.61869310  1
  O  O237  1  0.49574869  0.74989528  0.13482640  1
  O  O238  1  0.49242149  0.75145065  0.63986519  1
  O  O239  1  0.99177155  0.24883522  0.12529368  1
  O  O240  1  0.99127245  0.24602176  0.63784074  1
  O  O241  1  0.99057178  0.73767110  0.13163535  1
  O  O242  1  0.99840602  0.73913467  0.63059743  1
  O  O243  1  0.01770122  0.24652788  0.35815015  1
  O  O244  1  0.00949450  0.24502275  0.86708442  1
  O  O245  1  0.00836638  0.74329190  0.36090325  1
  O  O246  1  0.00514486  0.75226110  0.86815758  1
  O  O247  1  0.50806126  0.24804018  0.36533146  1
  O  O248  1  0.49482875  0.25153500  0.87764226  1
  O  O249  1  0.51101958  0.75291609  0.37052772  1
  O  O250  1  0.49874439  0.76194653  0.86375658  1
  O  O251  1  0.24880060  0.13467369  0.49431290  1
  O  O252  1  0.24753865  0.14160855  0.99647299  1
  O  O253  1  0.23450090  0.63159144  0.50839941  1
  O  O254  1  0.24471671  0.63025366  0.99651269  1
  O  O255  1  0.74034655  0.13101731  0.49774584  1
  O  O256  1  0.74108286  0.12883950  0.99242862  1
  O  O257  1  0.75914464  0.63820115  0.49372041  1
  O  O258  1  0.75940081  0.62023746  0.98561876  1
  O  O259  1  0.23990385  0.35380702  -0.00510053  1
  O  O260  1  0.25452352  0.37021259  0.51118962  1
  O  O261  1  0.25470253  0.86770263  0.00522379  1
  O  O262  1  0.25612324  0.85511048  0.50430198  1
  O  O263  1  0.75546507  0.37389008  0.00470920  1
  O  O264  1  0.74143328  0.36505212  0.50849419  1
  O  O265  1  0.76151461  0.88317211  0.00924212  1
  O  O266  1  0.75942191  0.86609574  0.50732248  1
  O  O267  1  0.13059166  0.48774157  0.24654897  1
  O  O268  1  0.13424270  0.49056660  0.74847106  1
  O  O269  1  0.13444251  0.98830200  0.23581960  1
  O  O270  1  0.13131352  0.99458431  0.74386169  1
  O  O271  1  0.63052032  0.49225505  0.24906226  1
  O  O272  1  0.63599913  0.50215634  0.74612971  1
  O  O273  1  0.63382724  0.98892563  0.25688390  1
  O  O274  1  0.63622087  0.98558753  0.74441978  1
  O  O275  1  0.35745462  -0.00396430  0.26279712  1
  O  O276  1  0.36629362  0.00324430  0.75544735  1
  O  O277  1  0.36330778  0.49969011  0.24445110  1
  O  O278  1  0.37337363  0.50928348  0.75546551  1
  O  O279  1  0.87593146  0.00642061  0.25063144  1
  O  O280  1  0.86551054  -0.00832691  0.76212144  1
  O  O281  1  0.86852680  0.50363166  0.25781365  1
  O  O282  1  0.86819421  0.50804676  0.74358537  1
  O  O283  1  0.13397997  0.36609188  0.36190567  1
  O  O284  1  0.12743451  0.36452402  0.86244182  1
  O  O285  1  0.12543461  0.86532312  0.35556152  1
  O  O286  1  0.11858691  0.86845432  0.86912316  1
  O  O287  1  0.62681930  0.36198706  0.36838851  1
  O  O288  1  0.61804058  0.36922189  0.86863176  1
  O  O289  1  0.62865150  0.86880735  0.36965435  1
  O  O290  1  0.61860825  0.87900230  0.87036383  1
  O  O291  1  0.38999543  0.13136848  0.12633234  1
  O  O292  1  0.37917346  0.12918850  0.62963409  1
  O  O293  1  0.38344807  0.63468510  0.13148382  1
  O  O294  1  0.37094023  0.63678329  0.63698420  1
  O  O295  1  0.87892457  0.14016339  0.11676325  1
  O  O296  1  0.87994248  0.13832838  0.62587799  1
  O  O297  1  0.87812686  0.63024449  0.12951386  1
  O  O298  1  0.88390672  0.62705721  0.62932338  1
  O  O299  1  0.25251469  0.24839805  0.11349181  1
  O  O300  1  0.25760838  0.25461739  0.61892671  1
  O  O301  1  0.25545134  0.75483105  0.12022228  1
  O  O302  1  0.25721378  0.74936342  0.61864522  1
  O  O303  1  0.75493399  0.25606848  0.12611751  1
  O  O304  1  0.75443371  0.25370625  0.61928868  1
  O  O305  1  0.76407831  0.75963592  0.13509214  1
  O  O306  1  0.75915771  0.75634200  0.61912226  1
  O  O307  1  0.25128937  0.24767912  0.38278745  1
  O  O308  1  0.23693876  0.24610062  0.87832872  1
  O  O309  1  0.23638345  0.74978994  0.38025975  1
  O  O310  1  0.24563034  0.74375649  0.88071389  1
  O  O311  1  0.74446072  0.24293691  0.38173592  1
  O  O312  1  0.75453728  0.23414674  0.87516931  1
  O  O313  1  0.74756877  0.74439191  0.38217332  1
  O  O314  1  0.75414907  0.73274894  0.86780137  1
  O  O315  1  -0.00226513  0.12596945  0.01066326  1
  O  O316  1  0.00551842  0.13920548  0.52078461  1
  O  O317  1  0.00082163  0.61717414  0.00557189  1
  O  O318  1  0.01043228  0.63080197  0.50963428  1
  O  O319  1  0.50487502  0.11935396  0.01416490  1
  O  O320  1  0.50844572  0.12644376  0.50704893  1
  O  O321  1  0.50085208  0.63383207  0.01540364  1
  O  O322  1  0.50120308  0.61976377  0.50262705  1
  O  O323  1  0.49996790  0.38570176  0.49931265  1
  O  O324  1  0.51087245  0.38068429  0.97436514  1
  O  O325  1  0.48403835  0.87207464  0.50015432  1
  O  O326  1  0.49423767  0.87356243  0.99001055  1
  O  O327  1  0.99437501  0.34485107  0.49383839  1
  O  O328  1  0.98458688  0.38330665  1.00064098  1
  O  O329  1  0.98610071  0.87085796  0.50415223  1
  O  O330  1  0.98900541  0.87680331  0.99344308  1
  O  O331  1  0.50298283  0.50148638  0.39010526  1
  O  O332  1  0.48858727  0.50685087  0.87695081  1
  O  O333  1  0.48227893  0.99873390  0.37025759  1
  O  O334  1  0.48408366  0.98809160  0.86912396  1
  O  O335  1  0.98373816  0.49939695  0.37718212  1
  O  O336  1  0.99868389  0.50621044  0.88352174  1
  O  O337  1  1.01929139  1.01169023  0.37622406  1
  O  O338  1  0.99272692  0.99538215  0.87368832  1
  O  O339  1  0.00780069  0.01063606  0.12349358  1
  O  O340  1  0.00709572  0.01067856  0.63338549  1
  O  O341  1  -0.00186153  0.51017846  0.12005902  1
  O  O342  1  0.00071333  0.50134934  0.61338836  1
  O  O343  1  0.49317619  0.00762575  0.13712517  1
  O  O344  1  0.49740971  0.01020514  0.62706592  1
  O  O345  1  0.51200296  0.51610248  0.13736680  1
  O  O346  1  0.50320341  0.49921286  0.61262135  1
  O  O347  1  0.24010816  0.37963093  0.24414174  1
  O  O348  1  0.24623509  0.37883585  0.74631514  1
  O  O349  1  0.24248202  0.88008162  0.24262644  1
  O  O350  1  0.24259666  0.88134618  0.74876617  1
  O  O351  1  0.73883079  0.37785422  0.24461288  1
  O  O352  1  0.74593967  0.38433055  0.74385557  1
  O  O353  1  0.74999126  0.88613189  0.24545917  1
  O  O354  1  0.74771922  0.87873053  0.74541724  1
  O  O355  1  0.25066768  0.11792434  0.25567470  1
  O  O356  1  0.25997775  0.11555046  0.75134190  1
  O  O357  1  0.24726040  0.61188776  0.24545226  1
  O  O358  1  0.26013688  0.61903299  0.75650243  1
  O  O359  1  0.75028580  0.11225875  0.24810144  1
  O  O360  1  0.74504481  0.11019235  0.75702880  1
  O  O361  1  0.75665198  0.62060407  0.25801719  1
  O  O362  1  0.76116108  0.61676944  0.75811034  1
  O  O363  1  0.36268702  0.11649658  0.37554545  1
  O  O364  1  0.37381591  0.11581571  0.86826896  1
  O  O365  1  0.37500671  0.62031415  0.36508966  1
  O  O366  1  0.37118696  0.62033863  0.86947951  1
  O  O367  1  0.89646585  0.13603949  0.38990892  1
  O  O368  1  0.86709644  0.11445501  0.88160275  1
  O  O369  1  0.86548434  0.61968190  0.37041684  1
  O  O370  1  0.86829487  0.62537183  0.86453834  1
  O  O371  1  0.12252075  0.37481430  0.13412793  1
  O  O372  1  0.13936368  0.37177384  0.63614717  1
  O  O373  1  0.12942465  0.87615981  0.13108003  1
  O  O374  1  0.12347009  0.88216068  0.63154980  1
  O  O375  1  0.62672728  0.38320702  0.13246728  1
  O  O376  1  0.63574998  0.37418066  0.62893483  1
  O  O377  1  0.64049873  0.87095489  0.13528732  1
  O  O378  1  0.64309262  0.87432621  0.63268049  1
  O  O379  1  0.12552240  0.26159028  0.25254744  1
  O  O380  1  0.11793295  0.25546132  0.75788455  1
  O  O381  1  0.11881877  0.75199923  0.25352841  1
  O  O382  1  0.12082259  0.75145505  0.75408296  1
  O  O383  1  0.62403081  0.25511329  0.25869962  1
  O  O384  1  0.62649247  0.24288907  0.74639641  1
  O  O385  1  0.62365215  0.76087035  0.26103008  1
  O  O386  1  0.62004678  0.76272060  0.75800929  1
  O  O387  1  0.38430021  0.25002390  0.24931730  1
  O  O388  1  0.36529054  0.23978752  0.74141827  1
  O  O389  1  0.38533307  0.75657008  0.24522094  1
  O  O390  1  0.38128482  0.74489150  0.74480978  1
  O  O391  1  0.88511168  0.25981732  0.23891810  1
  O  O392  1  0.88457955  0.25476988  0.74578930  1
  O  O393  1  0.88244404  0.74405799  0.24527717  1
  O  O394  1  0.88272547  0.73753924  0.74226155  1
  O  O395  1  0.38810662  0.50280469  0.50205064  1
  O  O396  1  0.37151449  0.50423917  0.98683760  1
  O  O397  1  0.36054619  0.98739739  0.49067586  1
  O  O398  1  0.36394955  0.99221527  0.98959240  1
  O  O399  1  0.87616759  0.49950156  0.48655110  1
  O  O400  1  0.88059699  0.48502297  1.00293126  1
  O  O401  1  0.87343049  0.98757054  0.50664069  1
  O  O402  1  0.87800742  0.99254829  0.99041890  1
  O  O403  1  0.12378635  -0.00980718  0.01295744  1
  O  O404  1  0.13108530  0.00406647  0.51544459  1
  O  O405  1  0.11534305  0.50393556  -0.00226719  1
  O  O406  1  0.11961686  0.50277699  0.49725185  1
  O  O407  1  0.63282456  0.01900807  0.00693469  1
  O  O408  1  0.63209063  0.00839609  0.49516034  1
  O  O409  1  0.63170073  0.50703862  0.01386054  1
  O  O410  1  0.61298195  0.50318665  0.50428785  1
  O  O411  1  0.43126344  0.35388617  0.11298679  1
  O  O412  1  0.36770481  0.36692717  0.63004054  1
  O  O413  1  0.36835855  0.87186588  0.12068899  1
  O  O414  1  0.37212604  0.86305118  0.62112487  1
  O  O415  1  0.86505965  0.36796139  0.11945446  1
  O  O416  1  0.86024374  0.36208178  0.63042900  1
  O  O417  1  0.87034046  0.86774216  0.11738031  1
  O  O418  1  0.86785749  0.86790591  0.62149071  1
  O  O419  1  0.14067332  0.14328493  0.37818763  1
  O  O420  1  0.12678813  0.13712262  0.86804989  1
  O  O421  1  0.11897133  0.63125910  0.38282557  1
  O  O422  1  0.13271477  0.62907886  0.87867817  1
  O  O423  1  0.62299574  0.13385961  0.37995527  1
  O  O424  1  0.62820996  0.12336138  0.88872288  1
  O  O425  1  0.64099065  0.63407808  0.36849652  1
  O  O426  1  0.64186177  0.62832923  0.87811789  1
