# generated using pymatgen
data_V85Zn86O256
_symmetry_space_group_name_H-M   'P 1'
_cell_length_a   16.91948689
_cell_length_b   16.91893406
_cell_length_c   16.92033063
_cell_angle_alpha   89.92533134
_cell_angle_beta   89.95474107
_cell_angle_gamma   89.97396355
_symmetry_Int_Tables_number   1
_chemical_formula_structural   V85Zn86O256
_chemical_formula_sum   'V85 Zn86 O256'
_cell_volume   4843.60236116
_cell_formula_units_Z   1
loop_
 _symmetry_equiv_pos_site_id
 _symmetry_equiv_pos_as_xyz
  1  'x, y, z'
loop_
 _atom_site_type_symbol
 _atom_site_label
 _atom_site_symmetry_multiplicity
 _atom_site_fract_x
 _atom_site_fract_y
 _atom_site_fract_z
 _atom_site_occupancy
  V  V0  1  0.49464072  -0.00007251  0.01374123  1
  V  V1  1  0.12516749  0.62537358  0.00171891  1
  V  V2  1  0.87974323  0.49726863  0.37313529  1
  V  V3  1  0.25481502  0.00537330  0.74862155  1
  V  V4  1  0.25563693  0.75691832  0.00088871  1
  V  V5  1  0.88082294  0.36929600  0.50600149  1
  V  V6  1  0.00955048  0.36762528  0.37533615  1
  V  V7  1  0.63445327  -0.00567170  0.12780660  1
  V  V8  1  0.75088025  0.87706981  0.62335390  1
  V  V9  1  0.87428193  0.51491164  0.86893297  1
  V  V10  1  0.69369922  0.44040358  0.30384666  1
  V  V11  1  -0.00972307  0.37182191  0.87896653  1
  V  V12  1  0.12538389  0.75157971  0.87557651  1
  V  V13  1  0.39090168  0.24238253  0.11653086  1
  V  V14  1  0.00086723  0.49980799  0.50075209  1
  V  V15  1  0.87445363  0.13263794  0.74714159  1
  V  V16  1  0.24994179  0.50310629  0.25199309  1
  V  V17  1  0.49198430  0.62967253  0.62010010  1
  V  V18  1  0.74513561  -0.01297850  0.25455755  1
  V  V19  1  0.37797641  0.49364725  0.37105679  1
  V  V20  1  0.12837717  0.50110743  0.62426368  1
  V  V21  1  0.74798378  0.38164913  0.12323735  1
  V  V22  1  0.49826708  0.00069512  0.49759566  1
  V  V23  1  0.62487411  0.24861397  0.87698019  1
  V  V24  1  0.62517263  0.00132560  0.62602226  1
  V  V25  1  0.49541446  0.24371479  0.75170350  1
  V  V26  1  0.63049160  0.61910697  -0.00607305  1
  V  V27  1  0.23418067  0.87916036  0.12754956  1
  V  V28  1  0.12862072  0.62377484  0.48735720  1
  V  V29  1  0.25209354  0.86977684  0.62346660  1
  V  V30  1  0.37230270  0.63044185  0.74750655  1
  V  V31  1  0.37120474  0.24286456  0.62551728  1
  V  V32  1  0.86898455  0.75496650  0.12555460  1
  V  V33  1  0.12606179  0.49736182  0.12687365  1
  V  V34  1  0.88863386  -0.00071731  0.37536299  1
  V  V35  1  0.00106027  0.76112646  0.25395577  1
  V  V36  1  0.87916132  0.75026270  0.63142057  1
  V  V37  1  0.37617402  0.87404716  0.49940533  1
  V  V38  1  0.25716317  0.12764490  0.87444423  1
  V  V39  1  0.62497531  0.37749755  0.74927048  1
  V  V40  1  0.50879021  0.25399052  0.26376402  1
  V  V41  1  0.49853766  0.49347524  0.49840215  1
  V  V42  1  0.25231228  0.37308940  0.62361732  1
  V  V43  1  0.86899340  0.62264868  0.25096017  1
  V  V44  1  0.86622104  0.88272725  0.00158377  1
  V  V45  1  0.74937930  0.74866247  0.49939473  1
  V  V46  1  -0.00080242  0.62493412  0.12790260  1
  V  V47  1  0.12913676  0.12217753  0.00129777  1
  V  V48  1  0.12053058  0.00194061  0.61963130  1
  V  V49  1  0.37638783  0.75886256  0.12474228  1
  V  V50  1  -0.00562152  0.88055236  0.87402753  1
  V  V51  1  0.12363007  0.87604262  0.74965329  1
  V  V52  1  0.23817446  -0.00104287  0.24905317  1
  V  V53  1  0.49125383  0.37987288  0.87425647  1
  V  V54  1  0.75427605  0.12172182  0.87929307  1
  V  V55  1  0.00038713  0.11964362  0.12422017  1
  V  V56  1  0.00735038  0.24592266  0.25215051  1
  V  V57  1  0.24805928  0.25037922  0.48624934  1
  V  V58  1  -0.00616937  0.49484637  0.00274988  1
  V  V59  1  0.75552463  0.37461536  0.62945605  1
  V  V60  1  0.74974953  0.74870646  -0.00844183  1
  V  V61  1  -0.00077625  0.00082933  -0.00227438  1
  V  V62  1  0.75566479  0.24584494  0.50348842  1
  V  V63  1  0.25141816  0.36374909  0.12026866  1
  V  V64  1  0.00252353  0.62565243  0.63223308  1
  V  V65  1  0.25517075  0.62072300  0.87902949  1
  V  V66  1  0.62366090  0.12724462  0.49537811  1
  V  V67  1  0.75390333  0.25406127  0.00195062  1
  V  V68  1  0.12767597  0.24953586  0.87954856  1
  V  V69  1  0.50664487  0.87646908  0.36958502  1
  V  V70  1  0.51112449  0.75421549  0.24620523  1
  V  V71  1  0.37700625  -0.00857517  0.87646663  1
  V  V72  1  0.48914592  0.50137565  -0.00061566  1
  V  V73  1  0.49716596  0.12498973  0.62657041  1
  V  V74  1  0.12543196  0.37389198  0.75254850  1
  V  V75  1  0.87554863  0.25411150  0.12369577  1
  V  V76  1  0.37225855  0.62982068  0.25333946  1
  V  V77  1  0.12336216  0.12560668  0.48993886  1
  V  V78  1  0.49657604  0.75478598  0.74736273  1
  V  V79  1  0.89038110  0.87805512  0.49671316  1
  V  V80  1  -0.00218249  0.12995540  0.62132710  1
  V  V81  1  0.12291542  0.76555975  0.37139596  1
  V  V82  1  0.75558230  -0.00034300  0.75539286  1
  V  V83  1  0.25474682  0.74602775  0.49433969  1
  V  V84  1  0.25681874  0.49837780  0.75450019  1
  Zn  Zn85  1  -0.00208706  0.74577891  0.75540341  1
  Zn  Zn86  1  0.63050772  0.75316324  0.36991146  1
  Zn  Zn87  1  0.62003378  0.12756128  0.01126890  1
  Zn  Zn88  1  0.75004933  0.12368637  0.37251058  1
  Zn  Zn89  1  0.74241843  0.51908274  0.76830338  1
  Zn  Zn90  1  0.36880265  0.37406287  -0.00546648  1
  Zn  Zn91  1  0.50073913  0.87405273  0.87878496  1
  Zn  Zn92  1  0.50111771  0.62518459  0.12349326  1
  Zn  Zn93  1  0.62373189  0.87636183  0.75349120  1
  Zn  Zn94  1  0.25021536  0.12880045  0.36725670  1
  Zn  Zn95  1  0.62098006  0.50735143  0.63034360  1
  Zn  Zn96  1  0.87179156  0.12283632  0.24948220  1
  Zn  Zn97  1  -0.00367237  0.25199703  0.74845691  1
  Zn  Zn98  1  0.37936573  0.36996197  0.49319939  1
  Zn  Zn99  1  0.62263121  0.49762923  0.12942892  1
  Zn  Zn100  1  0.62518221  0.74951102  0.87288231  1
  Zn  Zn101  1  0.13077635  0.36866000  0.25407999  1
  Zn  Zn102  1  0.74819230  0.62589509  0.37381859  1
  Zn  Zn103  1  0.62794252  0.26596410  0.37601655  1
  Zn  Zn104  1  0.37412125  0.00294164  0.36802671  1
  Zn  Zn105  1  0.38112116  0.12221973  0.24609153  1
  Zn  Zn106  1  0.61827767  0.63152145  0.49750665  1
  Zn  Zn107  1  0.18689210  0.18341941  0.18440309  1
  Zn  Zn108  1  0.18472836  0.18692744  0.68812841  1
  Zn  Zn109  1  0.18725821  0.68927383  0.18981522  1
  Zn  Zn110  1  0.18598281  0.68862632  0.68551828  1
  Zn  Zn111  1  0.68401980  0.18100346  0.19129564  1
  Zn  Zn112  1  0.68675006  0.18885945  0.68674606  1
  Zn  Zn113  1  0.68861392  0.68433692  0.17895974  1
  Zn  Zn114  1  0.68014815  0.68936030  0.68811933  1
  Zn  Zn115  1  0.32015198  0.31235555  0.30229100  1
  Zn  Zn116  1  0.31254908  0.30777971  0.81163824  1
  Zn  Zn117  1  0.31232309  0.81683236  0.31236477  1
  Zn  Zn118  1  0.31205166  0.81224367  0.81140208  1
  Zn  Zn119  1  0.82164821  0.30338055  0.31732335  1
  Zn  Zn120  1  0.81190382  0.31395690  0.81326433  1
  Zn  Zn121  1  0.81756200  0.81343749  0.31561251  1
  Zn  Zn122  1  0.81358532  0.81396361  0.81359624  1
  Zn  Zn123  1  0.19256375  0.43804113  0.43547570  1
  Zn  Zn124  1  0.18416018  0.43734116  0.93970323  1
  Zn  Zn125  1  0.18646944  0.93952327  0.43671218  1
  Zn  Zn126  1  0.18571366  0.93941145  0.93925764  1
  Zn  Zn127  1  0.69845529  0.45022883  0.47066125  1
  Zn  Zn128  1  0.68807070  0.43596176  0.93823339  1
  Zn  Zn129  1  0.68933699  0.93698749  0.43788705  1
  Zn  Zn130  1  0.68081460  0.93715826  0.93856060  1
  Zn  Zn131  1  0.31179299  0.05988689  0.06254796  1
  Zn  Zn132  1  0.30998291  0.06255584  0.55839542  1
  Zn  Zn133  1  0.31398803  0.56460074  0.06889924  1
  Zn  Zn134  1  0.31433721  0.56252758  0.56032837  1
  Zn  Zn135  1  0.81075227  0.06396253  0.06674551  1
  Zn  Zn136  1  0.81681785  0.06046309  0.56207079  1
  Zn  Zn137  1  0.81398344  0.56364651  0.05929039  1
  Zn  Zn138  1  0.79470516  0.58098277  0.60106436  1
  Zn  Zn139  1  0.43847154  0.43315078  0.18508763  1
  Zn  Zn140  1  0.43546579  0.43668384  0.68517033  1
  Zn  Zn141  1  0.43147117  0.93691746  0.18690700  1
  Zn  Zn142  1  0.43315515  0.93783898  0.68590543  1
  Zn  Zn143  1  0.93606094  0.43326959  0.19013650  1
  Zn  Zn144  1  0.93833686  0.43890590  0.69067724  1
  Zn  Zn145  1  0.93541353  0.93886332  0.18657078  1
  Zn  Zn146  1  0.93700609  0.94265893  0.68796619  1
  Zn  Zn147  1  0.06467560  0.05966506  0.30825089  1
  Zn  Zn148  1  0.06283065  0.06226294  0.81147329  1
  Zn  Zn149  1  0.06083482  0.56391109  0.30999898  1
  Zn  Zn150  1  0.06620357  0.55978700  0.81501527  1
  Zn  Zn151  1  0.56133057  0.06659416  0.30660210  1
  Zn  Zn152  1  0.56558331  0.06220934  0.81583208  1
  Zn  Zn153  1  0.55739557  0.57321986  0.31795740  1
  Zn  Zn154  1  0.55743327  0.56426352  0.81462659  1
  Zn  Zn155  1  0.43519185  0.18637775  0.43175041  1
  Zn  Zn156  1  0.43750975  0.18331954  0.94061088  1
  Zn  Zn157  1  0.43524265  0.68758343  0.43041866  1
  Zn  Zn158  1  0.43747019  0.68660240  0.93605060  1
  Zn  Zn159  1  0.93925989  0.18436967  0.43798774  1
  Zn  Zn160  1  0.93476954  0.18709969  0.93711100  1
  Zn  Zn161  1  0.93825148  0.68697540  0.44019756  1
  Zn  Zn162  1  0.93877841  0.68999491  0.94047943  1
  Zn  Zn163  1  0.06492951  0.30978556  0.06253416  1
  Zn  Zn164  1  0.06703229  0.30817633  0.56378307  1
  Zn  Zn165  1  0.05814816  0.81141899  0.06171861  1
  Zn  Zn166  1  0.06718809  0.81003772  0.56181634  1
  Zn  Zn167  1  0.56621851  0.31794029  0.06285365  1
  Zn  Zn168  1  0.56339640  0.31150926  0.56368038  1
  Zn  Zn169  1  0.56469068  0.81756108  0.06022015  1
  Zn  Zn170  1  0.56192498  0.81234066  0.56598446  1
  O  O171  1  0.11497819  0.13174576  0.11041264  1
  O  O172  1  0.12037665  0.11794048  0.61858014  1
  O  O173  1  0.11946575  0.61857336  0.12212322  1
  O  O174  1  0.12009464  0.62128150  0.61452137  1
  O  O175  1  0.62819992  0.10600298  0.12534331  1
  O  O176  1  0.61961554  0.12173260  0.61557932  1
  O  O177  1  0.62239622  0.61837439  0.11105930  1
  O  O178  1  0.60375076  0.62656868  0.62153937  1
  O  O179  1  0.37228655  0.38902331  0.37267431  1
  O  O180  1  0.38696920  0.36958036  0.87478599  1
  O  O181  1  0.38333423  0.87726398  0.38557401  1
  O  O182  1  0.37114264  0.88815636  0.87441893  1
  O  O183  1  0.88735252  0.37886009  0.38129401  1
  O  O184  1  0.88788572  0.37925205  0.87323812  1
  O  O185  1  0.87668869  0.88293646  0.38874428  1
  O  O186  1  0.88776190  0.87022440  0.88415860  1
  O  O187  1  0.24986161  -0.00478056  0.35860232  1
  O  O188  1  0.25407711  0.00497632  0.86788859  1
  O  O189  1  0.25634161  0.49729887  0.35944570  1
  O  O190  1  0.24273839  0.50841554  0.86696462  1
  O  O191  1  0.75648190  -0.00092407  0.36690045  1
  O  O192  1  0.74443708  0.00922870  0.86738923  1
  O  O193  1  0.75574323  0.49705190  0.37214113  1
  O  O194  1  0.76889302  0.49665548  0.88014872  1
  O  O195  1  0.24737709  0.49217624  0.13395065  1
  O  O196  1  0.24662517  0.49394815  0.63126831  1
  O  O197  1  0.25039902  0.98589877  0.12896598  1
  O  O198  1  0.24374383  0.99347739  0.63097666  1
  O  O199  1  0.75601159  0.48486703  0.12013674  1
  O  O200  1  0.73888155  0.47876026  0.60259484  1
  O  O201  1  0.74665918  0.99875157  0.13978769  1
  O  O202  1  0.74798055  0.99126120  0.62951988  1
  O  O203  1  0.00322849  0.36574459  0.25892302  1
  O  O204  1  0.00813010  0.37465704  0.75933417  1
  O  O205  1  -0.00466133  0.86059492  0.24593792  1
  O  O206  1  0.00448700  0.87693129  0.75795515  1
  O  O207  1  0.49698466  0.35361778  0.24217953  1
  O  O208  1  0.50590735  0.36852183  0.75478909  1
  O  O209  1  0.49222205  0.86714330  0.25868677  1
  O  O210  1  0.49756693  0.86648159  0.74815276  1
  O  O211  1  0.49786536  0.14331335  0.25235540  1
  O  O212  1  0.50718578  0.13706440  0.74441273  1
  O  O213  1  0.49133707  0.63663658  0.24527713  1
  O  O214  1  0.48887057  0.62989806  0.74477899  1
  O  O215  1  0.99864448  0.12829588  0.24074292  1
  O  O216  1  0.99063669  0.12494608  0.74492054  1
  O  O217  1  0.98950003  0.63154994  0.24545339  1
  O  O218  1  1.01006462  0.62511400  0.73702562  1
  O  O219  1  0.37921631  0.25387474  0.01118025  1
  O  O220  1  0.36673757  0.25113108  0.50680880  1
  O  O221  1  0.36235563  0.74312691  0.00742482  1
  O  O222  1  0.36219305  0.75613900  0.49190847  1
  O  O223  1  0.86592394  0.24690380  0.00900575  1
  O  O224  1  0.87115264  0.25969585  0.49816238  1
  O  O225  1  0.86993048  0.75626580  0.00698454  1
  O  O226  1  0.87267742  0.76261380  0.50670567  1
  O  O227  1  0.13707246  0.23940980  0.50405812  1
  O  O228  1  0.12038911  0.24000662  0.98710728  1
  O  O229  1  0.13080179  0.74395376  0.48883196  1
  O  O230  1  0.13396930  0.74404483  0.99674913  1
  O  O231  1  0.63279802  0.24458217  0.49754431  1
  O  O232  1  0.63119207  0.24690802  0.99331818  1
  O  O233  1  0.63619727  0.75238408  0.50136451  1
  O  O234  1  0.63264522  0.74090230  1.00066275  1
  O  O235  1  0.49273813  0.24926137  0.12219005  1
  O  O236  1  0.49239250  0.24552778  0.63142377  1
  O  O237  1  0.49240503  0.75301051  0.12874243  1
  O  O238  1  0.49608354  0.74435119  0.63565303  1
  O  O239  1  0.99344437  0.24309999  0.12883037  1
  O  O240  1  1.00735272  0.23545798  0.63096829  1
  O  O241  1  0.99114391  0.74326174  0.13042709  1
  O  O242  1  0.99747458  0.74361492  0.62697877  1
  O  O243  1  -0.00444556  0.25596830  0.36605397  1
  O  O244  1  0.00567761  0.25678062  0.87382241  1
  O  O245  1  0.01200445  0.74457743  0.36869200  1
  O  O246  1  0.00752669  0.75800659  0.87552748  1
  O  O247  1  0.50481969  0.25668182  0.36967571  1
  O  O248  1  0.50462567  0.25351631  0.86815428  1
  O  O249  1  0.50095809  0.75765332  0.36353569  1
  O  O250  1  0.49551346  0.75207368  0.86169479  1
  O  O251  1  0.24226700  0.13415024  0.49673639  1
  O  O252  1  0.23681260  0.11454837  0.99068234  1
  O  O253  1  0.24240136  0.63583320  0.50552490  1
  O  O254  1  0.24559101  0.62954919  0.99489233  1
  O  O255  1  0.74391579  0.13129439  0.50386560  1
  O  O256  1  0.74922689  0.13343891  0.99353677  1
  O  O257  1  0.75275469  0.64115768  0.50630900  1
  O  O258  1  0.73864172  0.63072123  1.00173877  1
  O  O259  1  0.25088580  0.38269505  0.01533188  1
  O  O260  1  0.25072697  0.36680865  0.50658136  1
  O  O261  1  0.24472170  0.86750277  0.01098491  1
  O  O262  1  0.25597526  0.87002447  0.50399841  1
  O  O263  1  0.74689682  0.36222344  0.00733968  1
  O  O264  1  0.76310688  0.36328357  0.50539217  1
  O  O265  1  0.76129775  0.86994154  -0.00505819  1
  O  O266  1  0.75818923  0.86870290  0.50751095  1
  O  O267  1  0.13211520  0.49856645  0.24393265  1
  O  O268  1  0.13639718  0.49539289  0.74470656  1
  O  O269  1  0.13781860  0.99828063  0.24550822  1
  O  O270  1  0.13499280  0.99444356  0.74349845  1
  O  O271  1  0.62957956  0.50240172  0.25295162  1
  O  O272  1  0.62592022  0.49288908  0.75077131  1
  O  O273  1  0.63777565  1.00002208  0.24618361  1
  O  O274  1  0.63751536  1.00227576  0.74241667  1
  O  O275  1  0.36177846  0.00314716  0.24731208  1
  O  O276  1  0.36148066  -0.00212655  0.75609195  1
  O  O277  1  0.37108447  0.50658420  0.25202344  1
  O  O278  1  0.36264060  0.50872608  0.74691573  1
  O  O279  1  0.86830006  -0.00199689  0.26225047  1
  O  O280  1  0.86179652  0.01076149  0.74655707  1
  O  O281  1  0.88250714  0.50609648  0.26385071  1
  O  O282  1  0.87610993  0.49927182  0.76627524  1
  O  O283  1  0.11326804  0.37855455  0.37532099  1
  O  O284  1  0.11895484  0.36740697  0.87248412  1
  O  O285  1  0.11942721  0.86392820  0.37993869  1
  O  O286  1  0.11635089  0.87135650  0.87112822  1
  O  O287  1  0.64229977  0.38782290  0.37354590  1
  O  O288  1  0.61929800  0.36853326  0.86535680  1
  O  O289  1  0.61074358  0.87248626  0.38177055  1
  O  O290  1  0.62093681  0.86904733  0.87090419  1
  O  O291  1  0.36830299  0.14091992  0.12232368  1
  O  O292  1  0.37855255  0.13545012  0.62085208  1
  O  O293  1  0.37628261  0.63789379  0.13453093  1
  O  O294  1  0.38077659  0.62313252  0.63415087  1
  O  O295  1  0.88292363  0.13550307  0.12545780  1
  O  O296  1  0.88603935  0.11984656  0.63159941  1
  O  O297  1  0.88045118  0.62993269  0.13162255  1
  O  O298  1  0.89342103  0.63934825  0.61074733  1
  O  O299  1  0.25358403  0.26164560  0.12801197  1
  O  O300  1  0.25614183  0.25320810  0.62130669  1
  O  O301  1  0.25270050  0.75861705  0.11975378  1
  O  O302  1  0.24095898  0.76342399  0.61336606  1
  O  O303  1  0.75605794  0.25469009  0.12070812  1
  O  O304  1  0.74615848  0.26143031  0.61530154  1
  O  O305  1  0.76323256  0.74644078  0.11370504  1
  O  O306  1  0.75890029  0.76336351  0.62111070  1
  O  O307  1  0.25445380  0.25456028  0.38309206  1
  O  O308  1  0.24195046  0.24036346  0.87188697  1
  O  O309  1  0.23606397  0.75584328  0.38090830  1
  O  O310  1  0.24587256  0.74556556  0.88378593  1
  O  O311  1  0.74959665  0.24602418  0.38875669  1
  O  O312  1  0.74557062  0.24698012  0.88338482  1
  O  O313  1  0.75194834  0.75032015  0.38523317  1
  O  O314  1  0.75249856  0.74959213  0.88715805  1
  O  O315  1  0.00400223  0.11817540  0.00284047  1
  O  O316  1  0.01000780  0.12822228  0.50854321  1
  O  O317  1  0.00606474  0.61934027  0.00813615  1
  O  O318  1  0.01026188  0.61786611  0.50552457  1
  O  O319  1  0.50582672  0.10480997  -0.01096109  1
  O  O320  1  0.50629161  0.12215230  0.50545709  1
  O  O321  1  0.50787204  0.61779990  -0.00030503  1
  O  O322  1  0.49136712  0.62049329  0.50683916  1
  O  O323  1  0.49828175  0.38868191  0.50680289  1
  O  O324  1  0.50021390  0.38386147  0.99019013  1
  O  O325  1  0.49194431  0.87855469  0.49673271  1
  O  O326  1  0.50263169  0.89390670  0.99618039  1
  O  O327  1  0.99805052  0.37682214  0.49698831  1
  O  O328  1  1.00685301  0.38378994  0.99238304  1
  O  O329  1  0.98865383  0.87467245  0.50596514  1
  O  O330  1  0.99377473  0.88279078  0.99435418  1
  O  O331  1  0.48993164  0.50643803  0.38463944  1
  O  O332  1  0.50173038  0.48994837  0.88271095  1
  O  O333  1  0.49959338  0.99372568  0.37997639  1
  O  O334  1  0.48875762  0.99823731  0.87196224  1
  O  O335  1  0.99600035  0.49299769  0.38105657  1
  O  O336  1  0.99425739  0.49411886  0.88210498  1
  O  O337  1  0.98749491  0.99914709  0.36982150  1
  O  O338  1  1.00178379  0.99193824  0.88261684  1
  O  O339  1  -0.00493168  0.01290908  0.11877417  1
  O  O340  1  0.01366518  0.01018682  0.63168971  1
  O  O341  1  0.00311416  0.50150268  0.11967244  1
  O  O342  1  0.00679737  0.50583385  0.61988802  1
  O  O343  1  0.50256955  -0.00058956  0.11717677  1
  O  O344  1  0.50325672  0.00658364  0.62000196  1
  O  O345  1  0.50217955  0.50008679  0.11498976  1
  O  O346  1  0.49529594  0.50905704  0.61701300  1
  O  O347  1  0.24954266  0.38124573  0.23751750  1
  O  O348  1  0.24701457  0.38200853  0.74669475  1
  O  O349  1  0.25101900  0.88257546  0.23676095  1
  O  O350  1  0.24510779  0.87969770  0.74023147  1
  O  O351  1  0.75285609  0.37586252  0.24842955  1
  O  O352  1  0.74390626  0.37899529  0.74337522  1
  O  O353  1  0.75429296  0.88745499  0.25402549  1
  O  O354  1  0.75234698  0.88343155  0.74267066  1
  O  O355  1  0.24827701  0.11110533  0.24709431  1
  O  O356  1  0.24294489  0.11531577  0.75949775  1
  O  O357  1  0.25872529  0.61565902  0.24203552  1
  O  O358  1  0.25335106  0.62003988  0.75560216  1
  O  O359  1  0.75457670  0.11329085  0.25502984  1
  O  O360  1  0.75561251  0.12063814  0.75410183  1
  O  O361  1  0.76521590  0.62963612  0.24955032  1
  O  O362  1  0.75538120  0.61065707  0.70620855  1
  O  O363  1  0.36767228  0.12127603  0.36962741  1
  O  O364  1  0.36104417  0.11745761  0.87921036  1
  O  O365  1  0.37480446  0.61686214  0.35949903  1
  O  O366  1  0.36082780  0.62686914  0.86806976  1
  O  O367  1  0.87346400  0.10893599  0.37844038  1
  O  O368  1  0.86162453  0.12847393  0.86698772  1
  O  O369  1  0.87286221  0.61534542  0.37111336  1
  O  O370  1  0.88295422  0.61410404  0.87385891  1
  O  O371  1  0.13531435  0.37878056  0.12655758  1
  O  O372  1  0.13229485  0.37984507  0.63181428  1
  O  O373  1  0.13552106  0.86846764  0.12514162  1
  O  O374  1  0.13084995  0.88360468  0.62720114  1
  O  O375  1  0.63900367  0.37936518  0.12618872  1
  O  O376  1  0.62897979  0.37376603  0.63894330  1
  O  O377  1  0.62235342  0.89305406  0.12395579  1
  O  O378  1  0.63506323  0.88257778  0.62761484  1
  O  O379  1  0.11234552  0.24910207  0.24525693  1
  O  O380  1  0.12328106  0.25557028  0.76166295  1
  O  O381  1  0.11798030  0.74487025  0.26427624  1
  O  O382  1  0.12463275  0.75863470  0.75653588  1
  O  O383  1  0.61578076  0.24867571  0.25760540  1
  O  O384  1  0.61818813  0.25723483  0.75596596  1
  O  O385  1  0.61434972  0.74680996  0.24456843  1
  O  O386  1  0.61239155  0.75264422  0.75160335  1
  O  O387  1  0.38477882  0.24611065  0.23552776  1
  O  O388  1  0.38528926  0.25185872  0.74096053  1
  O  O389  1  0.37878438  0.74582510  0.24426633  1
  O  O390  1  0.37593475  0.73786685  0.75060149  1
  O  O391  1  0.88720155  0.24444152  0.24305742  1
  O  O392  1  0.87398052  0.23766607  0.75121291  1
  O  O393  1  0.88083304  0.74429232  0.24460438  1
  O  O394  1  0.87875228  0.75663914  0.73551865  1
  O  O395  1  0.37835065  0.49794920  0.48884624  1
  O  O396  1  0.38528066  0.49990969  1.00265008  1
  O  O397  1  0.38106193  0.99244023  0.49715517  1
  O  O398  1  0.38673666  1.00296288  0.99393212  1
  O  O399  1  0.88136725  0.48608062  0.48786139  1
  O  O400  1  0.88856933  0.50419754  0.99144741  1
  O  O401  1  0.87210533  0.98770593  0.48933361  1
  O  O402  1  0.88415835  0.99354372  1.00512559  1
  O  O403  1  0.11014921  0.00801442  -0.00353727  1
  O  O404  1  0.13286410  0.00974925  0.51041104  1
  O  O405  1  0.11486682  0.50651521  0.00609454  1
  O  O406  1  0.12434253  0.50653800  0.50463854  1
  O  O407  1  0.61902395  0.00343024  0.01098004  1
  O  O408  1  0.61975766  0.00651643  0.50686186  1
  O  O409  1  0.61968075  0.50907754  -0.00152976  1
  O  O410  1  0.61049605  0.51025514  0.50510591  1
  O  O411  1  0.36500630  0.36355032  0.12135974  1
  O  O412  1  0.36762826  0.36324714  0.62333977  1
  O  O413  1  0.36304952  0.86213959  0.12528424  1
  O  O414  1  0.36476135  0.87900767  0.61076343  1
  O  O415  1  0.86807255  0.36151710  0.13079779  1
  O  O416  1  0.87013276  0.37894022  0.61800414  1
  O  O417  1  0.88112308  0.86612322  0.11377604  1
  O  O418  1  0.87137301  0.87414805  0.61529090  1
  O  O419  1  0.12720733  0.11922707  0.38610368  1
  O  O420  1  0.13095049  0.13119590  0.88005928  1
  O  O421  1  0.12326263  0.62763789  0.38508168  1
  O  O422  1  0.13465731  0.63090457  0.87998573  1
  O  O423  1  0.62667122  0.12233890  0.38985690  1
  O  O424  1  0.63815211  0.13463608  0.87330477  1
  O  O425  1  0.63136958  0.63357730  0.37953659  1
  O  O426  1  0.62173548  0.62861706  0.88857844  1
