# generated using pymatgen
data_V85Zn86O256
_symmetry_space_group_name_H-M   'P 1'
_cell_length_a   16.97833880
_cell_length_b   16.96659820
_cell_length_c   16.96525901
_cell_angle_alpha   89.93326710
_cell_angle_beta   89.88292045
_cell_angle_gamma   89.99806535
_symmetry_Int_Tables_number   1
_chemical_formula_structural   V85Zn86O256
_chemical_formula_sum   'V85 Zn86 O256'
_cell_volume   4887.07792138
_cell_formula_units_Z   1
loop_
 _symmetry_equiv_pos_site_id
 _symmetry_equiv_pos_as_xyz
  1  'x, y, z'
loop_
 _atom_site_type_symbol
 _atom_site_label
 _atom_site_symmetry_multiplicity
 _atom_site_fract_x
 _atom_site_fract_y
 _atom_site_fract_z
 _atom_site_occupancy
  V  V0  1  0.37196138  0.62305947  0.76332076  1
  V  V1  1  0.24646880  0.75610797  0.49836520  1
  V  V2  1  0.13042386  0.87268987  0.74232546  1
  V  V3  1  0.25488251  0.73996828  0.00231312  1
  V  V4  1  0.75029490  0.00183598  0.75159074  1
  V  V5  1  0.00248080  0.62556193  0.61842027  1
  V  V6  1  0.37389467  0.24900092  0.62693708  1
  V  V7  1  0.37421580  -0.00260121  0.87617306  1
  V  V8  1  0.62027789  0.37709044  0.74974351  1
  V  V9  1  0.74703116  0.50159234  0.74916481  1
  V  V10  1  -0.00699649  0.24421457  0.24098374  1
  V  V11  1  0.00452470  0.87469732  0.88245902  1
  V  V12  1  0.37247182  0.12801861  0.24898283  1
  V  V13  1  0.49644608  0.62986487  0.63080547  1
  V  V14  1  0.74517162  0.37611447  0.62277846  1
  V  V15  1  0.75935873  0.37509980  0.12509170  1
  V  V16  1  0.49793214  0.24976683  0.74997777  1
  V  V17  1  0.74668055  0.62463411  0.87938341  1
  V  V18  1  0.49954250  0.87486333  0.87615218  1
  V  V19  1  0.32864417  0.67316899  0.18755483  1
  V  V20  1  -0.00435886  0.37584608  0.37514517  1
  V  V21  1  0.87676496  0.00336680  0.37319988  1
  V  V22  1  0.00533833  0.12352155  0.62620715  1
  V  V23  1  0.13238021  0.74235852  0.87708039  1
  V  V24  1  0.25251491  0.50266982  0.76523543  1
  V  V25  1  0.87704557  0.75019372  0.62650513  1
  V  V26  1  0.87146969  0.37705770  0.49932393  1
  V  V27  1  0.24096813  -0.01649773  0.24393107  1
  V  V28  1  0.37422730  0.12136566  0.75130104  1
  V  V29  1  0.62464179  0.50863499  0.12459164  1
  V  V30  1  0.62981331  0.63172750  0.49818544  1
  V  V31  1  0.24794426  0.37769511  0.62728908  1
  V  V32  1  -0.00551729  0.75071790  0.24818273  1
  V  V33  1  0.00333266  0.74805988  0.75347098  1
  V  V34  1  0.37390695  0.25413498  0.12423856  1
  V  V35  1  0.75306192  0.75498702  0.49787555  1
  V  V36  1  0.49059986  0.52053481  0.47901366  1
  V  V37  1  0.24422630  0.24116288  0.00014437  1
  V  V38  1  0.87632051  0.12458768  0.74942169  1
  V  V39  1  0.88182031  -0.00051265  0.88191925  1
  V  V40  1  0.50607018  0.74975659  0.23388267  1
  V  V41  1  0.75901917  0.25550692  0.00284415  1
  V  V42  1  0.62205705  0.25023999  0.87684511  1
  V  V43  1  0.12801619  0.76315128  0.36886213  1
  V  V44  1  0.36911860  0.87072924  0.01538519  1
  V  V45  1  0.62576102  0.74936286  0.87877503  1
  V  V46  1  0.50264919  0.50852904  -0.00031809  1
  V  V47  1  0.75016223  0.74521431  0.00164592  1
  V  V48  1  0.37170205  0.37649012  -0.00465947  1
  V  V49  1  0.62724343  0.37537622  0.24698809  1
  V  V50  1  0.12736939  0.50700546  0.12097498  1
  V  V51  1  0.11772113  -0.00676198  0.10483534  1
  V  V52  1  0.62339552  0.12592794  0.00125794  1
  V  V53  1  0.49367318  0.37923996  0.87436388  1
  V  V54  1  0.16486778  0.59366082  0.44988757  1
  V  V55  1  -0.01444602  0.50019252  0.00344926  1
  V  V56  1  0.12531346  0.24871579  0.37208431  1
  V  V57  1  0.00138247  0.25346446  0.74837401  1
  V  V58  1  0.74467407  0.24252734  0.49897971  1
  V  V59  1  0.87592224  0.62216851  0.74954507  1
  V  V60  1  0.12502805  0.37951669  0.24533798  1
  V  V61  1  0.36978311  0.75401606  0.62654857  1
  V  V62  1  0.38303071  0.87473708  0.49835266  1
  V  V63  1  0.12856587  0.50684193  0.63014907  1
  V  V64  1  0.25127528  0.12653018  0.37079684  1
  V  V65  1  0.62154088  0.24658616  0.37623700  1
  V  V66  1  0.12110503  0.24325084  0.87863046  1
  V  V67  1  0.87327670  0.24893043  0.62406824  1
  V  V68  1  0.74990147  -0.00081183  0.24961471  1
  V  V69  1  0.49962283  0.25440920  0.25196296  1
  V  V70  1  0.61864138  0.77112755  0.37133729  1
  V  V71  1  0.49865988  0.00005708  0.00315469  1
  V  V72  1  0.38112396  -0.00472482  0.37135903  1
  V  V73  1  0.50244036  0.12359973  0.61492872  1
  V  V74  1  0.62241527  0.50464246  0.62416738  1
  V  V75  1  0.62416335  -0.00258954  0.13090004  1
  V  V76  1  0.74824534  0.12455276  0.87529414  1
  V  V77  1  0.25120017  -0.00871797  0.74106705  1
  V  V78  1  0.62565158  0.00383176  0.61933272  1
  V  V79  1  0.38754478  0.37706173  0.49901543  1
  V  V80  1  0.25169451  0.24950632  0.49885141  1
  V  V81  1  0.00373148  -0.00153623  0.50025596  1
  V  V82  1  0.87840853  0.73576766  0.12811158  1
  V  V83  1  0.75298608  0.87663277  0.63018327  1
  V  V84  1  0.75242964  0.87637314  0.12481386  1
  Zn  Zn85  1  0.88027104  0.87679905  0.50093284  1
  Zn  Zn86  1  -0.00875587  0.37375611  0.88156865  1
  Zn  Zn87  1  0.62346274  0.87608390  0.75138982  1
  Zn  Zn88  1  0.49938779  0.75097947  0.75280033  1
  Zn  Zn89  1  0.86904185  0.49374438  0.88474666  1
  Zn  Zn90  1  0.46025604  0.43619457  0.32832674  1
  Zn  Zn91  1  0.50899887  -0.00147905  0.48842244  1
  Zn  Zn92  1  0.24489543  0.37441436  0.12409063  1
  Zn  Zn93  1  0.12146282  0.62356834  -0.00235088  1
  Zn  Zn94  1  -0.00033799  0.12020423  0.10575090  1
  Zn  Zn95  1  0.49929890  0.12674398  0.12469078  1
  Zn  Zn96  1  0.24468069  0.11852786  0.87720121  1
  Zn  Zn97  1  0.00069300  0.50113934  0.49892542  1
  Zn  Zn98  1  0.12333314  0.37581667  0.75202173  1
  Zn  Zn99  1  0.88029594  0.87501023  0.00226863  1
  Zn  Zn100  1  0.00217105  0.88210463  0.36647296  1
  Zn  Zn101  1  0.87318956  0.12704158  0.23961840  1
  Zn  Zn102  1  0.76034665  0.63359795  0.35216562  1
  Zn  Zn103  1  0.86284228  0.50196802  0.34969431  1
  Zn  Zn104  1  0.74791444  0.12502370  0.37377136  1
  Zn  Zn105  1  0.12834052  0.12305064  0.50048279  1
  Zn  Zn106  1  0.13175873  -0.00552562  0.62179266  1
  Zn  Zn107  1  0.18113296  0.18126449  0.18325233  1
  Zn  Zn108  1  0.18690893  0.18458729  0.69127913  1
  Zn  Zn109  1  0.17087547  0.68631174  0.19308305  1
  Zn  Zn110  1  0.19271146  0.68563431  0.68769888  1
  Zn  Zn111  1  0.68890636  0.18629825  0.18524658  1
  Zn  Zn112  1  0.68497954  0.18793896  0.68716425  1
  Zn  Zn113  1  0.67993051  0.69450286  0.18578331  1
  Zn  Zn114  1  0.68720248  0.69074435  0.69096580  1
  Zn  Zn115  1  0.32720102  0.34700047  0.29446788  1
  Zn  Zn116  1  0.30805413  0.31129081  0.81433591  1
  Zn  Zn117  1  0.31870627  0.80989154  0.31404767  1
  Zn  Zn118  1  0.31373398  0.81033766  0.81577009  1
  Zn  Zn119  1  0.81036165  0.31369168  0.31215148  1
  Zn  Zn120  1  0.81044815  0.31330556  0.81307363  1
  Zn  Zn121  1  0.81406656  0.81984375  0.31083969  1
  Zn  Zn122  1  0.81570516  0.81264594  0.81395124  1
  Zn  Zn123  1  0.18267216  0.42330326  0.44334490  1
  Zn  Zn124  1  0.17806642  0.42779317  0.93917365  1
  Zn  Zn125  1  0.19478810  0.93858577  0.43819090  1
  Zn  Zn126  1  0.19575368  0.92607848  0.93254406  1
  Zn  Zn127  1  0.67804452  0.43907067  0.43173873  1
  Zn  Zn128  1  0.68482613  0.43836292  0.93942957  1
  Zn  Zn129  1  0.69452299  0.94143390  0.44173544  1
  Zn  Zn130  1  0.68891806  0.93590381  0.94178449  1
  Zn  Zn131  1  0.30980365  0.06095733  0.06706403  1
  Zn  Zn132  1  0.31639104  0.06155101  0.55914181  1
  Zn  Zn133  1  0.30528863  0.55396486  0.05054547  1
  Zn  Zn134  1  0.32160892  0.55499112  0.43717751  1
  Zn  Zn135  1  0.81621542  0.06746781  0.06390314  1
  Zn  Zn136  1  0.81627328  0.06233100  0.56112529  1
  Zn  Zn137  1  0.80588484  0.55657745  0.18289757  1
  Zn  Zn138  1  0.81198451  0.56311346  0.49368245  1
  Zn  Zn139  1  0.41379499  0.48078233  0.16882055  1
  Zn  Zn140  1  0.43396396  0.44421838  0.68287065  1
  Zn  Zn141  1  0.44179372  0.93460810  0.19643492  1
  Zn  Zn142  1  0.43901232  0.93541046  0.68512156  1
  Zn  Zn143  1  0.94464235  0.43159064  0.17898291  1
  Zn  Zn144  1  0.93458367  0.43866989  0.68575432  1
  Zn  Zn145  1  0.93945849  0.93721729  0.18594346  1
  Zn  Zn146  1  0.94272765  0.93767292  0.69295483  1
  Zn  Zn147  1  0.06553532  0.06328364  0.31045860  1
  Zn  Zn148  1  0.06424213  0.06207398  0.93014707  1
  Zn  Zn149  1  0.04472436  0.55915765  0.30018075  1
  Zn  Zn150  1  0.06020224  0.55948938  0.81722354  1
  Zn  Zn151  1  0.56251819  0.06889774  0.30898776  1
  Zn  Zn152  1  0.56167441  0.06044434  0.80978810  1
  Zn  Zn153  1  0.58216190  0.57590354  0.30587290  1
  Zn  Zn154  1  0.56060467  0.56478615  0.81700047  1
  Zn  Zn155  1  0.43707559  0.18971588  0.43482582  1
  Zn  Zn156  1  0.43497488  0.18700208  0.93787756  1
  Zn  Zn157  1  0.44355093  0.69278140  0.43707505  1
  Zn  Zn158  1  0.43755350  0.69112119  0.94195171  1
  Zn  Zn159  1  0.93669102  0.18599442  0.43630489  1
  Zn  Zn160  1  0.93403074  0.19103619  0.93562500  1
  Zn  Zn161  1  0.94156430  0.69102037  0.43221876  1
  Zn  Zn162  1  0.93614474  0.68150373  0.94204258  1
  Zn  Zn163  1  0.05859113  0.31543405  0.05917698  1
  Zn  Zn164  1  0.06332943  0.31224968  0.56149577  1
  Zn  Zn165  1  0.06665571  0.81422394  0.06716575  1
  Zn  Zn166  1  0.06543240  0.80933936  0.55860878  1
  Zn  Zn167  1  0.56126244  0.31572972  0.06346283  1
  Zn  Zn168  1  0.56169608  0.31236310  0.56125191  1
  Zn  Zn169  1  0.56569237  0.81555403  0.06063385  1
  Zn  Zn170  1  0.56348325  0.81581787  0.56453439  1
  O  O171  1  0.11845107  0.10088267  0.13352380  1
  O  O172  1  0.11480051  0.12381101  0.62321804  1
  O  O173  1  0.12358826  0.61058408  0.12306573  1
  O  O174  1  0.11661757  0.61788992  0.63233792  1
  O  O175  1  0.62290974  0.11781919  0.11611355  1
  O  O176  1  0.61376404  0.11731470  0.63146066  1
  O  O177  1  0.62772833  0.60675006  0.12197902  1
  O  O178  1  0.61749723  0.62253324  0.62477956  1
  O  O179  1  0.37842586  0.36845449  0.39726745  1
  O  O180  1  0.38601833  0.36695090  0.87995027  1
  O  O181  1  0.37268797  0.88439457  0.38394109  1
  O  O182  1  0.38325708  0.87939690  0.88343946  1
  O  O183  1  0.87836376  0.37728464  0.38352059  1
  O  O184  1  0.87832026  0.38374716  0.86092903  1
  O  O185  1  0.87537133  0.89062422  0.38027778  1
  O  O186  1  0.88612391  0.88256986  0.87301979  1
  O  O187  1  0.26003782  0.00809277  0.36695127  1
  O  O188  1  0.25879765  -0.00122138  0.86330119  1
  O  O189  1  0.22456592  0.51852972  0.39613392  1
  O  O190  1  0.24527790  0.48763397  0.86330529  1
  O  O191  1  0.75589539  0.00355466  0.36745089  1
  O  O192  1  0.75367129  0.00439764  0.86829120  1
  O  O193  1  0.75638514  0.51266358  0.40082139  1
  O  O194  1  0.74650989  0.50875499  0.86996821  1
  O  O195  1  0.23269342  0.49271459  0.11948217  1
  O  O196  1  0.23609443  0.49071014  0.63225977  1
  O  O197  1  0.24086629  1.00414642  0.13896510  1
  O  O198  1  0.25327082  1.00424161  0.63664421  1
  O  O199  1  0.73464875  0.48376192  0.11758314  1
  O  O200  1  0.73238057  0.49529470  0.62935874  1
  O  O201  1  0.74399489  0.99549093  0.12867145  1
  O  O202  1  0.74620251  0.99633324  0.62996871  1
  O  O203  1  0.00627283  0.36192521  0.25649677  1
  O  O204  1  0.00015098  0.36011151  0.73922404  1
  O  O205  1  -0.00831549  0.86122641  0.25287190  1
  O  O206  1  0.00977529  0.86701274  0.75861850  1
  O  O207  1  0.51228358  0.36154768  0.25152765  1
  O  O208  1  0.50038619  0.37290455  0.75498526  1
  O  O209  1  0.49121061  0.85154549  0.25251810  1
  O  O210  1  0.49958325  0.87536140  0.76502537  1
  O  O211  1  0.49121158  0.13783503  0.24592650  1
  O  O212  1  0.48887754  0.12747052  0.74368496  1
  O  O213  1  0.50705626  0.64958603  0.26290317  1
  O  O214  1  0.49360815  0.62674591  0.74616751  1
  O  O215  1  0.99933842  0.14002769  0.25676729  1
  O  O216  1  0.99095787  0.13769746  0.73830356  1
  O  O217  1  0.99396024  0.64905484  0.25744558  1
  O  O218  1  0.99214264  0.62900227  0.74692783  1
  O  O219  1  0.37069450  0.25681447  0.00617136  1
  O  O220  1  0.37354278  0.25800123  0.50871468  1
  O  O221  1  0.37087808  0.76160903  0.00131350  1
  O  O222  1  0.37080642  0.75618803  0.50372087  1
  O  O223  1  0.85649454  0.25373458  -0.00839478  1
  O  O224  1  0.86763807  0.25802680  0.50437653  1
  O  O225  1  0.86974812  0.75200671  0.01144225  1
  O  O226  1  0.86871826  0.75594885  0.50791610  1
  O  O227  1  0.13136944  0.24978663  0.48815532  1
  O  O228  1  0.13396805  0.25455169  0.99258123  1
  O  O229  1  0.13375346  0.74734611  0.48819256  1
  O  O230  1  0.13568909  0.74886532  0.99637761  1
  O  O231  1  0.63241635  0.25839603  0.48963210  1
  O  O232  1  0.62501130  0.24223103  0.99389526  1
  O  O233  1  0.63399110  0.75137482  0.49614740  1
  O  O234  1  0.63352946  0.75548470  0.98701765  1
  O  O235  1  0.48966235  0.25040733  0.13084989  1
  O  O236  1  0.49615605  0.24227304  0.63102084  1
  O  O237  1  0.51485207  0.74541676  0.13315931  1
  O  O238  1  0.49723915  0.74593279  0.63104852  1
  O  O239  1  1.00777079  0.24797544  0.13974786  1
  O  O240  1  0.99523131  0.24158900  0.62585194  1
  O  O241  1  0.98568835  0.75488159  0.12972679  1
  O  O242  1  0.99878725  0.74344079  0.63221298  1
  O  O243  1  0.00650349  0.25774472  0.37239784  1
  O  O244  1  0.00351665  0.25150736  0.86283984  1
  O  O245  1  0.00969365  0.76076859  0.37341354  1
  O  O246  1  0.00591834  0.75464925  0.87016410  1
  O  O247  1  0.50787289  0.24819805  0.36637564  1
  O  O248  1  0.50336840  0.25592207  0.86841174  1
  O  O249  1  0.51865975  0.75825416  0.38308005  1
  O  O250  1  0.50856713  0.75793525  0.87722864  1
  O  O251  1  0.25272678  0.13086912  0.48843161  1
  O  O252  1  0.25959230  0.13721138  0.99586156  1
  O  O253  1  0.25105768  0.63841547  0.49310052  1
  O  O254  1  0.24986293  0.63615967  0.99631762  1
  O  O255  1  0.75296749  0.13972823  0.50274681  1
  O  O256  1  0.74329526  0.13640899  0.99506153  1
  O  O257  1  0.74013255  0.64675251  0.52066399  1
  O  O258  1  0.75171808  0.64113966  0.98870138  1
  O  O259  1  0.25849285  0.36276353  -0.00251127  1
  O  O260  1  0.25979425  0.36947030  0.51203650  1
  O  O261  1  0.26400972  0.86400573  0.00270828  1
  O  O262  1  0.26169368  0.86311985  0.49827790  1
  O  O263  1  0.73957682  0.36229967  0.00829710  1
  O  O264  1  0.75419170  0.36745466  0.50573694  1
  O  O265  1  0.75464258  0.86391132  0.00463329  1
  O  O266  1  0.75386398  0.86967744  0.51383924  1
  O  O267  1  0.11168774  0.49156688  0.23440588  1
  O  O268  1  0.13223684  0.49773093  0.74627543  1
  O  O269  1  0.14082338  0.99471002  0.25921692  1
  O  O270  1  0.13917034  0.98650404  0.74563477  1
  O  O271  1  0.61456520  0.48952839  0.23327306  1
  O  O272  1  0.62596512  0.49742796  0.74379169  1
  O  O273  1  0.63025821  1.00603420  0.23754579  1
  O  O274  1  0.63394619  0.99916612  0.74104362  1
  O  O275  1  0.36689706  0.00703105  0.25389975  1
  O  O276  1  0.37264020  0.00433351  0.75384458  1
  O  O277  1  0.37077354  0.45292854  0.26512036  1
  O  O278  1  0.36546207  0.51101532  0.74552990  1
  O  O279  1  0.86842566  0.00181978  0.25747450  1
  O  O280  1  0.86999751  0.00621022  0.75806072  1
  O  O281  1  0.88325750  0.50029672  0.24120020  1
  O  O282  1  0.86591114  0.51309984  0.74332957  1
  O  O283  1  0.11508489  0.36685660  0.36951683  1
  O  O284  1  0.11739753  0.35914896  0.86892274  1
  O  O285  1  0.12447647  0.86523257  0.37996610  1
  O  O286  1  0.12008379  0.86508238  0.86602852  1
  O  O287  1  0.63821148  0.36176812  0.35609817  1
  O  O288  1  0.61445573  0.36984833  0.86902169  1
  O  O289  1  0.63015433  0.86884795  0.38129784  1
  O  O290  1  0.61602618  0.87157477  0.87581194  1
  O  O291  1  0.37446783  0.13782284  0.13085740  1
  O  O292  1  0.38206958  0.12935716  0.63159445  1
  O  O293  1  0.37482683  0.59519227  0.13672152  1
  O  O294  1  0.39073154  0.63873633  0.63207022  1
  O  O295  1  0.88676578  0.12085642  0.12747260  1
  O  O296  1  0.88360520  0.12957168  0.62873552  1
  O  O297  1  0.86839437  0.63909461  0.12276223  1
  O  O298  1  0.88553587  0.63503852  0.63541981  1
  O  O299  1  0.25395210  0.24929566  0.11782644  1
  O  O300  1  0.25354368  0.25506545  0.62044985  1
  O  O301  1  0.26403921  0.72897082  0.12543418  1
  O  O302  1  0.26028620  0.74427183  0.61374294  1
  O  O303  1  0.74428783  0.25854742  0.11055474  1
  O  O304  1  0.75032850  0.25624764  0.61851758  1
  O  O305  1  0.75489983  0.75789915  0.11906650  1
  O  O306  1  0.75470899  0.76192996  0.62417544  1
  O  O307  1  0.24211210  0.24421931  0.37959947  1
  O  O308  1  0.24081494  0.24618382  0.88150128  1
  O  O309  1  0.23647511  0.75277259  0.37817447  1
  O  O310  1  0.24252800  0.75669377  0.88847349  1
  O  O311  1  0.74477010  0.24736964  0.38324826  1
  O  O312  1  0.74044328  0.24642733  0.88259304  1
  O  O313  1  0.74534166  0.75421617  0.38415673  1
  O  O314  1  0.74573202  0.74661857  0.87997584  1
  O  O315  1  0.00487297  0.13134644  -0.00708178  1
  O  O316  1  0.00129269  0.11554807  0.50788276  1
  O  O317  1  0.00499344  0.60881340  -0.00547377  1
  O  O318  1  -0.00284062  0.62476538  0.51553435  1
  O  O319  1  0.50439518  0.11739759  0.00141671  1
  O  O320  1  0.49339287  0.12206325  0.51232737  1
  O  O321  1  0.49475205  0.60675733  -0.00649460  1
  O  O322  1  0.51516104  0.63031394  0.51439795  1
  O  O323  1  0.49084103  0.38502350  0.50626953  1
  O  O324  1  0.49204861  0.37679090  0.98996620  1
  O  O325  1  0.48778220  0.88049441  0.50603011  1
  O  O326  1  0.49164407  0.87949144  0.99263707  1
  O  O327  1  0.99131217  0.37185406  0.49150853  1
  O  O328  1  1.00125491  0.39053975  0.99768720  1
  O  O329  1  1.00121474  0.88966209  0.50264600  1
  O  O330  1  1.00064652  0.86817374  0.98577789  1
  O  O331  1  0.53845075  0.49126735  0.38678585  1
  O  O332  1  0.50691473  0.48910046  0.88621670  1
  O  O333  1  0.48617632  1.00994173  0.37250166  1
  O  O334  1  0.49540401  0.99353339  0.88226180  1
  O  O335  1  0.99791128  0.48479265  0.37757076  1
  O  O336  1  0.99682451  0.49617519  0.88616080  1
  O  O337  1  0.99534018  1.00149874  0.38260158  1
  O  O338  1  0.99271911  0.98972096  0.87144451  1
  O  O339  1  0.01355716  -0.00469318  0.11884363  1
  O  O340  1  0.00225210  0.00832149  0.62010358  1
  O  O341  1  0.01224463  0.49526467  0.11067795  1
  O  O342  1  0.01230148  0.50728563  0.62861405  1
  O  O343  1  0.50793959  0.00022243  0.12187603  1
  O  O344  1  0.50942297  0.00751508  0.62571151  1
  O  O345  1  0.50971001  0.49081872  0.10831518  1
  O  O346  1  0.50664633  0.51207749  0.61768361  1
  O  O347  1  0.22659710  0.36502296  0.24772416  1
  O  O348  1  0.25233881  0.37974601  0.73831740  1
  O  O349  1  0.25782009  0.88640469  0.25112419  1
  O  O350  1  0.24450427  0.87992312  0.75327319  1
  O  O351  1  0.74411679  0.36573736  0.23291398  1
  O  O352  1  0.73858906  0.38068459  0.74225977  1
  O  O353  1  0.75127754  0.89032949  0.24072409  1
  O  O354  1  0.75135021  0.88142973  0.74181781  1
  O  O355  1  0.25391958  0.12467706  0.26037817  1
  O  O356  1  0.26324022  0.11753211  0.75040970  1
  O  O357  1  0.26175303  0.63404651  0.24914530  1
  O  O358  1  0.26004203  0.61437172  0.74846203  1
  O  O359  1  0.75231369  0.11359579  0.24868010  1
  O  O360  1  0.75564499  0.12212823  0.75511853  1
  O  O361  1  0.73360650  0.61731917  0.24552166  1
  O  O362  1  0.75693922  0.62138299  0.75504288  1
  O  O363  1  0.36756163  0.12176549  0.36878782  1
  O  O364  1  0.37578805  0.11605481  0.86627717  1
  O  O365  1  0.42360445  0.58493505  0.40922121  1
  O  O366  1  0.38027528  0.63198496  0.86198582  1
  O  O367  1  0.87158985  0.11385927  0.37371208  1
  O  O368  1  0.86761418  0.11835531  0.86780768  1
  O  O369  1  0.86646900  0.61526443  0.39949118  1
  O  O370  1  0.86273828  0.62247338  0.86694267  1
  O  O371  1  0.12313807  0.38157795  0.13129239  1
  O  O372  1  0.13335315  0.38116777  0.62501363  1
  O  O373  1  0.12894893  0.89355639  0.12232266  1
  O  O374  1  0.12161366  0.87123705  0.63876079  1
  O  O375  1  0.63047080  0.37575959  0.13385482  1
  O  O376  1  0.62332408  0.38489930  0.62978629  1
  O  O377  1  0.63947568  0.88630284  0.11633540  1
  O  O378  1  0.63415914  0.88417394  0.62985960  1
  O  O379  1  0.11559321  0.25188610  0.25990520  1
  O  O380  1  0.11591271  0.25059582  0.75406933  1
  O  O381  1  0.11507449  0.75518437  0.26170126  1
  O  O382  1  0.12538392  0.75432191  0.75738500  1
  O  O383  1  0.61767511  0.25304304  0.25211019  1
  O  O384  1  0.61648069  0.25599530  0.75534709  1
  O  O385  1  0.61974290  0.75774962  0.26307483  1
  O  O386  1  0.62426185  0.75594234  0.76437424  1
  O  O387  1  0.38082904  0.25277244  0.24273895  1
  O  O388  1  0.37829265  0.24105479  0.74623761  1
  O  O389  1  0.38412027  0.74067959  0.24642531  1
  O  O390  1  0.37406006  0.74381159  0.74244647  1
  O  O391  1  0.89037473  0.24986598  0.25631285  1
  O  O392  1  0.87764906  0.24275717  0.74224699  1
  O  O393  1  0.87469599  0.75485814  0.23522743  1
  O  O394  1  0.88083463  0.74075698  0.74738145  1
  O  O395  1  0.38394259  0.48475163  0.51225951  1
  O  O396  1  0.38565162  0.48423615  1.00200280  1
  O  O397  1  0.37555991  0.99152006  0.48982922  1
  O  O398  1  0.37678929  0.99031851  0.99739322  1
  O  O399  1  0.88365168  0.47997167  0.51994078  1
  O  O400  1  0.88688610  0.50467209  1.00340349  1
  O  O401  1  0.88483099  0.99984026  0.49371982  1
  O  O402  1  0.86523062  0.99709300  0.98362675  1
  O  O403  1  0.13346591  -0.00246926  -0.00023813  1
  O  O404  1  0.12083727  0.00230275  0.50279393  1
  O  O405  1  0.12348873  0.50132532  0.00890029  1
  O  O406  1  0.12129546  0.50686820  0.50923118  1
  O  O407  1  0.62066090  0.00701677  0.00828491  1
  O  O408  1  0.62582117  -0.00023024  0.51379992  1
  O  O409  1  0.61138694  0.49268595  0.00958708  1
  O  O410  1  0.61735121  0.51450563  0.50942820  1
  O  O411  1  0.36920585  0.36449699  0.11421595  1
  O  O412  1  0.36917484  0.36798165  0.61951054  1
  O  O413  1  0.38026505  0.88049828  0.11211533  1
  O  O414  1  0.37917267  0.86149407  0.61955436  1
  O  O415  1  0.85771988  0.37465216  0.12338563  1
  O  O416  1  0.86606585  0.36543028  0.62165025  1
  O  O417  1  0.86245128  0.87606122  0.12027623  1
  O  O418  1  0.86957656  0.87041040  0.62820876  1
  O  O419  1  0.13342617  0.13246977  0.37720915  1
  O  O420  1  0.12840711  0.13801859  0.86839887  1
  O  O421  1  0.11013534  0.63661986  0.37409071  1
  O  O422  1  0.12321474  0.63966750  0.87315818  1
  O  O423  1  0.62842665  0.14075125  0.37079849  1
  O  O424  1  0.62928761  0.12821938  0.87986852  1
  O  O425  1  0.63363259  0.63951734  0.39149088  1
  O  O426  1  0.63737737  0.63439413  0.86942759  1
