# generated using pymatgen
data_V85Zn86O256
_symmetry_space_group_name_H-M   'P 1'
_cell_length_a   16.93029612
_cell_length_b   16.92256160
_cell_length_c   16.93517057
_cell_angle_alpha   89.99614763
_cell_angle_beta   90.02645522
_cell_angle_gamma   89.98314269
_symmetry_Int_Tables_number   1
_chemical_formula_structural   V85Zn86O256
_chemical_formula_sum   'V85 Zn86 O256'
_cell_volume   4851.99301587
_cell_formula_units_Z   1
loop_
 _symmetry_equiv_pos_site_id
 _symmetry_equiv_pos_as_xyz
  1  'x, y, z'
loop_
 _atom_site_type_symbol
 _atom_site_label
 _atom_site_symmetry_multiplicity
 _atom_site_fract_x
 _atom_site_fract_y
 _atom_site_fract_z
 _atom_site_occupancy
  V  V0  1  0.25171254  -0.00161701  0.24812134  1
  V  V1  1  0.62684982  0.14173802  0.49941628  1
  V  V2  1  0.24830349  0.37426153  0.12577100  1
  V  V3  1  0.25062086  0.24917779  0.00240441  1
  V  V4  1  0.50116704  0.00997788  0.00409928  1
  V  V5  1  0.74642632  0.36916175  0.12326989  1
  V  V6  1  0.38139793  0.12365030  0.24648229  1
  V  V7  1  0.87613663  0.75003623  0.62464855  1
  V  V8  1  0.87727690  0.50207998  0.36344713  1
  V  V9  1  0.12679737  -0.00251633  0.12202895  1
  V  V10  1  -0.00019309  0.75177499  0.75037125  1
  V  V11  1  0.49704868  0.12357859  0.62998913  1
  V  V12  1  0.38203643  0.38157685  0.00184833  1
  V  V13  1  0.74862912  0.61066048  0.88066283  1
  V  V14  1  -0.00662789  -0.00251888  -0.00100486  1
  V  V15  1  0.12433166  0.12468012  -0.00197919  1
  V  V16  1  0.75346382  0.50036201  0.74103009  1
  V  V17  1  0.50636095  0.87717841  0.87631188  1
  V  V18  1  0.74717783  0.14697019  0.38051660  1
  V  V19  1  0.43565898  0.68909095  0.07292380  1
  V  V20  1  -0.00261284  0.24892370  0.75036479  1
  V  V21  1  0.12360074  0.37451403  0.24956763  1
  V  V22  1  0.50036997  0.25712324  0.27021191  1
  V  V23  1  0.62208290  0.74283320  0.37366576  1
  V  V24  1  0.50841797  0.75049589  0.74997706  1
  V  V25  1  0.50458914  0.49372255  0.50414083  1
  V  V26  1  0.12506203  0.75221861  0.87485913  1
  V  V27  1  0.38090488  0.63080323  0.26259165  1
  V  V28  1  -0.00273122  0.49785559  0.50006584  1
  V  V29  1  0.24550160  0.12172044  0.37915360  1
  V  V30  1  0.86227254  0.12365918  0.75092468  1
  V  V31  1  0.25841147  0.87179586  0.12440531  1
  V  V32  1  0.62350558  0.87303823  0.25006070  1
  V  V33  1  0.12401491  0.25106990  0.87563962  1
  V  V34  1  0.12761038  0.74367895  0.37106476  1
  V  V35  1  0.24857814  0.50794028  0.25945204  1
  V  V36  1  0.75509677  0.62372460  0.36959461  1
  V  V37  1  0.75123060  0.74632882  0.50209292  1
  V  V38  1  0.00271415  0.12705395  0.61637133  1
  V  V39  1  0.75378394  0.88288719  0.62596196  1
  V  V40  1  0.75035566  0.00009379  0.26317028  1
  V  V41  1  0.37378617  0.37388449  0.49273497  1
  V  V42  1  0.12704422  0.38198083  0.74975847  1
  V  V43  1  -0.00497766  0.87663018  0.87810384  1
  V  V44  1  -0.00582162  0.37320378  0.37812867  1
  V  V45  1  0.87387489  0.12130448  0.25559513  1
  V  V46  1  -0.00477989  0.87765064  0.37617359  1
  V  V47  1  0.37038478  0.24548217  0.63412651  1
  V  V48  1  0.24688035  0.61859911  0.86498573  1
  V  V49  1  -0.00147224  0.12445258  0.12521452  1
  V  V50  1  0.64252313  0.24622521  0.87782338  1
  V  V51  1  0.24381708  0.24578462  0.50357559  1
  V  V52  1  0.37725562  0.87366736  0.49918916  1
  V  V53  1  0.37858581  0.49652262  0.86829757  1
  V  V54  1  -0.00125815  0.24840386  0.24827172  1
  V  V55  1  0.75018976  0.50548215  0.23968207  1
  V  V56  1  0.64222957  0.12755598  -0.00050149  1
  V  V57  1  0.37603367  0.74957444  0.62829460  1
  V  V58  1  0.37660511  -0.00188491  0.37540424  1
  V  V59  1  0.86608098  0.00402207  0.87189819  1
  V  V60  1  0.62445946  0.00673731  0.12815101  1
  V  V61  1  -0.01464536  0.62853564  0.12596087  1
  V  V62  1  0.62506289  0.62131112  0.51148779  1
  V  V63  1  0.12130957  0.62499813  0.00014824  1
  V  V64  1  0.12611066  0.00473147  0.61418910  1
  V  V65  1  0.62425477  0.38048537  0.74657182  1
  V  V66  1  0.12816542  0.88154725  0.74902152  1
  V  V67  1  -0.01306408  0.74669540  0.24678376  1
  V  V68  1  -0.00244113  0.62576369  0.62242598  1
  V  V69  1  0.12104883  0.50222878  0.12393683  1
  V  V70  1  0.25167788  0.74149359  0.49589811  1
  V  V71  1  0.76297393  0.86795515  0.12582054  1
  V  V72  1  0.37527065  0.00492429  0.86815930  1
  V  V73  1  0.49779977  0.24837336  0.75768908  1
  V  V74  1  0.25013764  0.38376045  0.62823828  1
  V  V75  1  0.60768344  0.50589389  0.11789459  1
  V  V76  1  0.86795708  0.25701344  0.61401461  1
  V  V77  1  0.24864760  0.74774840  0.00354739  1
  V  V78  1  0.12367940  0.24598538  0.37713381  1
  V  V79  1  0.75453798  0.75695747  -0.01239721  1
  V  V80  1  0.62906370  0.00305700  0.62579802  1
  V  V81  1  0.86645959  0.37261702  -0.00531576  1
  V  V82  1  0.63206878  0.87932996  0.75323685  1
  V  V83  1  -0.00428581  0.38385829  0.87541079  1
  V  V84  1  0.38740546  0.24678528  0.12368044  1
  Zn  Zn85  1  0.12582891  0.87130238  0.24835940  1
  Zn  Zn86  1  0.74059159  0.36687827  0.61037899  1
  Zn  Zn87  1  0.50178096  0.87419736  0.37459747  1
  Zn  Zn88  1  0.50632051  0.37952049  0.88032864  1
  Zn  Zn89  1  0.12643694  0.50423977  0.62579141  1
  Zn  Zn90  1  0.50020126  0.74458506  0.24382621  1
  Zn  Zn91  1  0.12802085  0.62237056  0.49720439  1
  Zn  Zn92  1  0.25737295  0.12950078  0.87038100  1
  Zn  Zn93  1  0.62401958  0.37125257  0.25396441  1
  Zn  Zn94  1  0.50387846  0.61938654  0.63257450  1
  Zn  Zn95  1  0.87825988  0.62032064  0.75854878  1
  Zn  Zn96  1  0.50263850  0.00074720  0.49911797  1
  Zn  Zn97  1  0.37333811  0.61908584  0.74648053  1
  Zn  Zn98  1  0.25041810  0.87661744  0.62566996  1
  Zn  Zn99  1  0.87084950  0.88540109  0.49416736  1
  Zn  Zn100  1  0.38157282  0.87461569  0.00195948  1
  Zn  Zn101  1  0.36925498  0.50248454  0.38014841  1
  Zn  Zn102  1  0.86376946  0.24389348  0.11943548  1
  Zn  Zn103  1  -0.00670205  0.50332028  -0.00391487  1
  Zn  Zn104  1  0.61804534  0.62964409  -0.00034564  1
  Zn  Zn105  1  -0.00227531  0.00755010  0.49172197  1
  Zn  Zn106  1  0.25358319  0.01242430  0.74439638  1
  Zn  Zn107  1  0.18931180  0.18487478  0.18796196  1
  Zn  Zn108  1  0.18509902  0.18686106  0.69135919  1
  Zn  Zn109  1  0.18667028  0.68601438  0.18829278  1
  Zn  Zn110  1  0.18541120  0.69138320  0.68364643  1
  Zn  Zn111  1  0.68094622  0.18722074  0.19289631  1
  Zn  Zn112  1  0.68575103  0.19032990  0.68877450  1
  Zn  Zn113  1  0.68516044  0.68442103  0.18310517  1
  Zn  Zn114  1  0.69183364  0.68920795  0.69355857  1
  Zn  Zn115  1  0.31077660  0.31035250  0.31137239  1
  Zn  Zn116  1  0.31110913  0.31358205  0.81361273  1
  Zn  Zn117  1  0.31315440  0.80899455  0.31240973  1
  Zn  Zn118  1  0.31533237  0.81638289  0.81495988  1
  Zn  Zn119  1  0.81446205  0.31590077  0.30552246  1
  Zn  Zn120  1  0.81375622  0.31693505  0.80680244  1
  Zn  Zn121  1  0.81057033  0.81104129  0.31172248  1
  Zn  Zn122  1  0.81435097  0.81425082  0.81135702  1
  Zn  Zn123  1  0.18218744  0.43407729  0.43997685  1
  Zn  Zn124  1  0.18871241  0.43800351  0.93765863  1
  Zn  Zn125  1  0.18700976  0.92874075  0.43665180  1
  Zn  Zn126  1  0.18942606  0.93650521  0.93786685  1
  Zn  Zn127  1  0.68403414  0.42039884  0.43294272  1
  Zn  Zn128  1  0.68397400  0.43669032  0.93942382  1
  Zn  Zn129  1  0.68509971  0.93642247  0.44202505  1
  Zn  Zn130  1  0.68908085  0.93799946  0.94223120  1
  Zn  Zn131  1  0.31561130  0.06268733  0.05950449  1
  Zn  Zn132  1  0.31260329  0.06171108  0.56299548  1
  Zn  Zn133  1  0.30603495  0.55723506  0.06024803  1
  Zn  Zn134  1  0.31618741  0.56301685  0.56471248  1
  Zn  Zn135  1  0.81331960  0.05508016  0.06840771  1
  Zn  Zn136  1  0.81601805  0.06582475  0.55798070  1
  Zn  Zn137  1  0.81071565  0.55729806  0.05557920  1
  Zn  Zn138  1  0.79061328  0.52157171  0.53438351  1
  Zn  Zn139  1  0.43264646  0.43863491  0.19201321  1
  Zn  Zn140  1  0.43780876  0.43363258  0.68678054  1
  Zn  Zn141  1  0.44105136  0.93507126  0.18644671  1
  Zn  Zn142  1  0.44127346  0.93613952  0.68720968  1
  Zn  Zn143  1  0.93469216  0.43529615  0.18237481  1
  Zn  Zn144  1  0.93423768  0.43860166  0.68774243  1
  Zn  Zn145  1  0.93867778  0.93921911  0.19400848  1
  Zn  Zn146  1  0.93914860  0.94178046  0.68528025  1
  Zn  Zn147  1  0.06578116  0.05919677  0.31001448  1
  Zn  Zn148  1  0.06224731  0.06457499  0.80968836  1
  Zn  Zn149  1  0.06162860  0.56585206  0.30998690  1
  Zn  Zn150  1  0.06205322  0.56377551  0.81033529  1
  Zn  Zn151  1  0.56278380  0.06642995  0.31604862  1
  Zn  Zn152  1  0.56726530  0.06406723  0.81260206  1
  Zn  Zn153  1  0.57637812  0.52713990  0.33023122  1
  Zn  Zn154  1  0.56607595  0.56384049  0.81772217  1
  Zn  Zn155  1  0.43192645  0.18372465  0.44430236  1
  Zn  Zn156  1  0.44211897  0.18568748  0.94099676  1
  Zn  Zn157  1  0.44120393  0.68218195  0.43904614  1
  Zn  Zn158  1  0.43729807  0.68824755  0.91146443  1
  Zn  Zn159  1  0.93282195  0.18647118  0.43712280  1
  Zn  Zn160  1  0.93313900  0.18997057  0.93607305  1
  Zn  Zn161  1  0.93719236  0.68777107  0.43741615  1
  Zn  Zn162  1  0.92891760  0.69102570  0.94200376  1
  Zn  Zn163  1  0.05717206  0.31288299  0.06111402  1
  Zn  Zn164  1  0.06108928  0.31321709  0.56304616  1
  Zn  Zn165  1  0.06156389  0.81337719  0.06440364  1
  Zn  Zn166  1  0.06556651  0.81383610  0.56027287  1
  Zn  Zn167  1  0.56633797  0.31244889  0.06280299  1
  Zn  Zn168  1  0.55599244  0.31327096  0.56684176  1
  Zn  Zn169  1  0.57592258  0.81929497  0.05794768  1
  Zn  Zn170  1  0.56367712  0.81130419  0.56330793  1
  O  O171  1  0.12046921  0.11726952  0.11906126  1
  O  O172  1  0.11566497  0.11770942  0.62732148  1
  O  O173  1  0.11827723  0.61788257  0.11875830  1
  O  O174  1  0.11222799  0.62466297  0.62433654  1
  O  O175  1  0.62975113  0.11414448  0.11984232  1
  O  O176  1  0.62125262  0.12056380  0.62003287  1
  O  O177  1  0.62372424  0.61140484  0.11898914  1
  O  O178  1  0.62786298  0.63234271  0.61397885  1
  O  O179  1  0.36612973  0.37403377  0.38992177  1
  O  O180  1  0.37277918  0.38472065  0.88248221  1
  O  O181  1  0.37788691  0.87922020  0.38106186  1
  O  O182  1  0.38643425  0.88506771  0.88040025  1
  O  O183  1  0.88773644  0.38304812  0.36693635  1
  O  O184  1  0.88146783  0.36861102  0.88456387  1
  O  O185  1  0.89034124  0.86851151  0.37380543  1
  O  O186  1  0.88926826  0.88534822  0.86478041  1
  O  O187  1  0.25408862  0.00356386  0.37045838  1
  O  O188  1  0.26705445  -0.00144074  0.87811308  1
  O  O189  1  0.24526849  0.49497717  0.36274553  1
  O  O190  1  0.25812744  0.50900722  0.87815858  1
  O  O191  1  0.74480866  -0.00012822  0.36483101  1
  O  O192  1  0.76735025  -0.00669387  0.88029549  1
  O  O193  1  0.76105515  0.50701406  0.36270140  1
  O  O194  1  0.75049735  0.50783400  0.87216424  1
  O  O195  1  0.23722315  0.49462932  0.13179240  1
  O  O196  1  0.24834698  0.48758924  0.62242434  1
  O  O197  1  0.24696151  0.99287367  0.12612466  1
  O  O198  1  0.24242686  0.99689023  0.62601226  1
  O  O199  1  0.74810292  0.49098230  0.12783742  1
  O  O200  1  0.74662756  0.50954443  0.64171360  1
  O  O201  1  0.74325787  0.99160727  0.13757377  1
  O  O202  1  0.74509640  0.99026140  0.62059014  1
  O  O203  1  0.00511375  0.36842712  0.25377791  1
  O  O204  1  0.00254603  0.36702721  0.75534439  1
  O  O205  1  0.00247126  0.86487556  0.25650792  1
  O  O206  1  0.01052122  0.87241595  0.75599906  1
  O  O207  1  0.49070805  0.35845204  0.25086406  1
  O  O208  1  0.50706835  0.36743693  0.75443122  1
  O  O209  1  0.51212772  0.87019830  0.25182980  1
  O  O210  1  0.51208789  0.87217515  0.75520867  1
  O  O211  1  0.48698843  0.13477028  0.25637517  1
  O  O212  1  0.50659429  0.13266276  0.73841783  1
  O  O213  1  0.48168695  0.62218335  0.25408073  1
  O  O214  1  0.49974701  0.63552625  0.75276407  1
  O  O215  1  0.99148419  0.12639719  0.24849578  1
  O  O216  1  0.99751882  0.13770154  0.74135927  1
  O  O217  1  1.00205046  0.63835009  0.24159577  1
  O  O218  1  0.99855739  0.63359450  0.74459387  1
  O  O219  1  0.36848832  0.25274801  0.00640720  1
  O  O220  1  0.36465492  0.25534746  0.50999556  1
  O  O221  1  0.37330659  0.74426050  0.00472146  1
  O  O222  1  0.37182130  0.75377488  0.50594101  1
  O  O223  1  0.88038857  0.26460025  0.00442639  1
  O  O224  1  0.87686898  0.24936531  0.51537960  1
  O  O225  1  0.85435687  0.75016324  0.00696884  1
  O  O226  1  0.87003070  0.75220700  0.51132157  1
  O  O227  1  0.13655063  0.25443229  0.49429663  1
  O  O228  1  0.13206089  0.24651655  0.99770616  1
  O  O229  1  0.13550581  0.75014226  0.49255296  1
  O  O230  1  0.13176839  0.74687723  0.99317794  1
  O  O231  1  0.62282524  0.24159696  0.50700093  1
  O  O232  1  0.62147171  0.24307856  0.98636930  1
  O  O233  1  0.63132121  0.74191065  0.49303818  1
  O  O234  1  0.64824783  0.74465012  1.01303233  1
  O  O235  1  0.48881112  0.25085352  0.12784158  1
  O  O236  1  0.49001330  0.24455563  0.63647714  1
  O  O237  1  0.49756136  0.75430862  0.12289467  1
  O  O238  1  0.49323424  0.74926355  0.63306278  1
  O  O239  1  1.00223570  0.24033846  0.13364882  1
  O  O240  1  0.99300099  0.24617747  0.63189332  1
  O  O241  1  1.00412419  0.74450994  0.13741874  1
  O  O242  1  0.99532633  0.74710628  0.62796964  1
  O  O243  1  0.00201850  0.25496553  0.37004377  1
  O  O244  1  0.00448111  0.25862756  0.86722420  1
  O  O245  1  0.00460865  0.75429421  0.36388065  1
  O  O246  1  0.00306656  0.75855694  0.87282046  1
  O  O247  1  0.49071594  0.24873045  0.36863476  1
  O  O248  1  0.49981078  0.25024639  0.86449130  1
  O  O249  1  0.51406770  0.74765716  0.37418575  1
  O  O250  1  0.50112217  0.76735776  0.86555379  1
  O  O251  1  0.25459114  0.13311115  0.49100044  1
  O  O252  1  0.24422363  0.13318665  0.99654846  1
  O  O253  1  0.24913550  0.63713017  0.50559414  1
  O  O254  1  0.24235319  0.63141902  0.99349561  1
  O  O255  1  0.74422670  0.12683911  0.48687477  1
  O  O256  1  0.74183794  0.12101309  1.00477462  1
  O  O257  1  0.74332246  0.62367857  0.49182442  1
  O  O258  1  0.75079147  0.63124121  0.98942749  1
  O  O259  1  0.25641220  0.36750783  0.00664223  1
  O  O260  1  0.25380550  0.36688842  0.50854586  1
  O  O261  1  0.25518799  0.86456253  0.00427864  1
  O  O262  1  0.26311578  0.86485648  0.50084729  1
  O  O263  1  0.75876845  0.37488439  0.00505062  1
  O  O264  1  0.75832268  0.41278592  0.51005255  1
  O  O265  1  0.74681648  0.86724457  0.01417457  1
  O  O266  1  0.75053767  0.86517455  0.50906748  1
  O  O267  1  0.12996874  0.49719065  0.24310385  1
  O  O268  1  0.11994222  0.48622926  0.74701869  1
  O  O269  1  0.13429752  0.99665911  0.23985784  1
  O  O270  1  0.12564175  0.99419886  0.74167131  1
  O  O271  1  0.63538982  0.50418741  0.23085831  1
  O  O272  1  0.63491040  0.49013530  0.75979245  1
  O  O273  1  0.62917547  0.99531894  0.24648387  1
  O  O274  1  0.62286143  0.99438033  0.73617351  1
  O  O275  1  0.37254359  0.00578817  0.25375028  1
  O  O276  1  0.37548535  -0.00685566  0.76459507  1
  O  O277  1  0.36509324  0.50851136  0.25446665  1
  O  O278  1  0.37358804  0.49699872  0.76325488  1
  O  O279  1  0.86659033  0.01300143  0.24954449  1
  O  O280  1  0.88210029  0.01627097  0.75535116  1
  O  O281  1  0.87114280  0.49934642  0.25622343  1
  O  O282  1  0.85965381  0.50108509  0.75054847  1
  O  O283  1  0.11474537  0.36729035  0.36819754  1
  O  O284  1  0.11862716  0.37017285  0.86978062  1
  O  O285  1  0.11492617  0.86269009  0.37165254  1
  O  O286  1  0.11699178  0.87265927  0.86899933  1
  O  O287  1  0.60909213  0.41511211  0.35701931  1
  O  O288  1  0.62430383  0.36242725  0.87012003  1
  O  O289  1  0.62634925  0.86416900  0.36759477  1
  O  O290  1  0.61946585  0.88753198  0.86467489  1
  O  O291  1  0.36915975  0.13404860  0.13480893  1
  O  O292  1  0.38343799  0.13457881  0.62054536  1
  O  O293  1  0.37784378  0.62426569  0.12717265  1
  O  O294  1  0.37591229  0.63793880  0.63004026  1
  O  O295  1  0.88001515  0.12551543  0.13411962  1
  O  O296  1  0.88158872  0.13422113  0.63510004  1
  O  O297  1  0.88700226  0.61710682  0.11935194  1
  O  O298  1  0.88864526  0.63545890  0.63012807  1
  O  O299  1  0.25560704  0.25333581  0.11681799  1
  O  O300  1  0.25370693  0.25408623  0.61929923  1
  O  O301  1  0.24441109  0.75597270  0.11225191  1
  O  O302  1  0.25843234  0.75529344  0.61867752  1
  O  O303  1  0.74487112  0.26426319  0.13484867  1
  O  O304  1  0.76296621  0.25066977  0.62776673  1
  O  O305  1  0.75085715  0.76636670  0.13304734  1
  O  O306  1  0.75892914  0.75671735  0.62304826  1
  O  O307  1  0.24588402  0.24100286  0.38224853  1
  O  O308  1  0.24511742  0.25260360  0.88888988  1
  O  O309  1  0.24067754  0.75478743  0.38332509  1
  O  O310  1  0.24783456  0.74482871  0.88544067  1
  O  O311  1  0.74729944  0.24586017  0.37090630  1
  O  O312  1  0.74038291  0.25068121  0.87021399  1
  O  O313  1  0.74220270  0.74244267  0.37866366  1
  O  O314  1  0.74866809  0.75418078  0.88480272  1
  O  O315  1  0.00485986  0.11941840  0.00512644  1
  O  O316  1  -0.00013044  0.12877146  0.51153234  1
  O  O317  1  0.00391722  0.62560413  0.00539119  1
  O  O318  1  0.00256858  0.61997498  0.50696592  1
  O  O319  1  0.51257894  0.11355517  -0.00203448  1
  O  O320  1  0.50737398  0.12582691  0.51229906  1
  O  O321  1  0.49305138  0.63910198  0.00411957  1
  O  O322  1  0.50904812  0.61938171  0.50824095  1
  O  O323  1  0.48964358  0.38446142  0.50691419  1
  O  O324  1  0.48554309  0.36676379  0.99781666  1
  O  O325  1  0.48916268  0.87402272  0.49817508  1
  O  O326  1  0.50593757  0.88510369  0.99130585  1
  O  O327  1  1.00399635  0.38251541  0.48911394  1
  O  O328  1  0.99248893  0.37686272  0.99032197  1
  O  O329  1  0.99917236  0.86930571  0.48293783  1
  O  O330  1  1.00508617  0.88453932  0.99092967  1
  O  O331  1  0.48599060  0.51166501  0.40093338  1
  O  O332  1  0.48371625  0.49999380  0.87531979  1
  O  O333  1  0.49140093  0.99904144  0.37806770  1
  O  O334  1  0.49423371  0.99562993  0.87934568  1
  O  O335  1  0.99722276  0.49332781  0.37548049  1
  O  O336  1  1.00209914  0.48770092  0.87368217  1
  O  O337  1  1.00820734  0.98214598  0.37236997  1
  O  O338  1  0.99610014  0.99508442  0.88146818  1
  O  O339  1  0.00494705  0.00280860  0.11813385  1
  O  O340  1  0.00931315  0.01163808  0.62585684  1
  O  O341  1  0.00956037  0.50693803  0.12664175  1
  O  O342  1  -0.00304903  0.50707790  0.61634984  1
  O  O343  1  0.51101383  -0.00547121  0.11618767  1
  O  O344  1  0.50649699  0.00845744  0.62348048  1
  O  O345  1  0.50939152  0.49469088  0.12701875  1
  O  O346  1  0.48951951  0.50414212  0.61203997  1
  O  O347  1  0.24353220  0.38044812  0.24367036  1
  O  O348  1  0.23894630  0.36656956  0.74059242  1
  O  O349  1  0.25081878  0.87965564  0.24104553  1
  O  O350  1  0.23738842  0.87720826  0.75202416  1
  O  O351  1  0.74888607  0.38755099  0.24139213  1
  O  O352  1  0.74417571  0.38768243  0.74750312  1
  O  O353  1  0.74301312  0.88108569  0.24616004  1
  O  O354  1  0.73961171  0.87097484  0.74133237  1
  O  O355  1  0.26032113  0.11911845  0.25671932  1
  O  O356  1  0.24844447  0.12541672  0.75794149  1
  O  O357  1  0.26130467  0.61571267  0.24121534  1
  O  O358  1  0.24862794  0.63278678  0.76214662  1
  O  O359  1  0.75248023  0.12096420  0.26207366  1
  O  O360  1  0.76378137  0.12537634  0.74689462  1
  O  O361  1  0.74775732  0.61515126  0.25479990  1
  O  O362  1  0.74848900  0.61555095  0.76228571  1
  O  O363  1  0.36424627  0.11848007  0.36993514  1
  O  O364  1  0.37845778  0.10883299  0.88095989  1
  O  O365  1  0.36886443  0.62608879  0.36599089  1
  O  O366  1  0.36516420  0.61240764  0.87030436  1
  O  O367  1  0.85877651  0.12991723  0.36925874  1
  O  O368  1  0.88146991  0.12023402  0.85979816  1
  O  O369  1  0.86322070  0.62095268  0.37551461  1
  O  O370  1  0.85560883  0.63360919  0.87278546  1
  O  O371  1  0.12623413  0.38215122  0.12964042  1
  O  O372  1  0.13198768  0.37530347  0.63253308  1
  O  O373  1  0.13735091  0.88172781  0.12329023  1
  O  O374  1  0.12488616  0.88359787  0.63308807  1
  O  O375  1  0.63050533  0.38408566  0.12680159  1
  O  O376  1  0.62637193  0.36509034  0.64190576  1
  O  O377  1  0.63438785  0.88587746  0.13524939  1
  O  O378  1  0.63284616  0.88307230  0.62879543  1
  O  O379  1  0.12025239  0.25275382  0.25647000  1
  O  O380  1  0.11454228  0.26033081  0.75454886  1
  O  O381  1  0.11977844  0.75133283  0.25656367  1
  O  O382  1  0.11939299  0.75931768  0.75593227  1
  O  O383  1  0.60437784  0.25088703  0.25137163  1
  O  O384  1  0.61879327  0.25370559  0.76225453  1
  O  O385  1  0.62365750  0.75488990  0.25586989  1
  O  O386  1  0.61566481  0.76171056  0.74335804  1
  O  O387  1  0.37971539  0.24294331  0.24389402  1
  O  O388  1  0.38147626  0.25486619  0.74239980  1
  O  O389  1  0.37660282  0.73611556  0.24918581  1
  O  O390  1  0.38601093  0.75343954  0.74423367  1
  O  O391  1  0.88070546  0.23900022  0.24605709  1
  O  O392  1  0.88099095  0.24093300  0.74632866  1
  O  O393  1  0.88822470  0.75027310  0.25087780  1
  O  O394  1  0.88169740  0.75098271  0.73918671  1
  O  O395  1  0.37646436  0.48946637  0.50112122  1
  O  O396  1  0.36824221  0.48995334  0.99020535  1
  O  O397  1  0.37602302  0.99038585  0.49454783  1
  O  O398  1  0.38634036  0.99831217  0.99358213  1
  O  O399  1  0.89203379  0.50752829  0.47994948  1
  O  O400  1  0.87855158  0.47982252  1.00250042  1
  O  O401  1  0.88527992  0.99706353  0.50605127  1
  O  O402  1  0.88791802  1.00740254  0.99197844  1
  O  O403  1  0.11734373  0.00509441  0.00261804  1
  O  O404  1  0.12107484  -0.00749751  0.51091338  1
  O  O405  1  0.12117022  0.50432900  0.00814377  1
  O  O406  1  0.11256730  0.50251099  0.50150334  1
  O  O407  1  0.62255063  0.00769767  0.00795340  1
  O  O408  1  0.62333890  0.00695236  0.51205434  1
  O  O409  1  0.62386752  0.50212488  0.01265065  1
  O  O410  1  0.61033452  0.50613454  0.50269888  1
  O  O411  1  0.36778107  0.36869058  0.11900417  1
  O  O412  1  0.36607349  0.36443102  0.62027052  1
  O  O413  1  0.36333856  0.87811272  0.12130675  1
  O  O414  1  0.37565756  0.86637648  0.61855035  1
  O  O415  1  0.86625911  0.36946874  0.11531424  1
  O  O416  1  0.87406243  0.35880541  0.63123673  1
  O  O417  1  0.86101016  0.88360810  0.12998580  1
  O  O418  1  0.86783303  0.86968285  0.62751616  1
  O  O419  1  0.13774375  0.12830149  0.36945285  1
  O  O420  1  0.12225349  0.13363870  0.88318902  1
  O  O421  1  0.12019540  0.63858967  0.37736973  1
  O  O422  1  0.12953548  0.63035742  0.87974430  1
  O  O423  1  0.63800947  0.12386013  0.38409090  1
  O  O424  1  0.62586208  0.13740412  0.88134456  1
  O  O425  1  0.63551795  0.62651897  0.38144171  1
  O  O426  1  0.64109615  0.62547754  0.88139697  1
