# generated using pymatgen
data_V85Zn86O256
_symmetry_space_group_name_H-M   'P 1'
_cell_length_a   16.92464494
_cell_length_b   16.92938100
_cell_length_c   16.92416011
_cell_angle_alpha   90.04785693
_cell_angle_beta   90.04154264
_cell_angle_gamma   89.97769728
_symmetry_Int_Tables_number   1
_chemical_formula_structural   V85Zn86O256
_chemical_formula_sum   'V85 Zn86 O256'
_cell_volume   4849.17069953
_cell_formula_units_Z   1
loop_
 _symmetry_equiv_pos_site_id
 _symmetry_equiv_pos_as_xyz
  1  'x, y, z'
loop_
 _atom_site_type_symbol
 _atom_site_label
 _atom_site_symmetry_multiplicity
 _atom_site_fract_x
 _atom_site_fract_y
 _atom_site_fract_z
 _atom_site_occupancy
  V  V0  1  0.87509991  0.88147463  0.49933212  1
  V  V1  1  0.11840226  0.49944536  0.62024673  1
  V  V2  1  0.24543909  0.62031504  0.87691084  1
  V  V3  1  0.11482284  0.74483473  0.87171409  1
  V  V4  1  0.87527223  0.12383376  0.25172130  1
  V  V5  1  0.62263467  0.00426226  0.62708138  1
  V  V6  1  0.37457993  0.61667888  0.25608528  1
  V  V7  1  0.75148066  0.49746030  0.25347869  1
  V  V8  1  0.00065234  0.24889532  0.24655240  1
  V  V9  1  0.11938804  -0.00331087  0.62206967  1
  V  V10  1  0.87454245  0.63615514  0.25087903  1
  V  V11  1  0.62335784  0.12965128  0.51260213  1
  V  V12  1  0.62619462  0.25195638  0.37752726  1
  V  V13  1  0.12871726  0.86279857  0.25095991  1
  V  V14  1  0.49086309  0.50416620  0.49753864  1
  V  V15  1  0.62598071  0.12823395  0.00158808  1
  V  V16  1  0.76075564  0.87447758  0.12626234  1
  V  V17  1  0.74915408  -0.00081338  0.25028169  1
  V  V18  1  0.49416481  0.37851240  0.37494059  1
  V  V19  1  -0.01788956  0.37941576  0.87628833  1
  V  V20  1  0.75090097  0.12483677  0.37866528  1
  V  V21  1  -0.00376372  -0.00823055  0.00929585  1
  V  V22  1  0.12044719  0.11868641  0.49680090  1
  V  V23  1  0.12946547  0.62600936  0.48730389  1
  V  V24  1  0.25138508  0.37634134  0.12138190  1
  V  V25  1  0.50015641  0.63637265  0.62766017  1
  V  V26  1  0.00209901  0.12738520  0.62464429  1
  V  V27  1  0.24442663  0.00009997  0.24642878  1
  V  V28  1  -0.00128221  0.63373298  0.12425343  1
  V  V29  1  0.80703002  0.42116429  0.06875929  1
  V  V30  1  0.49669052  0.25854133  0.75918645  1
  V  V31  1  0.61937243  0.75417922  0.87706412  1
  V  V32  1  0.12510990  0.24847008  0.37283919  1
  V  V33  1  0.24933963  0.37391466  0.62409090  1
  V  V34  1  0.25292786  0.12383853  0.37293075  1
  V  V35  1  0.88084006  0.25213830  0.63262548  1
  V  V36  1  0.75276081  -0.00098091  0.75266970  1
  V  V37  1  0.74758112  0.86852270  0.61840162  1
  V  V38  1  0.11682221  0.25066288  0.86919072  1
  V  V39  1  0.38075013  0.24649322  0.62107417  1
  V  V40  1  0.61271090  0.75494714  0.37734285  1
  V  V41  1  0.61092418  0.00149644  0.12653317  1
  V  V42  1  0.38341451  0.24395275  0.12514784  1
  V  V43  1  0.88251403  0.62978655  0.75164581  1
  V  V44  1  0.00069100  0.37730181  0.37891178  1
  V  V45  1  0.39055842  0.37688515  -0.00439077  1
  V  V46  1  0.12509708  0.11750949  0.00583718  1
  V  V47  1  0.75123242  0.25087355  0.50571235  1
  V  V48  1  0.87864498  0.50360657  0.38191854  1
  V  V49  1  0.62461492  0.63206765  0.50057443  1
  V  V50  1  0.86408819  0.24560967  0.11468349  1
  V  V51  1  0.25080146  0.24904764  0.49872653  1
  V  V52  1  0.38968443  0.49518604  0.87609247  1
  V  V53  1  0.62784654  0.37468445  0.24772017  1
  V  V54  1  0.62180564  0.49756011  0.11771801  1
  V  V55  1  0.61694874  0.87528744  0.25209054  1
  V  V56  1  0.88282576  0.12208798  0.75280809  1
  V  V57  1  0.25052893  0.24878458  -0.00149274  1
  V  V58  1  0.37848056  0.87434552  0.50233401  1
  V  V59  1  0.87841424  0.75140656  0.62237838  1
  V  V60  1  0.12350631  0.49956336  0.12082960  1
  V  V61  1  0.61973141  0.87277254  0.75296668  1
  V  V62  1  0.38113598  0.12036537  0.74775059  1
  V  V63  1  0.49951207  0.62065956  0.11760386  1
  V  V64  1  0.24822676  0.49713962  0.75055698  1
  V  V65  1  0.74846947  0.63392590  0.37944921  1
  V  V66  1  0.24775069  0.87741218  0.12027423  1
  V  V67  1  0.37863206  0.63073553  0.75192327  1
  V  V68  1  0.37402557  0.74834358  0.12111126  1
  V  V69  1  0.75517431  0.50173406  0.75354974  1
  V  V70  1  -0.00943906  0.87335341  0.87526813  1
  V  V71  1  0.75343570  0.62645823  0.87484421  1
  V  V72  1  0.01039292  0.87433982  0.38387803  1
  V  V73  1  0.49532476  -0.00373277  -0.01932292  1
  V  V74  1  0.11642170  0.86806619  0.74783700  1
  V  V75  1  0.75904477  0.75968365  0.00263795  1
  V  V76  1  0.87784444  0.37754427  0.50195254  1
  V  V77  1  0.25242187  0.49992899  0.25939935  1
  V  V78  1  0.75052884  0.37726132  0.62715306  1
  V  V79  1  0.25420469  0.12259976  0.87411482  1
  V  V80  1  0.62410806  0.50117477  0.62433956  1
  V  V81  1  -0.00006829  0.62444543  0.61733444  1
  V  V82  1  0.38062659  -0.00389254  0.37304375  1
  V  V83  1  0.24924664  -0.00208734  0.75208246  1
  V  V84  1  0.50209984  0.00356783  0.49826333  1
  Zn  Zn85  1  0.75338518  0.12954260  0.88353177  1
  Zn  Zn86  1  0.24764712  0.87094768  0.62190752  1
  Zn  Zn87  1  0.37397345  0.75678440  0.63217697  1
  Zn  Zn88  1  0.62327817  0.62654625  -0.00089099  1
  Zn  Zn89  1  0.38472332  0.11839066  0.24337793  1
  Zn  Zn90  1  0.11804955  0.36916485  0.74807332  1
  Zn  Zn91  1  0.37546308  0.87744106  -0.01452366  1
  Zn  Zn92  1  0.49830207  0.75005240  0.24717239  1
  Zn  Zn93  1  0.11875009  0.62263454  -0.00192310  1
  Zn  Zn94  1  0.61515025  0.38103622  0.75511929  1
  Zn  Zn95  1  0.88087055  0.00212137  0.38196180  1
  Zn  Zn96  1  0.45542964  0.82063993  0.81915393  1
  Zn  Zn97  1  0.37067628  0.37955682  0.49440376  1
  Zn  Zn98  1  0.12619901  0.37436230  0.24830929  1
  Zn  Zn99  1  0.50484274  0.24558879  0.24781591  1
  Zn  Zn100  1  0.24700784  0.75110324  -0.00228170  1
  Zn  Zn101  1  0.87263699  -0.00246269  0.88204266  1
  Zn  Zn102  1  0.62759705  0.25920424  0.88506350  1
  Zn  Zn103  1  0.00514574  0.12061197  0.12697121  1
  Zn  Zn104  1  -0.01335325  0.49467602  0.00145960  1
  Zn  Zn105  1  0.24195355  0.75104419  0.49308183  1
  Zn  Zn106  1  0.00220508  0.75011677  0.25357979  1
  Zn  Zn107  1  0.19225848  0.18773021  0.18600414  1
  Zn  Zn108  1  0.18991495  0.18582041  0.68739840  1
  Zn  Zn109  1  0.19155438  0.68445168  0.18687897  1
  Zn  Zn110  1  0.18943753  0.68842520  0.68248297  1
  Zn  Zn111  1  0.68573550  0.18468202  0.18541776  1
  Zn  Zn112  1  0.69797009  0.19760676  0.71316261  1
  Zn  Zn113  1  0.68646520  0.68898101  0.18765227  1
  Zn  Zn114  1  0.68857196  0.69054297  0.68943939  1
  Zn  Zn115  1  0.31299306  0.31368364  0.30868160  1
  Zn  Zn116  1  0.31210472  0.31157726  0.81302164  1
  Zn  Zn117  1  0.31171238  0.81115142  0.31215314  1
  Zn  Zn118  1  0.29404601  0.81051164  0.81261272  1
  Zn  Zn119  1  0.81370736  0.31169789  0.31216704  1
  Zn  Zn120  1  0.80635859  0.30968655  0.81338997  1
  Zn  Zn121  1  0.80822952  0.81611137  0.31824698  1
  Zn  Zn122  1  0.80835239  0.81017446  0.80899295  1
  Zn  Zn123  1  0.18303338  0.43876831  0.43993392  1
  Zn  Zn124  1  0.18708411  0.43444200  0.93880168  1
  Zn  Zn125  1  0.19167784  0.93717488  0.43657616  1
  Zn  Zn126  1  0.18342756  0.93564267  0.93545601  1
  Zn  Zn127  1  0.68603223  0.44062417  0.43788004  1
  Zn  Zn128  1  0.68202091  0.43918775  0.92972764  1
  Zn  Zn129  1  0.68867604  0.93802016  0.43742119  1
  Zn  Zn130  1  0.68480260  0.93919550  0.93852483  1
  Zn  Zn131  1  0.31486956  0.05920241  0.06004014  1
  Zn  Zn132  1  0.30920578  0.06079160  0.56412807  1
  Zn  Zn133  1  0.31379355  0.55877838  0.06026793  1
  Zn  Zn134  1  0.31030624  0.56649874  0.56513707  1
  Zn  Zn135  1  0.81080169  0.06023475  0.06535196  1
  Zn  Zn136  1  0.81102181  0.06089781  0.56699456  1
  Zn  Zn137  1  0.81126474  0.58549087  0.06468198  1
  Zn  Zn138  1  0.81070527  0.56545596  0.56188096  1
  Zn  Zn139  1  0.44015405  0.43408088  0.18472641  1
  Zn  Zn140  1  0.43291601  0.44020510  0.68328985  1
  Zn  Zn141  1  0.43334726  0.93371456  0.18668414  1
  Zn  Zn142  1  0.43844390  0.94626507  0.68216629  1
  Zn  Zn143  1  0.94217250  0.44140446  0.19475193  1
  Zn  Zn144  1  0.93960597  0.43875041  0.69519423  1
  Zn  Zn145  1  0.94194831  0.93652573  0.19264477  1
  Zn  Zn146  1  0.93931307  0.93844574  0.68599990  1
  Zn  Zn147  1  0.06297521  0.05523972  0.31186283  1
  Zn  Zn148  1  0.06278251  0.05840775  0.81653893  1
  Zn  Zn149  1  0.06169680  0.55896205  0.30692455  1
  Zn  Zn150  1  0.05807751  0.55372977  0.81082484  1
  Zn  Zn151  1  0.56336150  0.06651759  0.31477388  1
  Zn  Zn152  1  0.56349442  0.06743864  0.81335337  1
  Zn  Zn153  1  0.55938495  0.56398388  0.31013685  1
  Zn  Zn154  1  0.56648872  0.56750285  0.81131457  1
  Zn  Zn155  1  0.44059709  0.18576740  0.43399786  1
  Zn  Zn156  1  0.43962780  0.18101363  0.94034396  1
  Zn  Zn157  1  0.40707170  0.70586840  0.41813427  1
  Zn  Zn158  1  0.43474587  0.68232076  0.94103046  1
  Zn  Zn159  1  0.93846130  0.18909034  0.43946629  1
  Zn  Zn160  1  0.94137990  0.18347082  0.93814175  1
  Zn  Zn161  1  0.94039673  0.69406313  0.44089417  1
  Zn  Zn162  1  0.93655349  0.68667548  0.93995567  1
  Zn  Zn163  1  0.06061059  0.31128480  0.05786904  1
  Zn  Zn164  1  0.06374456  0.31005155  0.56118864  1
  Zn  Zn165  1  0.06684865  0.81160102  0.06141739  1
  Zn  Zn166  1  0.06040916  0.80558896  0.56116467  1
  Zn  Zn167  1  0.56685273  0.31429947  0.06334258  1
  Zn  Zn168  1  0.55992478  0.31661502  0.56574471  1
  Zn  Zn169  1  0.56333146  0.81546726  0.06190793  1
  Zn  Zn170  1  0.55963376  0.81551438  0.56100259  1
  O  O171  1  0.12595507  0.13084526  0.11006863  1
  O  O172  1  0.11957902  0.12044134  0.61840243  1
  O  O173  1  0.11784166  0.61678769  0.12465464  1
  O  O174  1  0.11603155  0.61741316  0.62192207  1
  O  O175  1  0.62808459  0.11404829  0.11523574  1
  O  O176  1  0.63791056  0.12048425  0.61640689  1
  O  O177  1  0.61855425  0.61609459  0.12669264  1
  O  O178  1  0.62135089  0.62184323  0.62018840  1
  O  O179  1  0.38959312  0.37087616  0.37448777  1
  O  O180  1  0.36950413  0.38284995  0.88315465  1
  O  O181  1  0.37567451  0.89055023  0.38311189  1
  O  O182  1  0.37007810  0.86646632  0.87206162  1
  O  O183  1  0.88045345  0.38236119  0.38044193  1
  O  O184  1  0.88318398  0.36585720  0.87478444  1
  O  O185  1  0.88046566  0.87763360  0.38443922  1
  O  O186  1  0.88749613  0.87198539  0.86765993  1
  O  O187  1  0.25803867  0.00561490  0.36770967  1
  O  O188  1  0.23942344  0.00799092  0.86071915  1
  O  O189  1  0.24692598  0.48795664  0.35854488  1
  O  O190  1  0.25001644  0.50327501  0.86494387  1
  O  O191  1  0.75383078  0.00760081  0.36869231  1
  O  O192  1  0.75317708  0.00120909  0.86566680  1
  O  O193  1  0.75415951  0.51110875  0.36965704  1
  O  O194  1  0.74685131  0.51348916  0.86540148  1
  O  O195  1  0.24373074  0.49213053  0.12831417  1
  O  O196  1  0.24427714  0.49401793  0.63262455  1
  O  O197  1  0.25771014  0.99055836  0.13399118  1
  O  O198  1  0.23535073  1.00065972  0.63494858  1
  O  O199  1  0.75142299  0.49304591  0.13045592  1
  O  O200  1  0.74248637  0.49738572  0.62898004  1
  O  O201  1  0.74193803  0.99250338  0.13251917  1
  O  O202  1  0.74094660  0.98926737  0.62931760  1
  O  O203  1  0.00049831  0.36579110  0.26063135  1
  O  O204  1  0.00252334  0.37630198  0.76807654  1
  O  O205  1  0.01234580  0.87161786  0.25633989  1
  O  O206  1  0.00985431  0.88073736  0.75782722  1
  O  O207  1  0.50978627  0.37279244  0.25809189  1
  O  O208  1  0.49173535  0.36237957  0.74621317  1
  O  O209  1  0.51270877  0.87281553  0.24735484  1
  O  O210  1  0.51444534  0.88003027  0.74136544  1
  O  O211  1  0.49644290  0.13331869  0.25744852  1
  O  O212  1  0.48550736  0.13139430  0.75267727  1
  O  O213  1  0.49104967  0.62353393  0.23641314  1
  O  O214  1  0.48921757  0.61765781  0.74068250  1
  O  O215  1  0.99438353  0.12965147  0.24910734  1
  O  O216  1  0.99058655  0.11822071  0.74293033  1
  O  O217  1  0.99180114  0.62811635  0.24568633  1
  O  O218  1  0.98615584  0.61818137  0.74276543  1
  O  O219  1  0.37122667  0.25426125  0.00659961  1
  O  O220  1  0.36805411  0.24844100  0.50501461  1
  O  O221  1  0.37097426  0.74982008  0.01019577  1
  O  O222  1  0.40351672  0.77308074  0.51133212  1
  O  O223  1  0.87783898  0.24177283  0.01575685  1
  O  O224  1  0.87085871  0.25454376  0.51217718  1
  O  O225  1  0.85815486  0.74997380  -0.00155029  1
  O  O226  1  0.87656858  0.76154029  0.51328756  1
  O  O227  1  0.13083312  0.24099065  0.49210400  1
  O  O228  1  0.13103390  0.24119515  0.99017236  1
  O  O229  1  0.12422844  0.73218868  0.49900219  1
  O  O230  1  0.12615789  0.74318518  0.98830276  1
  O  O231  1  0.63024948  0.24618320  0.50117587  1
  O  O232  1  0.61963236  0.23366784  1.00296481  1
  O  O233  1  0.61945759  0.74267908  0.49291923  1
  O  O234  1  0.63240871  0.75084964  0.99192146  1
  O  O235  1  0.48604690  0.25514338  0.12508441  1
  O  O236  1  0.48335324  0.25312564  0.62627938  1
  O  O237  1  0.49314075  0.74264535  0.12539318  1
  O  O238  1  0.50456578  0.73843312  0.62971256  1
  O  O239  1  0.99323638  0.25030969  0.13642903  1
  O  O240  1  0.99622911  0.23746813  0.62299998  1
  O  O241  1  1.00618236  0.73748102  0.12866880  1
  O  O242  1  0.99097399  0.73910604  0.62687237  1
  O  O243  1  0.00310803  0.25445390  0.36450944  1
  O  O244  1  0.01215712  0.25613817  0.87935493  1
  O  O245  1  -0.00505795  0.76825658  0.37139552  1
  O  O246  1  0.00736422  0.75486934  0.87856092  1
  O  O247  1  0.51085381  0.26110522  0.37840116  1
  O  O248  1  0.49992196  0.24543687  0.86133061  1
  O  O249  1  0.50976890  0.74401847  0.36926089  1
  O  O250  1  0.51356265  0.74011740  0.87702519  1
  O  O251  1  0.23991686  0.12886487  0.49403102  1
  O  O252  1  0.24459442  0.12468728  0.99111199  1
  O  O253  1  0.23275794  0.62025521  0.50150845  1
  O  O254  1  0.24758955  0.62126811  0.98481777  1
  O  O255  1  0.74608186  0.13168451  0.49857398  1
  O  O256  1  0.73327488  0.11540877  0.99927630  1
  O  O257  1  0.73579900  0.62115412  0.49252651  1
  O  O258  1  0.74563130  0.63912393  0.99187642  1
  O  O259  1  0.25566696  0.36923684  0.00906555  1
  O  O260  1  0.25011734  0.36813571  0.50486769  1
  O  O261  1  0.25129802  0.87573517  0.00693116  1
  O  O262  1  0.26302300  0.87554554  0.50189033  1
  O  O263  1  0.74976757  0.37236294  0.00466036  1
  O  O264  1  0.75616517  0.37131074  0.50673419  1
  O  O265  1  0.74696153  0.86761018  0.00841876  1
  O  O266  1  0.75834269  0.87807175  0.50831259  1
  O  O267  1  0.13361356  0.49739517  0.23783007  1
  O  O268  1  0.13393051  0.49761954  0.73986207  1
  O  O269  1  0.13945757  0.98854503  0.25412013  1
  O  O270  1  0.12865845  0.99387968  0.74261946  1
  O  O271  1  0.63469548  0.49613516  0.24264119  1
  O  O272  1  0.63459946  0.50511407  0.73817300  1
  O  O273  1  0.62969174  0.99473798  0.24669590  1
  O  O274  1  0.63258775  0.99868867  0.74405668  1
  O  O275  1  0.36705575  -0.00132967  0.25754025  1
  O  O276  1  0.36316107  0.00943942  0.74284055  1
  O  O277  1  0.36715706  0.50866629  0.23796389  1
  O  O278  1  0.36499303  0.50665177  0.75459969  1
  O  O279  1  0.87154419  0.01285974  0.25017319  1
  O  O280  1  0.86966699  0.00392898  0.75183959  1
  O  O281  1  0.86826907  0.50682478  0.26248332  1
  O  O282  1  0.86139049  0.51236021  0.74143131  1
  O  O283  1  0.11633278  0.36815342  0.37315481  1
  O  O284  1  0.12690352  0.35897656  0.87366116  1
  O  O285  1  0.11737633  0.87594238  0.37112646  1
  O  O286  1  0.11635075  0.86436063  0.86679324  1
  O  O287  1  0.62107242  0.37194978  0.36684505  1
  O  O288  1  0.62396359  0.37093555  0.86689981  1
  O  O289  1  0.63152335  0.86523902  0.36777602  1
  O  O290  1  0.62814491  0.86787551  0.86564153  1
  O  O291  1  0.36839575  0.14103188  0.12311076  1
  O  O292  1  0.36482896  0.13461066  0.63505067  1
  O  O293  1  0.38124560  0.62812596  0.12645085  1
  O  O294  1  0.38305796  0.62759478  0.63408158  1
  O  O295  1  0.87784311  0.13273350  0.13357355  1
  O  O296  1  0.88517646  0.13015496  0.62752666  1
  O  O297  1  0.88505880  0.62180871  0.13956739  1
  O  O298  1  0.88035559  0.63224034  0.62643763  1
  O  O299  1  0.25765518  0.25820270  0.11824057  1
  O  O300  1  0.25486620  0.25563421  0.61978110  1
  O  O301  1  0.25697522  0.75481178  0.12074486  1
  O  O302  1  0.25598772  0.75175346  0.61487449  1
  O  O303  1  0.76537601  0.24917347  0.13039560  1
  O  O304  1  0.75900282  0.25819888  0.62578378  1
  O  O305  1  0.74338488  0.75743766  0.11152618  1
  O  O306  1  0.75429836  0.76294311  0.62652342  1
  O  O307  1  0.24542304  0.24432091  0.37654587  1
  O  O308  1  0.24239902  0.24146412  0.87976354  1
  O  O309  1  0.29753234  0.74019178  0.39499269  1
  O  O310  1  0.23372440  0.73621527  0.87522896  1
  O  O311  1  0.74655941  0.24657459  0.38472307  1
  O  O312  1  0.72924272  0.23106443  0.83088617  1
  O  O313  1  0.73948579  0.73749965  0.37198962  1
  O  O314  1  0.74252937  0.74902101  0.88467392  1
  O  O315  1  0.00868423  0.11284470  0.00202584  1
  O  O316  1  0.01260690  0.12803288  0.50592972  1
  O  O317  1  -0.00443895  0.61607651  0.00939777  1
  O  O318  1  0.00651032  0.62554376  0.51076322  1
  O  O319  1  0.51073485  0.10939025  -0.00239412  1
  O  O320  1  0.51194550  0.11842460  0.49914226  1
  O  O321  1  0.50345224  0.62344306  0.01223900  1
  O  O322  1  0.51070503  0.61849811  0.50831560  1
  O  O323  1  0.49927115  0.38581040  0.49317822  1
  O  O324  1  0.48997090  0.37383142  1.00193010  1
  O  O325  1  0.49819083  0.89646379  0.50707808  1
  O  O326  1  0.49847858  0.89147449  1.00380694  1
  O  O327  1  0.99419575  0.36735393  0.48710496  1
  O  O328  1  1.00255685  0.37641173  0.98368363  1
  O  O329  1  0.99556248  0.87280166  0.49043371  1
  O  O330  1  1.00621886  0.88515713  0.99364393  1
  O  O331  1  0.51196713  0.49100125  0.38626388  1
  O  O332  1  0.48852913  0.50553270  0.86941880  1
  O  O333  1  0.49286656  1.00539731  0.38539645  1
  O  O334  1  0.50232155  0.99652754  0.88137799  1
  O  O335  1  0.99047511  0.48943304  0.36867032  1
  O  O336  1  0.99612406  0.48550586  0.88011791  1
  O  O337  1  0.99675174  0.98113587  0.36969489  1
  O  O338  1  0.99733746  0.98974769  0.88481657  1
  O  O339  1  0.00134675  -0.00153776  0.11343156  1
  O  O340  1  0.01133109  0.01113021  0.62646475  1
  O  O341  1  0.00776918  0.50605638  0.12559186  1
  O  O342  1  0.00822286  0.50735354  0.63010742  1
  O  O343  1  0.50954970  -0.00189682  0.12800361  1
  O  O344  1  0.51692474  0.00687827  0.62048863  1
  O  O345  1  0.51153091  0.50555802  0.12882065  1
  O  O346  1  0.50739043  0.50719117  0.61892114  1
  O  O347  1  0.25044384  0.38029246  0.23629473  1
  O  O348  1  0.24770577  0.38184976  0.74292197  1
  O  O349  1  0.24637794  0.87922533  0.24592326  1
  O  O350  1  0.23425832  0.88294798  0.74490336  1
  O  O351  1  0.74468163  0.38895111  0.25920228  1
  O  O352  1  0.75135240  0.38728578  0.74255170  1
  O  O353  1  0.74103949  0.88005112  0.24595933  1
  O  O354  1  0.74288010  0.88450621  0.74192947  1
  O  O355  1  0.25320441  0.11631207  0.25467339  1
  O  O356  1  0.25528450  0.11816587  0.75639345  1
  O  O357  1  0.26456730  0.61493756  0.24541036  1
  O  O358  1  0.25631870  0.61708558  0.75685707  1
  O  O359  1  0.75718229  0.12100358  0.25674390  1
  O  O360  1  0.76650897  0.10720249  0.73723942  1
  O  O361  1  0.75518642  0.61634529  0.25567958  1
  O  O362  1  0.75769491  0.62200375  0.75553938  1
  O  O363  1  0.36698621  0.11501018  0.37664404  1
  O  O364  1  0.36067262  0.13017731  0.86691486  1
  O  O365  1  0.39187705  0.61103481  0.35373590  1
  O  O366  1  0.36620050  0.61702550  0.86938555  1
  O  O367  1  0.87094168  0.12455484  0.36998929  1
  O  O368  1  0.87340093  0.12392775  0.86598986  1
  O  O369  1  0.86888039  0.62118367  0.37525706  1
  O  O370  1  0.86369386  0.63425212  0.86561684  1
  O  O371  1  0.13251037  0.37910945  0.12470998  1
  O  O372  1  0.12942358  0.38039611  0.62602249  1
  O  O373  1  0.13933635  0.86959088  0.13382299  1
  O  O374  1  0.12017140  0.88088471  0.62921627  1
  O  O375  1  0.62304157  0.38119400  0.13874815  1
  O  O376  1  0.62905077  0.38629121  0.62967458  1
  O  O377  1  0.63196264  0.88255057  0.13445632  1
  O  O378  1  0.63181467  0.88218372  0.62895886  1
  O  O379  1  0.11759612  0.24952434  0.25438547  1
  O  O380  1  0.12867027  0.24683588  0.76521131  1
  O  O381  1  0.13088714  0.75912747  0.25315727  1
  O  O382  1  0.12734015  0.75773245  0.75551410  1
  O  O383  1  0.62914460  0.25946362  0.25568728  1
  O  O384  1  0.59744734  0.25046782  0.73293494  1
  O  O385  1  0.62410158  0.75775897  0.25775666  1
  O  O386  1  0.63255911  0.76186281  0.76059246  1
  O  O387  1  0.37445398  0.25117167  0.23305442  1
  O  O388  1  0.38122090  0.24409672  0.74329701  1
  O  O389  1  0.37572956  0.73549513  0.23752609  1
  O  O390  1  0.37456617  0.73966275  0.75349793  1
  O  O391  1  0.88139085  0.24031909  0.24652014  1
  O  O392  1  0.87493257  0.24006358  0.73747654  1
  O  O393  1  0.87137887  0.73824743  0.25704679  1
  O  O394  1  0.86700413  0.74158525  0.73560744  1
  O  O395  1  0.38739745  0.50172780  0.50521828  1
  O  O396  1  0.37059029  0.48913489  0.98808271  1
  O  O397  1  0.38308544  0.99773125  0.49684302  1
  O  O398  1  0.39145395  1.00014272  1.00017538  1
  O  O399  1  0.87017790  0.49616746  0.48879712  1
  O  O400  1  0.86277136  0.48932310  1.01606309  1
  O  O401  1  0.87455686  0.98713991  0.50418302  1
  O  O402  1  0.89127832  1.00460709  1.00029213  1
  O  O403  1  0.11281636  0.00772906  -0.00657596  1
  O  O404  1  0.13102772  0.00814286  0.50798604  1
  O  O405  1  0.12522893  0.50086032  0.01177000  1
  O  O406  1  0.12514120  0.50708681  0.51304117  1
  O  O407  1  0.61438741  0.00342029  0.00801559  1
  O  O408  1  0.62190937  0.00894014  0.50592131  1
  O  O409  1  0.63551626  0.50343482  0.01492748  1
  O  O410  1  0.62012449  0.50720848  0.51081079  1
  O  O411  1  0.36923323  0.36773252  0.11647935  1
  O  O412  1  0.36449732  0.36782254  0.62001437  1
  O  O413  1  0.36401893  0.86419466  0.12513252  1
  O  O414  1  0.37154044  0.87931261  0.61858341  1
  O  O415  1  0.87399820  0.36599905  0.12842154  1
  O  O416  1  0.87564730  0.36871588  0.62203846  1
  O  O417  1  0.86031536  0.87793770  0.13596838  1
  O  O418  1  0.87011094  0.87005039  0.62120814  1
  O  O419  1  0.12964518  0.12636336  0.38040019  1
  O  O420  1  0.13084633  0.13354491  0.88085187  1
  O  O421  1  0.11800026  0.61456304  0.38929190  1
  O  O422  1  0.12716465  0.62686807  0.87161482  1
  O  O423  1  0.63371962  0.13267819  0.38820198  1
  O  O424  1  0.62663180  0.12448774  0.89047993  1
  O  O425  1  0.62925285  0.63077695  0.38164678  1
  O  O426  1  0.63725815  0.63442530  0.87396939  1
