# generated using pymatgen
data_V85Zn86O256
_symmetry_space_group_name_H-M   'P 1'
_cell_length_a   16.94253883
_cell_length_b   16.94117263
_cell_length_c   16.93144721
_cell_angle_alpha   90.06025647
_cell_angle_beta   90.01876994
_cell_angle_gamma   89.99458613
_symmetry_Int_Tables_number   1
_chemical_formula_structural   V85Zn86O256
_chemical_formula_sum   'V85 Zn86 O256'
_cell_volume   4859.77064252
_cell_formula_units_Z   1
loop_
 _symmetry_equiv_pos_site_id
 _symmetry_equiv_pos_as_xyz
  1  'x, y, z'
loop_
 _atom_site_type_symbol
 _atom_site_label
 _atom_site_symmetry_multiplicity
 _atom_site_fract_x
 _atom_site_fract_y
 _atom_site_fract_z
 _atom_site_occupancy
  V  V0  1  0.62605179  0.75180853  0.37409789  1
  V  V1  1  0.24825176  0.89185930  0.12374103  1
  V  V2  1  0.37320557  0.62182390  0.24720691  1
  V  V3  1  0.75371752  0.24924291  0.50454328  1
  V  V4  1  0.49305511  0.37014058  0.37609278  1
  V  V5  1  0.38361467  0.11758010  0.24608150  1
  V  V6  1  0.75384473  0.37716112  0.62491773  1
  V  V7  1  0.75017131  0.50086715  0.25142388  1
  V  V8  1  0.48949301  0.25138209  0.74907096  1
  V  V9  1  0.11014015  0.51183602  0.10909667  1
  V  V10  1  0.87892843  0.75478773  0.63267940  1
  V  V11  1  0.75043900  0.37169306  0.12403788  1
  V  V12  1  0.25450938  0.11480274  0.36137370  1
  V  V13  1  0.11973965  0.74997069  0.87463453  1
  V  V14  1  0.12930771  0.88534503  0.25008162  1
  V  V15  1  -0.00293711  0.75716631  0.25597450  1
  V  V16  1  0.00039206  0.24431869  0.24693795  1
  V  V17  1  0.74764765  0.00716050  0.76125757  1
  V  V18  1  0.24925175  0.62658268  0.87576721  1
  V  V19  1  0.86727012  0.13514140  0.75136173  1
  V  V20  1  0.62616415  0.37579355  0.74978749  1
  V  V21  1  0.13190144  0.24734660  0.37161956  1
  V  V22  1  0.62151203  0.24953851  0.37393076  1
  V  V23  1  -0.00298505  0.11131016  0.11889886  1
  V  V24  1  0.62003471  0.37222750  0.25121381  1
  V  V25  1  0.00128226  0.37989698  0.87813912  1
  V  V26  1  0.12384309  0.25279526  0.88332411  1
  V  V27  1  0.49861705  0.49618027  0.00291429  1
  V  V28  1  0.87653761  0.49905232  0.37594913  1
  V  V29  1  0.88018298  0.62873360  0.25411486  1
  V  V30  1  0.50023851  0.00088339  0.00471178  1
  V  V31  1  0.62380122  0.62356373  0.00191937  1
  V  V32  1  0.37680925  0.49460370  0.37486911  1
  V  V33  1  0.87952509  -0.00118527  0.37652546  1
  V  V34  1  -0.00024881  0.10190138  0.62463445  1
  V  V35  1  0.87644814  0.37110784  0.50283857  1
  V  V36  1  0.63333846  0.24672698  0.87628742  1
  V  V37  1  0.12043574  0.75371350  0.37689869  1
  V  V38  1  0.36581058  0.37262436  0.51428805  1
  V  V39  1  0.24520826  0.00117131  0.74665436  1
  V  V40  1  0.49525204  0.37209643  0.87979629  1
  V  V41  1  0.62505138  0.12898677  0.49861446  1
  V  V42  1  0.24987801  0.74615642  0.00505553  1
  V  V43  1  0.60876959  0.62215862  0.50432094  1
  V  V44  1  0.25278959  0.74851316  0.50103232  1
  V  V45  1  0.75092189  0.87993628  0.62579087  1
  V  V46  1  0.37101267  0.49591706  0.88284763  1
  V  V47  1  0.63317861  0.12419595  -0.00007896  1
  V  V48  1  0.87779697  0.24710890  0.12735657  1
  V  V49  1  0.88286807  0.87963938  0.50186054  1
  V  V50  1  0.75285537  0.00284149  0.24925818  1
  V  V51  1  0.62430564  0.00453948  0.62444216  1
  V  V52  1  0.87279090  0.62267376  0.74705414  1
  V  V53  1  0.87706227  0.50275993  0.88397009  1
  V  V54  1  0.12296949  0.10674739  0.00251891  1
  V  V55  1  0.62285286  0.87767101  0.74918034  1
  V  V56  1  0.00219884  0.37099234  0.37404979  1
  V  V57  1  0.00249117  0.62670651  0.63048696  1
  V  V58  1  0.49842524  0.00252059  0.49751521  1
  V  V59  1  0.25062757  0.48870487  0.74803731  1
  V  V60  1  0.74727830  0.75191181  0.00539241  1
  V  V61  1  0.49888234  0.74909259  0.24704350  1
  V  V62  1  0.50112883  0.74435800  0.74408630  1
  V  V63  1  0.25000020  0.13220496  0.87876246  1
  V  V64  1  0.25124503  0.24385357  0.50994371  1
  V  V65  1  0.93156881  0.69616771  0.07742081  1
  V  V66  1  -0.00057219  0.25324500  0.73897650  1
  V  V67  1  0.24947364  0.62273626  0.37451974  1
  V  V68  1  0.13026078  0.48992442  0.62437201  1
  V  V69  1  0.12556423  0.62441037  0.50075367  1
  V  V70  1  0.12184771  0.86663475  0.74916077  1
  V  V71  1  0.49416878  0.13593361  0.62068378  1
  V  V72  1  0.37116217  0.00111334  0.87542267  1
  V  V73  1  0.49762135  0.87586848  0.87449068  1
  V  V74  1  0.75882045  0.87485849  0.12570733  1
  V  V75  1  0.37354635  0.12816996  0.74634560  1
  V  V76  1  0.75848969  0.12730119  0.37163543  1
  V  V77  1  0.25359080  0.87782565  0.62558620  1
  V  V78  1  0.62412625  0.75025795  0.87521788  1
  V  V79  1  0.37818133  0.87795570  0.49714815  1
  V  V80  1  0.37908262  0.62140832  0.74286546  1
  V  V81  1  0.00097255  0.49879198  0.50040183  1
  V  V82  1  0.49602192  0.88150753  0.37128929  1
  V  V83  1  0.37281205  0.26020657  0.12303077  1
  V  V84  1  0.75138750  0.74814987  0.50225983  1
  Zn  Zn85  1  0.37323324  0.87371952  0.00216240  1
  Zn  Zn86  1  0.62593270  0.00085709  0.12658714  1
  Zn  Zn87  1  0.49788177  0.62380645  0.12483104  1
  Zn  Zn88  1  0.88005283  0.37801148  0.00373165  1
  Zn  Zn89  1  0.61464792  0.50818362  0.62645105  1
  Zn  Zn90  1  0.24326361  0.49466472  0.24374808  1
  Zn  Zn91  1  0.38189915  0.74281192  0.62080492  1
  Zn  Zn92  1  0.24410493  0.37693636  0.11313758  1
  Zn  Zn93  1  0.12156895  0.10829448  0.50327434  1
  Zn  Zn94  1  0.74901115  0.62419326  0.87345567  1
  Zn  Zn95  1  0.74776773  0.50111371  0.74993650  1
  Zn  Zn96  1  0.62201273  0.49879486  0.12769933  1
  Zn  Zn97  1  0.75575067  0.24612442  -0.00262358  1
  Zn  Zn98  1  0.50367497  0.13599681  0.12845009  1
  Zn  Zn99  1  0.88237359  0.00795105  0.88313414  1
  Zn  Zn100  1  0.37109703  0.74878697  0.12453165  1
  Zn  Zn101  1  0.74837367  0.62496303  0.37722139  1
  Zn  Zn102  1  0.04558476  0.94045239  0.43598542  1
  Zn  Zn103  1  0.88666276  0.88296495  -0.01108949  1
  Zn  Zn104  1  0.12568078  0.37727485  0.23988412  1
  Zn  Zn105  1  0.62568270  0.87560060  0.24564655  1
  Zn  Zn106  1  0.13049460  0.36952292  0.74837434  1
  Zn  Zn107  1  0.18979666  0.18953530  0.17998918  1
  Zn  Zn108  1  0.17905221  0.18387595  0.68843699  1
  Zn  Zn109  1  0.18108627  0.68199343  0.18931369  1
  Zn  Zn110  1  0.19463523  0.68378237  0.68664792  1
  Zn  Zn111  1  0.68811717  0.18585270  0.18782809  1
  Zn  Zn112  1  0.68390439  0.19396760  0.68500164  1
  Zn  Zn113  1  0.68848620  0.68638589  0.18667389  1
  Zn  Zn114  1  0.68757368  0.68728795  0.68491450  1
  Zn  Zn115  1  0.30988223  0.30710801  0.29942092  1
  Zn  Zn116  1  0.31188767  0.30792317  0.94415402  1
  Zn  Zn117  1  0.31094900  0.81268379  0.31104059  1
  Zn  Zn118  1  0.31312922  0.81080500  0.81302031  1
  Zn  Zn119  1  0.81453138  0.31087609  0.31039227  1
  Zn  Zn120  1  0.81540678  0.31548322  0.81281761  1
  Zn  Zn121  1  0.81259514  0.81724273  0.31515103  1
  Zn  Zn122  1  0.81094701  0.81650915  0.81562701  1
  Zn  Zn123  1  0.19036719  0.43402570  0.43354041  1
  Zn  Zn124  1  0.17863123  0.44417406  0.94329978  1
  Zn  Zn125  1  0.20399848  0.93910118  0.43399965  1
  Zn  Zn126  1  0.04569935  0.92866965  0.92500619  1
  Zn  Zn127  1  0.68600678  0.43795185  0.43789505  1
  Zn  Zn128  1  0.68883059  0.43767688  0.93614994  1
  Zn  Zn129  1  0.68926912  0.93813982  0.43709688  1
  Zn  Zn130  1  0.68892190  0.93578249  0.94003342  1
  Zn  Zn131  1  0.31360868  0.06919077  0.06079547  1
  Zn  Zn132  1  0.31246404  0.06304656  0.55901455  1
  Zn  Zn133  1  0.30492492  0.55829538  0.06293681  1
  Zn  Zn134  1  0.31472232  0.55748133  0.56150126  1
  Zn  Zn135  1  0.81626211  0.05936840  0.06106432  1
  Zn  Zn136  1  0.81810616  0.06473490  0.56824196  1
  Zn  Zn137  1  0.80704188  0.55927744  0.06317026  1
  Zn  Zn138  1  0.80875370  0.56043205  0.56401371  1
  Zn  Zn139  1  0.43694065  0.43519699  0.18887794  1
  Zn  Zn140  1  0.43743121  0.43966166  0.69089067  1
  Zn  Zn141  1  0.43250717  0.93805623  0.18765167  1
  Zn  Zn142  1  0.43650461  0.94002234  0.68513265  1
  Zn  Zn143  1  0.94226796  0.43591727  0.18711071  1
  Zn  Zn144  1  0.93903489  0.43842048  0.68998194  1
  Zn  Zn145  1  0.93544583  0.93411885  0.19066056  1
  Zn  Zn146  1  0.94925506  0.94496296  0.74610196  1
  Zn  Zn147  1  0.06478186  0.06946273  0.30702468  1
  Zn  Zn148  1  0.06759086  0.07098763  0.80472889  1
  Zn  Zn149  1  0.06225710  0.56317857  0.30688373  1
  Zn  Zn150  1  0.06374969  0.56347604  0.81280018  1
  Zn  Zn151  1  0.56562117  0.06283188  0.31103770  1
  Zn  Zn152  1  0.56080494  0.06579712  0.81442452  1
  Zn  Zn153  1  0.55984006  0.56103771  0.31809219  1
  Zn  Zn154  1  0.56136291  0.56099797  0.81595766  1
  Zn  Zn155  1  0.43327131  0.19188561  0.43238289  1
  Zn  Zn156  1  0.44373176  0.18430667  0.94031128  1
  Zn  Zn157  1  0.43611259  0.69033146  0.43082104  1
  Zn  Zn158  1  0.43466919  0.68581268  0.93529740  1
  Zn  Zn159  1  0.94050853  0.18437364  0.44273254  1
  Zn  Zn160  1  0.93954025  0.18985025  0.93712710  1
  Zn  Zn161  1  0.93768086  0.68829354  0.44039036  1
  Zn  Zn162  1  0.93378595  0.70284441  0.91653019  1
  Zn  Zn163  1  0.06499880  0.31441608  0.05992229  1
  Zn  Zn164  1  0.06843285  0.30795196  0.55743773  1
  Zn  Zn165  1  0.07332831  0.81297632  0.06360486  1
  Zn  Zn166  1  0.06507576  0.81284033  0.57153075  1
  Zn  Zn167  1  0.55990800  0.30943395  0.06421913  1
  Zn  Zn168  1  0.54087963  0.34774141  0.57943283  1
  Zn  Zn169  1  0.56449221  0.81731719  0.06513348  1
  Zn  Zn170  1  0.56393336  0.81250413  0.56213123  1
  O  O171  1  0.11673624  0.12567754  0.10967635  1
  O  O172  1  0.10603738  0.12122766  0.62579866  1
  O  O173  1  0.11839182  0.61213177  0.12956075  1
  O  O174  1  0.11859902  0.62082755  0.62007265  1
  O  O175  1  0.62128576  0.12238825  0.11815008  1
  O  O176  1  0.61431800  0.12504303  0.61762195  1
  O  O177  1  0.62165995  0.62285836  0.11371179  1
  O  O178  1  0.62408737  0.62604636  0.61001165  1
  O  O179  1  0.37932565  0.37824356  0.36865167  1
  O  O180  1  0.38805409  0.38038119  0.87806345  1
  O  O181  1  0.38465048  0.86986090  0.38218057  1
  O  O182  1  0.37946089  0.88512752  0.87549238  1
  O  O183  1  0.88179050  0.37984684  0.38005779  1
  O  O184  1  0.88150704  0.38625573  0.87581669  1
  O  O185  1  0.87096537  0.88551298  0.38833565  1
  O  O186  1  0.87757692  0.88783353  0.86642733  1
  O  O187  1  0.25914713  0.01662071  0.37209988  1
  O  O188  1  0.26404973  0.01192005  0.86447949  1
  O  O189  1  0.25979068  0.50530598  0.37258748  1
  O  O190  1  0.25583937  0.50774092  0.86854989  1
  O  O191  1  0.75639601  0.00830175  0.37140756  1
  O  O192  1  0.74285725  0.00286208  0.86234397  1
  O  O193  1  0.75583069  0.49936798  0.36451569  1
  O  O194  1  0.76008161  0.50201433  0.87106297  1
  O  O195  1  0.23361472  0.50080274  0.12518249  1
  O  O196  1  0.24036512  0.50781964  0.63437546  1
  O  O197  1  0.25014273  0.98970511  0.11969050  1
  O  O198  1  0.25981474  0.99148040  0.63424444  1
  O  O199  1  0.74756106  0.49237822  0.13727568  1
  O  O200  1  0.73955244  0.49066298  0.62633653  1
  O  O201  1  0.75067631  0.99516334  0.13470796  1
  O  O202  1  0.74192199  0.99866755  0.63139442  1
  O  O203  1  0.00023356  0.36114142  0.25834122  1
  O  O204  1  0.00149426  0.36863782  0.75782957  1
  O  O205  1  0.01265498  0.86523892  0.24664543  1
  O  O206  1  0.02449925  0.86187059  0.72841140  1
  O  O207  1  0.51314902  0.37978567  0.25989589  1
  O  O208  1  0.50620841  0.36729524  0.76044226  1
  O  O209  1  0.50069977  0.86946763  0.25591472  1
  O  O210  1  0.50435501  0.87065105  0.75498955  1
  O  O211  1  0.48904980  0.12192402  0.24969762  1
  O  O212  1  0.49707770  0.13264812  0.74036591  1
  O  O213  1  0.49281894  0.63208379  0.25138050  1
  O  O214  1  0.49390527  0.63242670  0.75517261  1
  O  O215  1  1.00704740  0.13652321  0.23358324  1
  O  O216  1  0.99267538  0.13533166  0.73969463  1
  O  O217  1  0.98672241  0.63689343  0.25755316  1
  O  O218  1  0.99257704  0.62124053  0.73632340  1
  O  O219  1  0.37634108  0.24106539  0.01156143  1
  O  O220  1  0.35960414  0.25779087  0.49546931  1
  O  O221  1  0.36686827  0.75232788  0.00155189  1
  O  O222  1  0.37319829  0.75900197  0.50007397  1
  O  O223  1  0.87369743  0.25320492  0.01153158  1
  O  O224  1  0.86708390  0.26050903  0.49354141  1
  O  O225  1  0.86758594  0.74811101  0.00595900  1
  O  O226  1  0.86756030  0.75566446  0.50785843  1
  O  O227  1  0.13623617  0.24219622  0.49052515  1
  O  O228  1  0.11796998  0.23946126  0.98579146  1
  O  O229  1  0.13103684  0.74636980  0.49528881  1
  O  O230  1  0.13579365  0.75168526  0.98193456  1
  O  O231  1  0.63539760  0.24678890  0.48670706  1
  O  O232  1  0.62600862  0.24248297  0.99293200  1
  O  O233  1  0.63094136  0.74301584  0.49486883  1
  O  O234  1  0.62876213  0.74433530  0.99590790  1
  O  O235  1  0.48474555  0.24990917  0.12232135  1
  O  O236  1  0.50592390  0.24645354  0.63466968  1
  O  O237  1  0.49893290  0.75046077  0.13752495  1
  O  O238  1  0.50053855  0.75557329  0.63997042  1
  O  O239  1  0.99498605  0.24695320  0.13023952  1
  O  O240  1  1.00504372  0.25582175  0.63752863  1
  O  O241  1  0.99852825  0.74979525  0.13643027  1
  O  O242  1  0.98924174  0.73876029  0.61834091  1
  O  O243  1  0.00905527  0.24712275  0.36796949  1
  O  O244  1  0.00601717  0.25688555  0.86455597  1
  O  O245  1  0.01253435  0.74856314  0.37301120  1
  O  O246  1  0.02124576  0.74436307  0.86154313  1
  O  O247  1  0.51052520  0.25598269  0.37327579  1
  O  O248  1  0.50786191  0.25688441  0.87073262  1
  O  O249  1  0.50621778  0.75893683  0.36462999  1
  O  O250  1  0.50443904  0.75534907  0.86597070  1
  O  O251  1  0.25402861  0.13361408  0.48711517  1
  O  O252  1  0.23450695  0.11711907  0.99095283  1
  O  O253  1  0.24692410  0.62902550  0.49454214  1
  O  O254  1  0.25830008  0.63077326  0.98340196  1
  O  O255  1  0.74697083  0.13274766  0.49598519  1
  O  O256  1  0.73721680  0.12601613  1.00496335  1
  O  O257  1  0.74844032  0.63867783  0.49943212  1
  O  O258  1  0.74097239  0.63223112  0.99993721  1
  O  O259  1  0.25331438  0.38407472  -0.00274631  1
  O  O260  1  0.25758345  0.35981806  0.49572570  1
  O  O261  1  0.25109135  0.86438972  0.01912134  1
  O  O262  1  0.26166718  0.86895896  0.50529379  1
  O  O263  1  0.74864989  0.37553664  0.01581068  1
  O  O264  1  0.75413284  0.36967289  0.50548511  1
  O  O265  1  0.75340010  0.86652940  0.00578547  1
  O  O266  1  0.75397485  0.86517774  0.50605031  1
  O  O267  1  0.12478460  0.49549142  0.24706986  1
  O  O268  1  0.13363073  0.50018895  0.74108732  1
  O  O269  1  0.12271614  0.98368189  0.25663649  1
  O  O270  1  0.14119102  0.98521340  0.75358481  1
  O  O271  1  0.63315458  0.49382745  0.25291220  1
  O  O272  1  0.62393827  0.48681216  0.75143350  1
  O  O273  1  0.63881858  0.99695131  0.25158639  1
  O  O274  1  0.62750289  0.99974293  0.74386929  1
  O  O275  1  0.37406776  0.01752323  0.24590774  1
  O  O276  1  0.37173533  0.00841823  0.75617354  1
  O  O277  1  0.37346349  0.50806900  0.25643462  1
  O  O278  1  0.37153700  0.50291382  0.75976990  1
  O  O279  1  0.86196883  -0.00759702  0.26174146  1
  O  O280  1  0.85992531  0.01632379  0.74942961  1
  O  O281  1  0.87013692  0.50792754  0.25482662  1
  O  O282  1  0.87269979  0.51217386  0.75312896  1
  O  O283  1  0.11713568  0.36334415  0.37678260  1
  O  O284  1  0.11843130  0.36938648  0.87139496  1
  O  O285  1  0.12835374  0.86894366  0.36699331  1
  O  O286  1  0.12805099  0.86289312  0.85908466  1
  O  O287  1  0.61685888  0.36922187  0.37274841  1
  O  O288  1  0.61680789  0.36973779  0.86952864  1
  O  O289  1  0.61803143  0.86397860  0.37633599  1
  O  O290  1  0.61847255  0.87019298  0.86864934  1
  O  O291  1  0.37793497  0.12870088  0.13394469  1
  O  O292  1  0.38772298  0.12246114  0.62782148  1
  O  O293  1  0.37633405  0.62545554  0.13600643  1
  O  O294  1  0.37588606  0.62064037  0.63763165  1
  O  O295  1  0.88954383  0.13240252  0.12100726  1
  O  O296  1  0.88674001  0.12575959  0.63841719  1
  O  O297  1  0.87310905  0.62903108  0.13256088  1
  O  O298  1  0.88072728  0.62977129  0.62907441  1
  O  O299  1  0.26430823  0.25068369  0.11972996  1
  O  O300  1  0.24324602  0.23939191  0.60868956  1
  O  O301  1  0.24633802  0.74101199  0.11184923  1
  O  O302  1  0.25839754  0.75375809  0.61602654  1
  O  O303  1  0.75894591  0.25616336  0.12654024  1
  O  O304  1  0.74917528  0.25517690  0.61031956  1
  O  O305  1  0.74422546  0.75642591  0.11338696  1
  O  O306  1  0.75625482  0.75687798  0.61867097  1
  O  O307  1  0.24109549  0.24421201  0.37712643  1
  O  O308  1  0.24364655  0.23809940  0.87489307  1
  O  O309  1  0.24117900  0.74434118  0.38138203  1
  O  O310  1  0.24805909  0.74391107  0.88233273  1
  O  O311  1  0.74809007  0.24412213  0.38183089  1
  O  O312  1  0.73741653  0.25920848  0.87828098  1
  O  O313  1  0.74141851  0.75088603  0.38307412  1
  O  O314  1  0.74277477  0.74932780  0.88695851  1
  O  O315  1  0.00872592  0.12707724  0.01022978  1
  O  O316  1  -0.00252552  0.12234610  0.51934895  1
  O  O317  1  -0.01625210  0.64637401  0.01145443  1
  O  O318  1  0.00465767  0.61825122  0.50894154  1
  O  O319  1  0.51132603  0.11466773  0.00263484  1
  O  O320  1  0.50167425  0.12506746  0.50313492  1
  O  O321  1  0.50609872  0.61545624  -0.00058244  1
  O  O322  1  0.51001927  0.63137483  0.49756675  1
  O  O323  1  0.47674402  0.36069199  0.48394243  1
  O  O324  1  0.50909726  0.38787657  0.99296221  1
  O  O325  1  0.49565390  0.87833187  0.49275748  1
  O  O326  1  0.49757193  0.88195775  0.99276964  1
  O  O327  1  0.99543677  0.37756116  0.49483964  1
  O  O328  1  0.99725761  0.36936939  0.98223450  1
  O  O329  1  0.98753124  0.86847614  0.50444578  1
  O  O330  1  0.99900165  0.85706197  0.99581222  1
  O  O331  1  0.48530351  0.49044158  0.37470532  1
  O  O332  1  0.49209635  0.49187263  0.88146137  1
  O  O333  1  0.50736814  0.98789012  0.38015341  1
  O  O334  1  0.49014874  0.99800678  0.88181183  1
  O  O335  1  0.99551982  0.49376353  0.38186811  1
  O  O336  1  0.99057466  0.49313586  0.86635321  1
  O  O337  1  0.98443877  1.00904311  0.36716543  1
  O  O338  1  0.99824206  0.99331412  0.84481077  1
  O  O339  1  -0.00365730  0.01374356  0.13296626  1
  O  O340  1  -0.00722796  0.00526237  0.63991521  1
  O  O341  1  0.00904783  0.50033219  0.12659373  1
  O  O342  1  0.00820628  0.50594094  0.61911286  1
  O  O343  1  0.50063708  -0.00402002  0.11207464  1
  O  O344  1  0.50594951  0.00993949  0.61768267  1
  O  O345  1  0.50142622  0.50062487  0.11648702  1
  O  O346  1  0.51483491  0.45711855  0.61442087  1
  O  O347  1  0.24435717  0.37632255  0.24038674  1
  O  O348  1  0.24978788  0.39000997  0.75223072  1
  O  O349  1  0.23887842  0.86911139  0.24030163  1
  O  O350  1  0.25290096  0.88211552  0.74201418  1
  O  O351  1  0.74306443  0.38149814  0.24422457  1
  O  O352  1  0.74353688  0.37527277  0.74311738  1
  O  O353  1  0.74765870  0.88062933  0.24380613  1
  O  O354  1  0.74082411  0.88620644  0.74406249  1
  O  O355  1  0.25461308  0.12761430  0.25726354  1
  O  O356  1  0.25260693  0.11884462  0.75448532  1
  O  O357  1  0.25878873  0.62631874  0.25914157  1
  O  O358  1  0.26178326  0.61868897  0.75814907  1
  O  O359  1  0.74859470  0.11770789  0.26090726  1
  O  O360  1  0.75922612  0.12484578  0.74222197  1
  O  O361  1  0.75938140  0.61888926  0.25203816  1
  O  O362  1  0.75749443  0.62289664  0.74991861  1
  O  O363  1  0.36418551  0.13544235  0.35855997  1
  O  O364  1  0.36950545  0.12115541  0.87001019  1
  O  O365  1  0.37094205  0.61585018  0.36945411  1
  O  O366  1  0.37095213  0.61479276  0.86502247  1
  O  O367  1  0.86386862  0.11857886  0.38301794  1
  O  O368  1  0.88052935  0.12758537  0.85649036  1
  O  O369  1  0.87181492  0.61857650  0.37045421  1
  O  O370  1  0.87359182  0.62120561  0.86366181  1
  O  O371  1  0.12261380  0.38767859  0.12080440  1
  O  O372  1  0.12301088  0.38683937  0.62492341  1
  O  O373  1  0.13825101  0.87082605  0.13852560  1
  O  O374  1  0.14592398  0.86622792  0.63345907  1
  O  O375  1  0.63128796  0.37372615  0.13572544  1
  O  O376  1  0.64129748  0.36394472  0.63677036  1
  O  O377  1  0.63878414  0.88023689  0.12578806  1
  O  O378  1  0.62953002  0.88281820  0.62959557  1
  O  O379  1  0.11858873  0.25056621  0.25525514  1
  O  O380  1  0.11713760  0.24997480  0.76075863  1
  O  O381  1  0.11696979  0.75447991  0.25953811  1
  O  O382  1  0.14427107  0.76096965  0.75796701  1
  O  O383  1  0.63528880  0.25961667  0.26372639  1
  O  O384  1  0.61842116  0.25857275  0.75867484  1
  O  O385  1  0.61851266  0.74948560  0.25812164  1
  O  O386  1  0.61978071  0.75441465  0.75494749  1
  O  O387  1  0.37333291  0.23736885  0.23316922  1
  O  O388  1  0.38875277  0.24262695  0.75500240  1
  O  O389  1  0.38278181  0.73977606  0.25201403  1
  O  O390  1  0.38383113  0.73900400  0.74996397  1
  O  O391  1  0.88342971  0.25182164  0.23770382  1
  O  O392  1  0.88117073  0.24278578  0.75058122  1
  O  O393  1  0.88511972  0.74491481  0.26086202  1
  O  O394  1  0.86715943  0.74030714  0.73888142  1
  O  O395  1  0.36533590  0.48051036  0.49123185  1
  O  O396  1  0.38330900  0.50747148  0.98895247  1
  O  O397  1  0.38271459  0.98669095  0.50255800  1
  O  O398  1  0.38203978  1.00030191  0.99169698  1
  O  O399  1  0.87919778  0.49268607  0.49570192  1
  O  O400  1  0.87226641  0.50167247  0.98784396  1
  O  O401  1  0.86720805  0.98926340  0.49395854  1
  O  O402  1  0.87993655  0.99838785  0.99577245  1
  O  O403  1  0.11473720  0.00999937  -0.01150776  1
  O  O404  1  0.12573004  -0.00508083  0.49112719  1
  O  O405  1  0.11485799  0.51140565  0.00706185  1
  O  O406  1  0.12309075  0.50442068  0.50532201  1
  O  O407  1  0.61732579  0.00673183  -0.00194057  1
  O  O408  1  0.61988336  0.00859044  0.50353512  1
  O  O409  1  0.61822051  0.50806494  0.00017195  1
  O  O410  1  0.62938482  0.52092338  0.49362529  1
  O  O411  1  0.37404766  0.36408045  0.12649096  1
  O  O412  1  0.37048241  0.37443680  0.61218394  1
  O  O413  1  0.35909557  0.86932427  0.12953447  1
  O  O414  1  0.36981417  0.87082589  0.61747304  1
  O  O415  1  0.86718260  0.36889182  0.12539530  1
  O  O416  1  0.86258790  0.38161194  0.62057439  1
  O  O417  1  0.86229188  0.87443288  0.12468458  1
  O  O418  1  0.86771169  0.86675649  0.62025964  1
  O  O419  1  0.13788563  0.13000114  0.37419760  1
  O  O420  1  0.13152399  0.13043907  0.88079239  1
  O  O421  1  0.12938927  0.63235284  0.38186677  1
  O  O422  1  0.13724400  0.63821141  0.86263706  1
  O  O423  1  0.63425569  0.13218455  0.37925200  1
  O  O424  1  0.61966695  0.13689019  0.88318453  1
  O  O425  1  0.62524043  0.63677260  0.38341600  1
  O  O426  1  0.62554607  0.63054469  0.88589611  1
