# generated using pymatgen
data_V85Zn86O256
_symmetry_space_group_name_H-M   'P 1'
_cell_length_a   16.94732858
_cell_length_b   16.95672125
_cell_length_c   16.94884037
_cell_angle_alpha   89.93974614
_cell_angle_beta   89.96386582
_cell_angle_gamma   90.03704749
_symmetry_Int_Tables_number   1
_chemical_formula_structural   V85Zn86O256
_chemical_formula_sum   'V85 Zn86 O256'
_cell_volume   4870.60266951
_cell_formula_units_Z   1
loop_
 _symmetry_equiv_pos_site_id
 _symmetry_equiv_pos_as_xyz
  1  'x, y, z'
loop_
 _atom_site_type_symbol
 _atom_site_label
 _atom_site_symmetry_multiplicity
 _atom_site_fract_x
 _atom_site_fract_y
 _atom_site_fract_z
 _atom_site_occupancy
  V  V0  1  0.24596498  0.24781308  0.50545862  1
  V  V1  1  0.74572151  0.00153796  0.24269781  1
  V  V2  1  0.12204283  0.86459896  0.74491093  1
  V  V3  1  0.74621428  0.87779584  0.11466459  1
  V  V4  1  0.76320403  0.39295936  0.13402518  1
  V  V5  1  0.12349997  0.73756015  0.37804770  1
  V  V6  1  0.50366385  0.74457493  0.75015559  1
  V  V7  1  0.24370061  0.38343667  0.13400668  1
  V  V8  1  0.00351209  0.88455499  0.86990386  1
  V  V9  1  0.87058590  0.75441121  0.13615662  1
  V  V10  1  0.62335187  0.87578687  0.24339838  1
  V  V11  1  0.37668101  0.12257063  0.75237222  1
  V  V12  1  0.11381801  0.74523488  0.87291401  1
  V  V13  1  0.74825668  0.74240445  0.49298986  1
  V  V14  1  0.63373540  -0.00488345  0.62434772  1
  V  V15  1  0.87628219  0.37284119  -0.00183542  1
  V  V16  1  -0.00306312  0.25137462  0.25323204  1
  V  V17  1  0.38009474  0.00080226  0.38157534  1
  V  V18  1  0.87735235  0.00342518  0.37666775  1
  V  V19  1  0.37315658  0.24759288  0.12719727  1
  V  V20  1  0.37214360  0.37180828  -0.00207625  1
  V  V21  1  0.23402773  0.49617295  0.74711883  1
  V  V22  1  0.87468894  0.12554463  0.74946523  1
  V  V23  1  0.49599313  0.62988145  0.11837582  1
  V  V24  1  0.37440714  0.62070700  0.74523198  1
  V  V25  1  0.37663247  -0.00253665  0.87909183  1
  V  V26  1  0.12450768  0.61810543  0.00664573  1
  V  V27  1  0.50616310  0.62104333  0.61731929  1
  V  V28  1  0.50157427  0.87272673  0.87491468  1
  V  V29  1  0.88456423  0.62693517  0.75237811  1
  V  V30  1  0.49739254  0.74473480  0.25598789  1
  V  V31  1  0.00909127  0.37810673  0.87589498  1
  V  V32  1  0.49961967  0.24774290  0.75097006  1
  V  V33  1  0.62433600  0.11550292  0.00582586  1
  V  V34  1  0.74956409  0.24816660  0.00629316  1
  V  V35  1  0.61925087  0.50108750  0.11788161  1
  V  V36  1  0.62072621  0.11662829  0.49926213  1
  V  V37  1  0.74710916  0.12345456  0.37380574  1
  V  V38  1  0.25137275  0.87133285  0.62320032  1
  V  V39  1  0.87665776  0.50138952  0.87855513  1
  V  V40  1  0.63145450  0.74274465  0.88821220  1
  V  V41  1  0.24794604  0.73930923  0.49562564  1
  V  V42  1  0.23604905  0.12084882  0.38518279  1
  V  V43  1  0.75379699  0.62589849  0.89786695  1
  V  V44  1  0.50879791  0.87574521  0.37767617  1
  V  V45  1  0.61625611  0.37373207  0.24557325  1
  V  V46  1  0.00080072  0.25787371  0.74769627  1
  V  V47  1  0.49933805  0.11623723  0.12768367  1
  V  V48  1  -0.02839160  0.38708850  0.38682256  1
  V  V49  1  0.62339626  0.24859113  0.87652867  1
  V  V50  1  0.24740829  0.62282026  0.87248049  1
  V  V51  1  0.38654407  0.38052888  0.50066164  1
  V  V52  1  0.24478368  0.37627173  0.62241393  1
  V  V53  1  0.00085877  0.49802043  0.01727137  1
  V  V54  1  0.24430243  0.24343408  0.00341729  1
  V  V55  1  0.11751958  0.50152846  0.59983644  1
  V  V56  1  0.00128195  0.87115738  0.37622384  1
  V  V57  1  0.24956109  0.87202687  0.12638776  1
  V  V58  1  0.24103337  0.12102584  0.87694652  1
  V  V59  1  -0.00039715  0.63166893  0.60608126  1
  V  V60  1  0.24645453  -0.00095736  0.25240360  1
  V  V61  1  0.87137570  0.75290383  0.63183811  1
  V  V62  1  0.86817701  0.25262581  0.62333367  1
  V  V63  1  0.37168716  0.49754406  0.86937705  1
  V  V64  1  0.74945116  0.12107064  0.87579665  1
  V  V65  1  0.25065030  0.74710348  0.00078336  1
  V  V66  1  0.37234810  0.12427081  0.25468062  1
  V  V67  1  0.00170502  0.64030142  0.13611156  1
  V  V68  1  0.12027065  0.86698801  0.25208086  1
  V  V69  1  0.87971007  0.87183531  -0.00290081  1
  V  V70  1  0.32184687  0.56647122  0.31504764  1
  V  V71  1  0.12342024  0.24941750  0.87384206  1
  V  V72  1  0.61441063  0.25033920  0.37394856  1
  V  V73  1  0.62260522  0.49850407  0.62245177  1
  V  V74  1  0.86996328  0.87670487  0.50568871  1
  V  V75  1  0.74899224  0.25383054  0.50190232  1
  V  V76  1  0.38178412  0.87497771  0.50132816  1
  V  V77  1  0.49849763  0.11560676  0.62355762  1
  V  V78  1  0.49950831  0.50467583  -0.00722022  1
  V  V79  1  0.49883439  0.37365989  0.87351485  1
  V  V80  1  0.79964944  0.42564474  0.57254431  1
  V  V81  1  0.12216746  0.26303434  0.38239552  1
  V  V82  1  0.25181673  -0.00588860  0.74958740  1
  V  V83  1  0.63637815  0.87080434  0.74869048  1
  V  V84  1  0.63434834  0.37437170  0.74838322  1
  Zn  Zn85  1  0.87846809  0.24307466  0.12322371  1
  Zn  Zn86  1  0.49310540  0.25285244  0.25537772  1
  Zn  Zn87  1  0.00919724  0.12896880  0.61368500  1
  Zn  Zn88  1  0.12598483  0.00512965  0.61536050  1
  Zn  Zn89  1  0.01315489  0.00944279  0.49718052  1
  Zn  Zn90  1  0.62606468  0.62395865  0.47313341  1
  Zn  Zn91  1  0.50226800  -0.00612831  0.00583564  1
  Zn  Zn92  1  0.75258507  0.50264340  0.75432389  1
  Zn  Zn93  1  0.45464060  0.43925687  0.34930656  1
  Zn  Zn94  1  0.75546881  0.65975521  0.32900904  1
  Zn  Zn95  1  0.00915916  0.00821916  0.00157266  1
  Zn  Zn96  1  0.87805848  0.00032798  0.87377476  1
  Zn  Zn97  1  0.37609877  0.74565533  0.62362216  1
  Zn  Zn98  1  0.36898185  0.74158403  0.13307795  1
  Zn  Zn99  1  0.37589802  0.87037872  0.00219110  1
  Zn  Zn100  1  0.75682518  -0.00637267  0.74571113  1
  Zn  Zn101  1  0.00764021  0.12476981  0.11926174  1
  Zn  Zn102  1  0.87551266  0.12436686  0.24776284  1
  Zn  Zn103  1  0.11594440  0.39012143  0.24541927  1
  Zn  Zn104  1  0.37423412  0.24929907  0.62672756  1
  Zn  Zn105  1  0.12803744  0.01128014  0.11569184  1
  Zn  Zn106  1  0.75142986  0.51234227  0.26887316  1
  Zn  Zn107  1  0.18312305  0.19324190  0.19793199  1
  Zn  Zn108  1  0.18623699  0.18938570  0.69208791  1
  Zn  Zn109  1  0.18854155  0.68081331  0.19497594  1
  Zn  Zn110  1  0.18378865  0.68375624  0.68132487  1
  Zn  Zn111  1  0.68441084  0.18880455  0.18695719  1
  Zn  Zn112  1  0.68713125  0.18576486  0.68678382  1
  Zn  Zn113  1  0.67645452  0.69291288  0.17318085  1
  Zn  Zn114  1  0.69604823  0.68192268  0.69299711  1
  Zn  Zn115  1  0.30919265  0.31324138  0.31828403  1
  Zn  Zn116  1  0.30888710  0.31179993  0.80783182  1
  Zn  Zn117  1  0.31379951  0.80894762  0.31693872  1
  Zn  Zn118  1  0.31336666  0.80660087  0.81262069  1
  Zn  Zn119  1  0.80457877  0.31037397  0.31253990  1
  Zn  Zn120  1  0.81442118  0.30923201  0.81778729  1
  Zn  Zn121  1  0.81400293  0.82474977  0.31151223  1
  Zn  Zn122  1  0.81481447  0.80581322  0.81722216  1
  Zn  Zn123  1  0.16747899  0.47662628  0.39336808  1
  Zn  Zn124  1  0.18742755  0.43602006  0.94282465  1
  Zn  Zn125  1  0.18825999  0.93173090  0.44008367  1
  Zn  Zn126  1  0.18718933  0.93243234  0.93566056  1
  Zn  Zn127  1  0.64277054  0.45745426  0.41775611  1
  Zn  Zn128  1  0.68977350  0.43827497  0.94048739  1
  Zn  Zn129  1  0.69169800  0.93544423  0.43852112  1
  Zn  Zn130  1  0.68764537  0.93647432  0.93498485  1
  Zn  Zn131  1  0.30928064  0.06022992  0.06300853  1
  Zn  Zn132  1  0.31102583  0.05867817  0.56242894  1
  Zn  Zn133  1  0.31531463  0.56159993  0.06297271  1
  Zn  Zn134  1  0.31432349  0.55652579  0.55697040  1
  Zn  Zn135  1  0.82557297  0.05980282  0.06170644  1
  Zn  Zn136  1  0.81586012  0.06760861  0.56079947  1
  Zn  Zn137  1  0.80204768  0.57431191  0.11440406  1
  Zn  Zn138  1  0.82185271  0.54849625  0.43612884  1
  Zn  Zn139  1  0.43094742  0.44032118  0.17985230  1
  Zn  Zn140  1  0.43686540  0.43575918  0.68469570  1
  Zn  Zn141  1  0.43158663  0.93439320  0.19081482  1
  Zn  Zn142  1  0.44176982  0.93466041  0.68866774  1
  Zn  Zn143  1  0.93419005  0.43432811  0.19179575  1
  Zn  Zn144  1  0.94415041  0.44317302  0.68884700  1
  Zn  Zn145  1  0.93935722  0.94097353  0.18806548  1
  Zn  Zn146  1  0.94415619  0.93866143  0.68570518  1
  Zn  Zn147  1  0.06299761  0.06284520  0.30981848  1
  Zn  Zn148  1  0.07086107  0.06807965  0.78089905  1
  Zn  Zn149  1  0.04520789  0.55997502  0.31535131  1
  Zn  Zn150  1  0.05920252  0.56251367  0.81474840  1
  Zn  Zn151  1  0.56157923  0.05966922  0.30986127  1
  Zn  Zn152  1  0.56558778  0.05768764  0.81189097  1
  Zn  Zn153  1  0.57538028  0.57293841  0.30556234  1
  Zn  Zn154  1  0.56853716  0.56323517  0.81209773  1
  Zn  Zn155  1  0.43237298  0.18775147  0.44419836  1
  Zn  Zn156  1  0.43599761  0.18373551  0.94025551  1
  Zn  Zn157  1  0.44021643  0.69032037  0.43822818  1
  Zn  Zn158  1  0.43490354  0.68615925  0.93407341  1
  Zn  Zn159  1  0.93584624  0.19183741  0.43659720  1
  Zn  Zn160  1  0.93856799  0.18451216  0.93736678  1
  Zn  Zn161  1  0.92857999  0.69083243  0.42822909  1
  Zn  Zn162  1  0.93510974  0.68763357  0.94715911  1
  Zn  Zn163  1  0.06612118  0.30641644  0.06385199  1
  Zn  Zn164  1  0.06055132  0.31734788  0.55928168  1
  Zn  Zn165  1  0.06551342  0.81834195  0.05967039  1
  Zn  Zn166  1  0.05999524  0.81481448  0.55796614  1
  Zn  Zn167  1  0.55987541  0.30960361  0.06242480  1
  Zn  Zn168  1  0.56586265  0.30593475  0.56816298  1
  Zn  Zn169  1  0.56205099  0.81272626  0.06390168  1
  Zn  Zn170  1  0.56573801  0.81024473  0.56466700  1
  O  O171  1  0.12318647  0.12234960  0.13993288  1
  O  O172  1  0.11223067  0.11016621  0.66925010  1
  O  O173  1  0.11294590  0.63355471  0.11820468  1
  O  O174  1  0.10999249  0.61602943  0.62434314  1
  O  O175  1  0.61202971  0.13020812  0.11722747  1
  O  O176  1  0.61882260  0.11758901  0.61890539  1
  O  O177  1  0.60777088  0.61433654  0.11807103  1
  O  O178  1  0.61782708  0.61406151  0.64063714  1
  O  O179  1  0.37756803  0.36609170  0.39320800  1
  O  O180  1  0.37752091  0.37802403  0.87733446  1
  O  O181  1  0.38390553  0.88119265  0.38283499  1
  O  O182  1  0.38306005  0.87926839  0.87506111  1
  O  O183  1  0.87278931  0.37167185  0.37796178  1
  O  O184  1  0.88520304  0.37688198  0.88410625  1
  O  O185  1  0.88338668  0.88333317  0.38251985  1
  O  O186  1  0.88594279  0.87394364  0.87831096  1
  O  O187  1  0.25845621  0.00500170  0.37206401  1
  O  O188  1  0.25765826  0.00356933  0.87105168  1
  O  O189  1  0.27190500  0.51880014  0.38982005  1
  O  O190  1  0.25088999  0.50228851  0.86692952  1
  O  O191  1  0.75503524  0.00375891  0.36510910  1
  O  O192  1  0.74974102  0.01229805  0.87142598  1
  O  O193  1  0.74315546  0.49144178  0.37697182  1
  O  O194  1  0.75950104  0.50639716  0.87823715  1
  O  O195  1  0.25637905  0.48106652  0.11848553  1
  O  O196  1  0.23604941  0.49693712  0.62707178  1
  O  O197  1  0.25000774  0.99091698  0.13567914  1
  O  O198  1  0.25135097  0.98576327  0.63159002  1
  O  O199  1  0.72290094  0.49091703  0.08779943  1
  O  O200  1  0.74291496  0.48651478  0.63479512  1
  O  O201  1  0.75840679  0.99371192  0.13624236  1
  O  O202  1  0.73777607  1.00781627  0.62768981  1
  O  O203  1  -0.00399208  0.36928243  0.26287880  1
  O  O204  1  -0.00555708  0.36595156  0.76116589  1
  O  O205  1  0.01279688  0.87947154  0.25936821  1
  O  O206  1  0.01119678  0.87045358  0.75572232  1
  O  O207  1  0.50636707  0.37410267  0.24669539  1
  O  O208  1  0.50446585  0.36650517  0.75643751  1
  O  O209  1  0.50630573  0.87224892  0.25545894  1
  O  O210  1  0.50713392  0.86544574  0.76017300  1
  O  O211  1  0.49113230  0.12581990  0.24351289  1
  O  O212  1  0.49548387  0.12732233  0.74798766  1
  O  O213  1  0.50746197  0.64123155  0.23926819  1
  O  O214  1  0.49492862  0.63072079  0.74785174  1
  O  O215  1  0.99789630  0.14309026  0.25897916  1
  O  O216  1  0.98306275  0.14246745  0.75922129  1
  O  O217  1  0.99783804  0.62466004  0.23335596  1
  O  O218  1  0.98912250  0.62381695  0.75018619  1
  O  O219  1  0.36634585  0.25188245  0.00674487  1
  O  O220  1  0.36133661  0.25304010  0.50716905  1
  O  O221  1  0.36011360  0.74744499  -0.00160853  1
  O  O222  1  0.36590988  0.75686372  0.50112908  1
  O  O223  1  0.86462720  0.25576556  -0.00444981  1
  O  O224  1  0.85728367  0.24767790  0.50757180  1
  O  O225  1  0.87912512  0.76650589  0.00905332  1
  O  O226  1  0.86808710  0.75837122  0.51046060  1
  O  O227  1  0.13680178  0.25073367  0.49949224  1
  O  O228  1  0.13332956  0.25130802  0.98717924  1
  O  O229  1  0.14030296  0.75771493  0.49369997  1
  O  O230  1  0.13372768  0.74092274  0.99288298  1
  O  O231  1  0.63139363  0.24114849  0.49496277  1
  O  O232  1  0.63038411  0.24072245  0.99543051  1
  O  O233  1  0.64652653  0.75088554  0.51095144  1
  O  O234  1  0.62039610  0.75141697  0.98672320  1
  O  O235  1  0.48460947  0.24052067  0.12378435  1
  O  O236  1  0.50116049  0.23401745  0.63639512  1
  O  O237  1  0.49543694  0.74448693  0.12964838  1
  O  O238  1  0.50136118  0.74368777  0.63876607  1
  O  O239  1  1.00194848  0.25476335  0.14330068  1
  O  O240  1  0.99221968  0.25316766  0.63346195  1
  O  O241  1  0.99476727  0.74625681  0.12290274  1
  O  O242  1  0.99442128  0.73872452  0.61848989  1
  O  O243  1  0.00384037  0.26024190  0.36933745  1
  O  O244  1  0.00608487  0.25868812  0.87121602  1
  O  O245  1  0.00624235  0.76465391  0.38277162  1
  O  O246  1  0.01189921  0.75286480  0.88136418  1
  O  O247  1  0.51080527  0.24056235  0.37680286  1
  O  O248  1  0.50317351  0.25157757  0.87003641  1
  O  O249  1  0.50140223  0.75977358  0.36295525  1
  O  O250  1  0.50605135  0.75251670  0.86654271  1
  O  O251  1  0.25518977  0.13254434  0.49437833  1
  O  O252  1  0.25561884  0.13522362  0.99124622  1
  O  O253  1  0.25362709  0.64166576  0.51100732  1
  O  O254  1  0.24205637  0.62667256  0.99696384  1
  O  O255  1  0.73960046  0.13201813  0.49467948  1
  O  O256  1  0.74435332  0.12860113  0.99691019  1
  O  O257  1  0.75351244  0.64128294  0.50003513  1
  O  O258  1  0.76276791  0.62071832  0.99571434  1
  O  O259  1  0.25353389  0.36187147  0.00631558  1
  O  O260  1  0.25993869  0.36542703  0.51531863  1
  O  O261  1  0.25065616  0.86251411  0.00793831  1
  O  O262  1  0.26271294  0.86685616  0.50725681  1
  O  O263  1  0.75930698  0.36651043  0.00449737  1
  O  O264  1  0.74148386  0.36783675  0.50899564  1
  O  O265  1  0.75797558  0.88397436  0.00911765  1
  O  O266  1  0.76419812  0.86990678  0.50077578  1
  O  O267  1  0.13024730  0.49323348  0.28613194  1
  O  O268  1  0.13293105  0.50251448  0.74864735  1
  O  O269  1  0.13876243  0.98880702  0.25801038  1
  O  O270  1  0.13891064  0.97663773  0.75499512  1
  O  O271  1  0.62965447  0.48929823  0.23151204  1
  O  O272  1  0.62908082  0.48943018  0.74686395  1
  O  O273  1  0.63276776  0.98929015  0.25071958  1
  O  O274  1  0.62955271  0.98902607  0.74395413  1
  O  O275  1  0.36308737  0.00185633  0.25995530  1
  O  O276  1  0.37229843  0.00043952  0.76140797  1
  O  O277  1  0.38384058  0.49212185  0.26884369  1
  O  O278  1  0.36515642  0.50377926  0.75251140  1
  O  O279  1  0.86570893  -0.00251025  0.26226448  1
  O  O280  1  0.87387679  0.01061294  0.75146649  1
  O  O281  1  0.82832169  0.47651378  0.18846471  1
  O  O282  1  0.87710779  0.50673484  0.76054602  1
  O  O283  1  0.12755455  0.36436553  0.38484960  1
  O  O284  1  0.11499230  0.36880419  0.88040611  1
  O  O285  1  0.11854613  0.86776373  0.36987217  1
  O  O286  1  0.12042918  0.86230320  0.86705091  1
  O  O287  1  0.62916112  0.35886517  0.35805457  1
  O  O288  1  0.61776410  0.36757114  0.87104498  1
  O  O289  1  0.61292675  0.88329822  0.36888929  1
  O  O290  1  0.61883348  0.86759628  0.86887488  1
  O  O291  1  0.37623278  0.13029714  0.13174890  1
  O  O292  1  0.38262345  0.12096505  0.63286454  1
  O  O293  1  0.38894970  0.62348294  0.12279601  1
  O  O294  1  0.38642368  0.62294471  0.62885773  1
  O  O295  1  0.88185441  0.12853109  0.13119136  1
  O  O296  1  0.87283805  0.13891823  0.63450136  1
  O  O297  1  0.88912861  0.64752945  0.11479705  1
  O  O298  1  0.89001090  0.63663814  0.63474318  1
  O  O299  1  0.25711608  0.25216322  0.11891899  1
  O  O300  1  0.24686860  0.25682872  0.62370864  1
  O  O301  1  0.25030453  0.75259556  0.11838295  1
  O  O302  1  0.25205003  0.75784011  0.61747219  1
  O  O303  1  0.74905103  0.25515747  0.11329751  1
  O  O304  1  0.75543487  0.24802669  0.61720785  1
  O  O305  1  0.76239776  0.76322354  0.12392086  1
  O  O306  1  0.76810894  0.74495129  0.62070582  1
  O  O307  1  0.24173491  0.24245784  0.38577908  1
  O  O308  1  0.24320425  0.24270337  0.87971806  1
  O  O309  1  0.24304841  0.75213861  0.38823667  1
  O  O310  1  0.24188730  0.74127268  0.88180203  1
  O  O311  1  0.73777197  0.24159070  0.38177600  1
  O  O312  1  0.74434676  0.23987035  0.88615053  1
  O  O313  1  0.75547712  0.76340013  0.38931841  1
  O  O314  1  0.74334218  0.73933561  0.87754566  1
  O  O315  1  -0.00037348  0.12316269  0.00268918  1
  O  O316  1  -0.01027169  0.12246932  0.50243360  1
  O  O317  1  0.00753148  0.61697075  0.00840901  1
  O  O318  1  -0.00933190  0.62683866  0.50871759  1
  O  O319  1  0.50719354  0.12177093  0.00803224  1
  O  O320  1  0.50859677  0.12760990  0.51127826  1
  O  O321  1  0.49358148  0.61509895  0.00211214  1
  O  O322  1  0.51185752  0.64004535  0.51451533  1
  O  O323  1  0.48501245  0.36196897  0.51014789  1
  O  O324  1  0.49010558  0.37724683  0.99251624  1
  O  O325  1  0.49126836  0.86453064  0.49267732  1
  O  O326  1  0.49732184  0.87448809  0.98841216  1
  O  O327  1  0.99274782  0.36873272  0.48443316  1
  O  O328  1  0.99730792  0.37918476  0.99757023  1
  O  O329  1  0.98851435  0.88135996  0.49277525  1
  O  O330  1  0.99620067  0.87567150  0.98666382  1
  O  O331  1  0.53951114  0.49930605  0.38328891  1
  O  O332  1  0.49277883  0.49544342  0.87594952  1
  O  O333  1  0.48716259  0.99281319  0.37033563  1
  O  O334  1  0.49393594  0.98949422  0.87557535  1
  O  O335  1  0.98127438  0.48749067  0.37661002  1
  O  O336  1  0.99728417  0.49234830  0.88607974  1
  O  O337  1  0.99162199  0.99280374  0.37358694  1
  O  O338  1  1.00478600  0.98841260  0.86504431  1
  O  O339  1  0.00794128  0.00160188  0.12535003  1
  O  O340  1  0.00477866  0.00580683  0.62052989  1
  O  O341  1  -0.00545858  0.50917486  0.11961301  1
  O  O342  1  0.01197399  0.50964196  0.62373991  1
  O  O343  1  0.48904480  0.01184404  0.12423439  1
  O  O344  1  0.51124124  0.01022271  0.63348024  1
  O  O345  1  0.50266139  0.50400179  0.11307023  1
  O  O346  1  0.50866720  0.51089282  0.63328934  1
  O  O347  1  0.25089827  0.36858304  0.23573244  1
  O  O348  1  0.25340606  0.38376437  0.73537728  1
  O  O349  1  0.24667565  0.87994949  0.24611110  1
  O  O350  1  0.24864987  0.87222679  0.74055551  1
  O  O351  1  0.73555188  0.36121244  0.23348963  1
  O  O352  1  0.73656519  0.37261111  0.76186769  1
  O  O353  1  0.74117351  0.88184676  0.24013817  1
  O  O354  1  0.73970127  0.87321410  0.75656231  1
  O  O355  1  0.25486192  0.11734837  0.26284635  1
  O  O356  1  0.26022732  0.11793761  0.75965496  1
  O  O357  1  0.26337741  0.61719905  0.24854091  1
  O  O358  1  0.25375754  0.61586601  0.75040996  1
  O  O359  1  0.74690626  0.11741860  0.25450460  1
  O  O360  1  0.75864567  0.12810995  0.75943631  1
  O  O361  1  0.75034465  0.61940715  0.21762686  1
  O  O362  1  0.76837686  0.62220248  0.75975398  1
  O  O363  1  0.36861933  0.11696832  0.37405175  1
  O  O364  1  0.36835300  0.11529797  0.87209942  1
  O  O365  1  0.38429110  0.62963498  0.36318994  1
  O  O366  1  0.36596987  0.61761238  0.86642373  1
  O  O367  1  0.86456926  0.11823706  0.37142509  1
  O  O368  1  0.86413942  0.12521443  0.86840472  1
  O  O369  1  0.86111854  0.62792872  0.36704524  1
  O  O370  1  0.87340070  0.62226657  0.87367515  1
  O  O371  1  0.13887334  0.37252953  0.12696503  1
  O  O372  1  0.12860416  0.39247865  0.61867927  1
  O  O373  1  0.13727410  0.87008311  0.13575392  1
  O  O374  1  0.13437815  0.87076696  0.63097907  1
  O  O375  1  0.62699233  0.37923191  0.12793009  1
  O  O376  1  0.61637670  0.38223866  0.63820426  1
  O  O377  1  0.63453984  0.87619400  0.12823203  1
  O  O378  1  0.61815398  0.88395702  0.63613097  1
  O  O379  1  0.11395214  0.26228733  0.26381041  1
  O  O380  1  0.11577807  0.25354826  0.76450806  1
  O  O381  1  0.13478518  0.75994611  0.26205445  1
  O  O382  1  0.13309818  0.75549966  0.75880061  1
  O  O383  1  0.61631078  0.25346523  0.25589155  1
  O  O384  1  0.61952206  0.25398670  0.75621217  1
  O  O385  1  0.61161527  0.76622249  0.23982446  1
  O  O386  1  0.62041753  0.75417736  0.75635488  1
  O  O387  1  0.37307175  0.24359680  0.24416053  1
  O  O388  1  0.38130381  0.24089212  0.74958500  1
  O  O389  1  0.39333614  0.76113184  0.24805377  1
  O  O390  1  0.38457230  0.73943604  0.74898370  1
  O  O391  1  0.88579943  0.25048385  0.25144456  1
  O  O392  1  0.87842552  0.24765906  0.74350830  1
  O  O393  1  0.87510210  0.76161272  0.23520024  1
  O  O394  1  0.87525249  0.74622508  0.73848449  1
  O  O395  1  0.38188686  0.48084775  0.50740143  1
  O  O396  1  0.38029174  0.49221387  0.98980233  1
  O  O397  1  0.37254745  0.98832122  0.49270575  1
  O  O398  1  0.37539757  0.99643486  0.98839808  1
  O  O399  1  0.85984024  0.48702862  0.52375002  1
  O  O400  1  0.88660841  0.48704804  0.99675705  1
  O  O401  1  0.86881129  0.99458917  0.48815410  1
  O  O402  1  0.88228097  0.98653890  0.99281157  1
  O  O403  1  0.12338866  -0.01253560  0.00433867  1
  O  O404  1  0.12965155  0.00140545  0.50121931  1
  O  O405  1  0.11790671  0.51058286  -0.00132209  1
  O  O406  1  0.12578312  0.50359935  0.50237874  1
  O  O407  1  0.62269913  0.01223348  -0.00412862  1
  O  O408  1  0.62894034  0.00853986  0.50668788  1
  O  O409  1  0.60334375  0.48971574  -0.00305713  1
  O  O410  1  0.63251386  0.51130347  0.52091817  1
  O  O411  1  0.36722170  0.36449382  0.11823782  1
  O  O412  1  0.36640477  0.37054737  0.62041275  1
  O  O413  1  0.36136525  0.87144087  0.12278095  1
  O  O414  1  0.37209051  0.87193414  0.61874206  1
  O  O415  1  0.87323356  0.36176963  0.11084645  1
  O  O416  1  0.86832729  0.36878186  0.63149400  1
  O  O417  1  0.87154539  0.86942205  0.11845764  1
  O  O418  1  0.88322084  0.86161388  0.62078833  1
  O  O419  1  0.13474808  0.13522206  0.37059186  1
  O  O420  1  0.13725318  0.12962565  0.86468986  1
  O  O421  1  0.10839487  0.63977089  0.37487841  1
  O  O422  1  0.12878458  0.62852647  0.88354494  1
  O  O423  1  0.62706143  0.12605370  0.38256448  1
  O  O424  1  0.63052381  0.12935735  0.88123378  1
  O  O425  1  0.64750236  0.63729300  0.36317771  1
  O  O426  1  0.63977833  0.63113749  0.87297852  1
