# generated using pymatgen
data_V85Zn86O256
_symmetry_space_group_name_H-M   'P 1'
_cell_length_a   16.95678994
_cell_length_b   16.96185547
_cell_length_c   16.94705677
_cell_angle_alpha   89.97566424
_cell_angle_beta   89.95447888
_cell_angle_gamma   90.00505957
_symmetry_Int_Tables_number   1
_chemical_formula_structural   V85Zn86O256
_chemical_formula_sum   'V85 Zn86 O256'
_cell_volume   4874.28708926
_cell_formula_units_Z   1
loop_
 _symmetry_equiv_pos_site_id
 _symmetry_equiv_pos_as_xyz
  1  'x, y, z'
loop_
 _atom_site_type_symbol
 _atom_site_label
 _atom_site_symmetry_multiplicity
 _atom_site_fract_x
 _atom_site_fract_y
 _atom_site_fract_z
 _atom_site_occupancy
  V  V0  1  0.37501469  0.37218650  0.51451381  1
  V  V1  1  0.74522495  0.87552486  0.62532383  1
  V  V2  1  0.62287845  0.50000221  0.11938896  1
  V  V3  1  0.88060226  -0.00204598  0.87884054  1
  V  V4  1  -0.00051211  0.62576452  0.11915011  1
  V  V5  1  0.48919427  0.12544183  0.63042746  1
  V  V6  1  0.25577152  0.76243166  -0.00085517  1
  V  V7  1  0.50041335  0.49838736  0.50142095  1
  V  V8  1  0.86802699  0.00251488  0.38150772  1
  V  V9  1  0.12792953  0.23960108  0.88033845  1
  V  V10  1  0.74187700  0.14089912  0.37754888  1
  V  V11  1  0.75077164  0.50097371  0.24938680  1
  V  V12  1  0.86866570  0.24529725  0.62230778  1
  V  V13  1  0.75212445  0.49610178  0.74951026  1
  V  V14  1  0.13162561  0.87797802  0.24830403  1
  V  V15  1  0.49813450  0.87544214  0.37765465  1
  V  V16  1  0.24940259  0.62664455  0.37656940  1
  V  V17  1  0.00435445  0.75296276  0.74999821  1
  V  V18  1  -0.00158765  0.87610850  0.37772833  1
  V  V19  1  0.75071346  0.62569886  0.37469871  1
  V  V20  1  0.49340520  -0.00420900  -0.00040525  1
  V  V21  1  0.62853968  0.14270926  0.50687504  1
  V  V22  1  0.62438664  0.25059698  0.87408905  1
  V  V23  1  0.00063408  0.75170183  0.24681713  1
  V  V24  1  0.62560887  0.87532878  0.25232652  1
  V  V25  1  0.37984445  0.01181097  0.37398009  1
  V  V26  1  0.24899895  0.01583251  0.74704789  1
  V  V27  1  0.75074556  0.87701888  0.12374500  1
  V  V28  1  0.48831109  0.87516682  0.87530435  1
  V  V29  1  0.30572333  0.56368240  0.91717290  1
  V  V30  1  0.12428825  0.61934008  -0.00755074  1
  V  V31  1  0.75028289  0.37005567  0.12079955  1
  V  V32  1  0.87058477  0.37258366  0.50028751  1
  V  V33  1  0.24944883  0.24103331  0.49445368  1
  V  V34  1  0.75184636  0.24945652  0.00303920  1
  V  V35  1  0.50027832  0.24854240  0.25292155  1
  V  V36  1  0.12873347  0.00446707  0.10128256  1
  V  V37  1  0.12130354  0.61125056  0.50257987  1
  V  V38  1  0.74933297  0.00186184  0.74637631  1
  V  V39  1  0.12080031  0.50038294  0.12273714  1
  V  V40  1  0.13065239  0.75009607  0.87103243  1
  V  V41  1  0.11308101  0.01300659  0.61746282  1
  V  V42  1  0.87628984  0.62283709  0.75057465  1
  V  V43  1  0.62380719  0.12412227  -0.00177775  1
  V  V44  1  0.74899707  0.00332131  0.25048687  1
  V  V45  1  0.93046607  0.30492863  0.06768454  1
  V  V46  1  0.25731885  0.23610002  -0.00340986  1
  V  V47  1  0.62584515  0.62369067  0.50103444  1
  V  V48  1  -0.00456804  0.25110763  0.24910470  1
  V  V49  1  0.23949346  0.87384949  0.63716079  1
  V  V50  1  0.24972308  0.49739002  0.25364494  1
  V  V51  1  0.00871788  0.25794930  0.74231045  1
  V  V52  1  0.75267260  0.75124976  -0.00008776  1
  V  V53  1  0.87924976  0.50351575  0.38200173  1
  V  V54  1  0.50095588  0.62383352  0.62612025  1
  V  V55  1  0.20599328  0.05234954  0.30085989  1
  V  V56  1  0.12497821  0.75125766  0.37707908  1
  V  V57  1  0.75140609  0.62426879  0.87540165  1
  V  V58  1  0.62547040  0.75169931  0.87461876  1
  V  V59  1  0.48524872  0.38027683  0.88120847  1
  V  V60  1  0.00574968  0.87611232  0.88037432  1
  V  V61  1  0.87633491  0.74905812  0.62612197  1
  V  V62  1  0.37826351  0.63034868  0.25236968  1
  V  V63  1  0.88084534  0.49105517  0.88794540  1
  V  V64  1  0.12787776  0.36947241  0.25273225  1
  V  V65  1  0.23543870  0.50078156  0.74059908  1
  V  V66  1  0.24794233  0.74982677  0.50375865  1
  V  V67  1  0.49783035  0.12632049  0.12404744  1
  V  V68  1  0.37121503  0.01776859  0.86867053  1
  V  V69  1  0.48511650  0.24832867  0.74899821  1
  V  V70  1  0.00277018  0.61242073  0.62243806  1
  V  V71  1  0.49860351  0.36850839  0.37859862  1
  V  V72  1  0.37413257  0.61424397  0.74881875  1
  V  V73  1  0.88000011  0.87893261  0.50393869  1
  V  V74  1  0.00343049  0.37974879  0.37918763  1
  V  V75  1  0.62463480  0.37297248  0.75273931  1
  V  V76  1  0.62262027  0.88040197  0.74960202  1
  V  V77  1  0.62419168  0.74910283  0.37663710  1
  V  V78  1  0.51064756  0.00092092  0.50732221  1
  V  V79  1  0.37492415  0.75152478  0.62667115  1
  V  V80  1  0.62585353  0.37197262  0.25697755  1
  V  V81  1  -0.00679774  0.11163946  0.11414104  1
  V  V82  1  0.88653060  0.12308432  0.74322803  1
  V  V83  1  0.75093212  0.12449119  0.87268482  1
  V  V84  1  0.23085876  0.37119637  0.62710056  1
  Zn  Zn85  1  0.25934631  0.88614381  0.12534314  1
  Zn  Zn86  1  0.87650589  0.62652916  0.24948043  1
  Zn  Zn87  1  0.37660830  0.25943357  0.12144523  1
  Zn  Zn88  1  -0.00083340  0.37212605  0.87650591  1
  Zn  Zn89  1  0.37573656  0.49830775  0.37672666  1
  Zn  Zn90  1  0.87583699  0.75132873  0.12443680  1
  Zn  Zn91  1  0.50073152  0.62645082  0.12248163  1
  Zn  Zn92  1  0.88091749  0.87929065  0.00311588  1
  Zn  Zn93  1  0.62171177  0.62284930  -0.00011176  1
  Zn  Zn94  1  0.37353975  0.12500985  0.24939055  1
  Zn  Zn95  1  0.86888170  0.13466044  0.24673902  1
  Zn  Zn96  1  0.48245840  0.49845799  0.00047468  1
  Zn  Zn97  1  0.75125367  0.74991988  0.50103718  1
  Zn  Zn98  1  0.10202633  0.21029215  0.41114179  1
  Zn  Zn99  1  0.49889118  0.74780279  0.75155846  1
  Zn  Zn100  1  0.26273882  0.38250594  0.11053655  1
  Zn  Zn101  1  0.62655770  0.49945398  0.62758507  1
  Zn  Zn102  1  0.50094976  0.75042751  0.24608470  1
  Zn  Zn103  1  0.37475060  0.87993190  0.50494910  1
  Zn  Zn104  1  0.74534956  0.36977532  0.61865004  1
  Zn  Zn105  1  0.38338565  0.75838528  0.11820521  1
  Zn  Zn106  1  0.62294382  0.00005318  0.12356650  1
  Zn  Zn107  1  0.18019974  0.18912432  0.17549958  1
  Zn  Zn108  1  0.18594544  0.18872818  0.67790729  1
  Zn  Zn109  1  0.18853925  0.68846533  0.18495682  1
  Zn  Zn110  1  0.18621032  0.68139313  0.68780745  1
  Zn  Zn111  1  0.68263388  0.18880298  0.18713144  1
  Zn  Zn112  1  0.68469546  0.18698093  0.68610547  1
  Zn  Zn113  1  0.68598364  0.68793818  0.18808886  1
  Zn  Zn114  1  0.68813170  0.68847324  0.68944530  1
  Zn  Zn115  1  0.31450904  0.30939570  0.31749592  1
  Zn  Zn116  1  0.30397468  0.31379735  0.81103055  1
  Zn  Zn117  1  0.31455951  0.81571174  0.31402007  1
  Zn  Zn118  1  0.31119691  0.80716470  0.81036168  1
  Zn  Zn119  1  0.81539141  0.31658368  0.31097659  1
  Zn  Zn120  1  0.81553910  0.31059360  0.81154655  1
  Zn  Zn121  1  0.81262780  0.81215911  0.31305810  1
  Zn  Zn122  1  0.81574742  0.81398916  0.81231675  1
  Zn  Zn123  1  0.18959571  0.43199022  0.43776878  1
  Zn  Zn124  1  0.17887788  0.42774593  0.92953144  1
  Zn  Zn125  1  0.18875598  0.93314895  0.44488957  1
  Zn  Zn126  1  0.18997420  0.93778652  0.92704563  1
  Zn  Zn127  1  0.68813365  0.43794830  0.43734063  1
  Zn  Zn128  1  0.69043307  0.43485094  0.93620473  1
  Zn  Zn129  1  0.68701768  0.93948870  0.44082572  1
  Zn  Zn130  1  0.68614838  0.93844547  0.93562190  1
  Zn  Zn131  1  0.31559608  0.06382858  0.05932928  1
  Zn  Zn132  1  0.31368573  0.05973295  0.56088218  1
  Zn  Zn133  1  0.30831171  0.57022170  0.08012934  1
  Zn  Zn134  1  0.31147756  0.55932328  0.56332272  1
  Zn  Zn135  1  0.81310210  0.06267552  0.06125808  1
  Zn  Zn136  1  0.80724691  0.06330696  0.56324299  1
  Zn  Zn137  1  0.81029034  0.56482575  0.06411384  1
  Zn  Zn138  1  0.81355250  0.56057495  0.56308159  1
  Zn  Zn139  1  0.43701212  0.43861082  0.18901425  1
  Zn  Zn140  1  0.43854753  0.43804776  0.69209489  1
  Zn  Zn141  1  0.43543648  0.93689117  0.18982941  1
  Zn  Zn142  1  0.43573550  0.93978179  0.68845131  1
  Zn  Zn143  1  0.94051236  0.44437027  0.19392966  1
  Zn  Zn144  1  0.93351427  0.43424556  0.68685058  1
  Zn  Zn145  1  0.93699915  0.94015660  0.19116789  1
  Zn  Zn146  1  0.93920303  0.93506539  0.69169874  1
  Zn  Zn147  1  0.03141332  0.08187170  0.33953794  1
  Zn  Zn148  1  0.06609200  0.05780524  0.80368838  1
  Zn  Zn149  1  0.06343962  0.56394428  0.31163083  1
  Zn  Zn150  1  0.05741653  0.56204007  0.81346083  1
  Zn  Zn151  1  0.56429909  0.06486551  0.31668921  1
  Zn  Zn152  1  0.56086178  0.06202759  0.81052315  1
  Zn  Zn153  1  0.56207657  0.55815178  0.31239811  1
  Zn  Zn154  1  0.56209527  0.56044609  0.81515823  1
  Zn  Zn155  1  0.43722995  0.19085059  0.44496384  1
  Zn  Zn156  1  0.43774466  0.19083386  0.93609377  1
  Zn  Zn157  1  0.43629139  0.68756306  0.43867280  1
  Zn  Zn158  1  0.44331942  0.68804048  0.94116911  1
  Zn  Zn159  1  0.92863661  0.18917158  0.44150094  1
  Zn  Zn160  1  0.94447681  0.18035415  0.92763115  1
  Zn  Zn161  1  0.93867332  0.68959723  0.44079771  1
  Zn  Zn162  1  0.93768403  0.68725699  0.93689067  1
  Zn  Zn163  1  0.10709522  0.32448219  0.04484294  1
  Zn  Zn164  1  0.05645966  0.31216754  0.56275806  1
  Zn  Zn165  1  0.06960882  0.81332728  0.06022641  1
  Zn  Zn166  1  0.06244021  0.81160097  0.56401948  1
  Zn  Zn167  1  0.56133296  0.31413505  0.06250982  1
  Zn  Zn168  1  0.55978577  0.31143946  0.57005673  1
  Zn  Zn169  1  0.56349787  0.81437531  0.06203656  1
  Zn  Zn170  1  0.56242245  0.81105822  0.56305110  1
  O  O171  1  0.11095900  0.10905639  0.12538676  1
  O  O172  1  0.12168830  0.11282452  0.62304120  1
  O  O173  1  0.12066442  0.62010661  0.11494751  1
  O  O174  1  0.11494823  0.62933641  0.61452397  1
  O  O175  1  0.61418954  0.12250431  0.11742051  1
  O  O176  1  0.61990723  0.12651157  0.61210276  1
  O  O177  1  0.62621130  0.61341296  0.12457416  1
  O  O178  1  0.61913604  0.62536297  0.62057353  1
  O  O179  1  0.38436650  0.37809924  0.38507763  1
  O  O180  1  0.38735910  0.37304008  0.87188896  1
  O  O181  1  0.38776396  0.88076444  0.37851612  1
  O  O182  1  0.38695489  0.87506292  0.86801811  1
  O  O183  1  0.88134663  0.38368298  0.37984657  1
  O  O184  1  0.87607832  0.38653742  0.87624603  1
  O  O185  1  0.87383711  0.87941379  0.38669723  1
  O  O186  1  0.88361197  0.88247073  0.87506465  1
  O  O187  1  0.26007000  -0.00485171  0.37179479  1
  O  O188  1  0.26055657  -0.00152118  0.86034659  1
  O  O189  1  0.24982488  0.50594243  0.36559161  1
  O  O190  1  0.24855976  0.49377397  0.86328197  1
  O  O191  1  0.75360068  0.00381360  0.36895151  1
  O  O192  1  0.75714984  0.00203946  0.86383107  1
  O  O193  1  0.75617546  0.50754622  0.36935640  1
  O  O194  1  0.75772011  0.50288120  0.86679614  1
  O  O195  1  0.23875678  0.50064135  0.13807989  1
  O  O196  1  0.24919350  0.49086845  0.63396810  1
  O  O197  1  0.23405715  1.00200603  0.11425185  1
  O  O198  1  0.25220328  0.98893872  0.63338029  1
  O  O199  1  0.74702951  0.49142291  0.13121006  1
  O  O200  1  0.75023293  0.49779331  0.63902257  1
  O  O201  1  0.74703849  0.99451144  0.13193832  1
  O  O202  1  0.75353866  0.99093639  0.63875249  1
  O  O203  1  0.00792793  0.37168357  0.25425861  1
  O  O204  1  -0.00706940  0.35972717  0.75089091  1
  O  O205  1  0.00994555  0.86910720  0.25337146  1
  O  O206  1  -0.00499989  0.85820458  0.75964248  1
  O  O207  1  0.50672125  0.37057855  0.25970286  1
  O  O208  1  0.50657718  0.36893433  0.75820602  1
  O  O209  1  0.50928185  0.87575076  0.26182690  1
  O  O210  1  0.50826684  0.87360154  0.75539186  1
  O  O211  1  0.50444722  0.13288348  0.24262237  1
  O  O212  1  0.50584423  0.13170183  0.73796235  1
  O  O213  1  0.49035021  0.62517224  0.25242485  1
  O  O214  1  0.49266009  0.62475457  0.74571233  1
  O  O215  1  0.99607569  0.13630931  0.24170757  1
  O  O216  1  0.98878226  0.13150709  0.74965808  1
  O  O217  1  1.00248833  0.63501910  0.23877880  1
  O  O218  1  0.99468407  0.63360766  0.74415668  1
  O  O219  1  0.36109124  0.25009766  -0.00367948  1
  O  O220  1  0.36280980  0.26124513  0.49851615  1
  O  O221  1  0.35852573  0.74459458  -0.00358760  1
  O  O222  1  0.36832689  0.74771060  0.51405248  1
  O  O223  1  0.87445317  0.24853622  0.00150794  1
  O  O224  1  0.87389321  0.25783487  0.50895608  1
  O  O225  1  0.86236570  0.75324752  -0.00039021  1
  O  O226  1  0.87178862  0.75926107  0.50796622  1
  O  O227  1  0.14174189  0.26067297  0.50449132  1
  O  O228  1  0.12692597  0.22972678  0.98504501  1
  O  O229  1  0.13134542  0.74641622  0.49425744  1
  O  O230  1  0.13661293  0.74064111  0.99244668  1
  O  O231  1  0.62388495  0.24163251  0.50297972  1
  O  O232  1  0.62948415  0.24352453  0.99356250  1
  O  O233  1  0.62757276  0.74274249  0.49313334  1
  O  O234  1  0.63531868  0.75290297  0.98812675  1
  O  O235  1  0.49964064  0.24303269  0.13173719  1
  O  O236  1  0.50178139  0.23761019  0.63569282  1
  O  O237  1  0.50186264  0.74654345  0.12727540  1
  O  O238  1  0.49164080  0.74365935  0.62790106  1
  O  O239  1  0.99219146  0.24330678  0.12562894  1
  O  O240  1  0.98805348  0.25184575  0.63548205  1
  O  O241  1  1.00185365  0.74587837  0.13081783  1
  O  O242  1  0.99456673  0.74558029  0.63386856  1
  O  O243  1  0.00308103  0.26813578  0.36354442  1
  O  O244  1  0.00402222  0.24904104  0.85972244  1
  O  O245  1  0.00493253  0.75615841  0.36730688  1
  O  O246  1  0.00775082  0.75340114  0.86892155  1
  O  O247  1  0.49888533  0.26085241  0.37107838  1
  O  O248  1  0.50639676  0.25887093  0.86967214  1
  O  O249  1  0.50620707  0.75927978  0.37727491  1
  O  O250  1  0.50852462  0.75809714  0.87432023  1
  O  O251  1  0.25452893  0.14226673  0.50781055  1
  O  O252  1  0.25300158  0.13644030  0.99540643  1
  O  O253  1  0.24310025  0.63051351  0.49769152  1
  O  O254  1  0.24578606  0.62221361  0.98791822  1
  O  O255  1  0.73547233  0.12309953  0.49430646  1
  O  O256  1  0.74457647  0.12911886  0.99391773  1
  O  O257  1  0.74316601  0.62472966  0.49366970  1
  O  O258  1  0.74629333  0.63517023  0.99416391  1
  O  O259  1  0.22034957  0.35467778  0.00681775  1
  O  O260  1  0.25753418  0.37745691  0.51373683  1
  O  O261  1  0.24625818  0.86405637  -0.00033955  1
  O  O262  1  0.25535958  0.86587245  0.51327841  1
  O  O263  1  0.74714146  0.36811146  0.01329745  1
  O  O264  1  0.76371477  0.38021647  0.49996495  1
  O  O265  1  0.75044029  0.87036556  0.00745949  1
  O  O266  1  0.75611727  0.87485181  0.51099277  1
  O  O267  1  0.13272881  0.49658181  0.24449628  1
  O  O268  1  0.13715994  0.50699031  0.75141410  1
  O  O269  1  0.13505620  0.99507596  0.25059767  1
  O  O270  1  0.14283114  1.00021571  0.73819985  1
  O  O271  1  0.63083696  0.49197378  0.24105326  1
  O  O272  1  0.63405106  0.49169577  0.75221164  1
  O  O273  1  0.63467901  0.99436997  0.25134720  1
  O  O274  1  0.63310336  0.98790077  0.75581937  1
  O  O275  1  0.38388461  0.00602599  0.26586736  1
  O  O276  1  0.36578099  -0.00251736  0.76057933  1
  O  O277  1  0.36631079  0.51164052  0.25273380  1
  O  O278  1  0.36659806  0.50977132  0.74818332  1
  O  O279  1  0.85878209  -0.00078279  0.25734427  1
  O  O280  1  0.86861049  0.00538572  0.75579872  1
  O  O281  1  0.86775648  0.50285241  0.26175549  1
  O  O282  1  0.86779598  0.50365092  0.75797884  1
  O  O283  1  0.11683329  0.38241483  0.36377644  1
  O  O284  1  0.11298879  0.35238652  0.87578481  1
  O  O285  1  0.12002857  0.87172774  0.36900234  1
  O  O286  1  0.11840550  0.86329803  0.87455823  1
  O  O287  1  0.62056628  0.37953840  0.36302846  1
  O  O288  1  0.62231485  0.36972692  0.86601190  1
  O  O289  1  0.61704776  0.86976649  0.37524799  1
  O  O290  1  0.61778618  0.86986198  0.86755970  1
  O  O291  1  0.38901092  0.12758936  0.12527895  1
  O  O292  1  0.39096845  0.12423650  0.62059526  1
  O  O293  1  0.37816988  0.63500691  0.13811086  1
  O  O294  1  0.38019359  0.62962142  0.63071811  1
  O  O295  1  0.88749124  0.11294570  0.13174452  1
  O  O296  1  0.87034487  0.13033894  0.63172217  1
  O  O297  1  0.88495057  0.62809958  0.12695173  1
  O  O298  1  0.88038173  0.63063862  0.62967887  1
  O  O299  1  0.25108055  0.24746871  0.10848416  1
  O  O300  1  0.24869576  0.26691979  0.61970972  1
  O  O301  1  0.24694780  0.74902782  0.10594872  1
  O  O302  1  0.25453572  0.75739137  0.62586889  1
  O  O303  1  0.74781978  0.25713024  0.11902363  1
  O  O304  1  0.76386748  0.25298337  0.63420979  1
  O  O305  1  0.75009404  0.75791814  0.11702942  1
  O  O306  1  0.75828271  0.75848471  0.62709384  1
  O  O307  1  0.24454173  0.25469950  0.39222202  1
  O  O308  1  0.23827046  0.25305819  0.88239838  1
  O  O309  1  0.24556101  0.74654794  0.38300930  1
  O  O310  1  0.24103313  0.75242167  0.88376124  1
  O  O311  1  0.75137853  0.23938567  0.36730067  1
  O  O312  1  0.74614886  0.24454099  0.88158165  1
  O  O313  1  0.74374708  0.74272965  0.37689852  1
  O  O314  1  0.74501748  0.74790402  0.88020000  1
  O  O315  1  -0.00840122  0.12310345  0.01563708  1
  O  O316  1  0.02147915  0.13252747  0.44179967  1
  O  O317  1  0.00827582  0.63196765  0.01164789  1
  O  O318  1  0.00879436  0.63020605  0.51007631  1
  O  O319  1  0.50342862  0.11827193  0.00430089  1
  O  O320  1  0.50964338  0.12273877  0.51031339  1
  O  O321  1  0.50437160  0.61537010  0.00133773  1
  O  O322  1  0.50592378  0.61872660  0.50469432  1
  O  O323  1  0.49540612  0.37684913  0.49725486  1
  O  O324  1  0.50215196  0.37747383  0.98579250  1
  O  O325  1  0.49975289  0.88300892  0.49677533  1
  O  O326  1  0.50708978  0.88855771  0.98995297  1
  O  O327  1  0.98822236  0.37268881  0.48907744  1
  O  O328  1  0.99649993  0.35773131  1.01179278  1
  O  O329  1  0.98707104  0.86994658  0.49620691  1
  O  O330  1  0.99804698  0.86613924  0.98554607  1
  O  O331  1  0.50115386  0.48702586  0.38364665  1
  O  O332  1  0.50158295  0.48434624  0.87664698  1
  O  O333  1  0.49721641  0.99384647  0.38469564  1
  O  O334  1  0.48865286  0.99526590  0.87664461  1
  O  O335  1  0.99080302  0.49237049  0.36682310  1
  O  O336  1  0.98571748  0.49513447  0.87397682  1
  O  O337  1  0.97526528  0.98584192  0.36271641  1
  O  O338  1  0.99369379  0.98827339  0.86273646  1
  O  O339  1  0.00867410  0.00570399  0.12736148  1
  O  O340  1  0.01494358  -0.00672670  0.63273237  1
  O  O341  1  0.01215657  0.51086655  0.13128816  1
  O  O342  1  -0.00627253  0.51365827  0.63137854  1
  O  O343  1  0.50037321  0.00604435  0.11470509  1
  O  O344  1  0.49829815  0.01171111  0.62105367  1
  O  O345  1  0.50974162  0.50043204  0.12147885  1
  O  O346  1  0.50289880  0.50624783  0.61971166  1
  O  O347  1  0.24357897  0.38246505  0.25449822  1
  O  O348  1  0.25241969  0.38612639  0.73567006  1
  O  O349  1  0.23495625  0.86603405  0.24739348  1
  O  O350  1  0.25385086  0.87892026  0.73909144  1
  O  O351  1  0.74374208  0.37793109  0.24125512  1
  O  O352  1  0.74277974  0.38124805  0.75154630  1
  O  O353  1  0.74550842  0.88092461  0.24384421  1
  O  O354  1  0.74479849  0.88094900  0.74498364  1
  O  O355  1  0.25430054  0.11968433  0.23966801  1
  O  O356  1  0.25437380  0.11383499  0.73790213  1
  O  O357  1  0.25432819  0.61989387  0.25574642  1
  O  O358  1  0.25675806  0.60992368  0.74552929  1
  O  O359  1  0.74601474  0.11881739  0.25691933  1
  O  O360  1  0.75421974  0.11693179  0.75403122  1
  O  O361  1  0.75307852  0.62105132  0.25763552  1
  O  O362  1  0.75496440  0.61726346  0.75625057  1
  O  O363  1  0.38140479  0.11543225  0.37689530  1
  O  O364  1  0.38073005  0.11555456  0.86819732  1
  O  O365  1  0.36699028  0.62192912  0.37200140  1
  O  O366  1  0.37276318  0.62685711  0.86642460  1
  O  O367  1  0.85931167  0.11670189  0.37284978  1
  O  O368  1  0.87007895  0.11674493  0.86417098  1
  O  O369  1  0.87082447  0.62000912  0.37551314  1
  O  O370  1  0.87068179  0.61676724  0.86998362  1
  O  O371  1  0.12625249  0.38705849  0.13907224  1
  O  O372  1  0.13283790  0.37827615  0.62333232  1
  O  O373  1  0.12473871  0.89102523  0.13072712  1
  O  O374  1  0.13814349  0.87311298  0.62729297  1
  O  O375  1  0.63244092  0.37979339  0.13400054  1
  O  O376  1  0.62629406  0.37646817  0.63910905  1
  O  O377  1  0.63631583  0.87820027  0.13064470  1
  O  O378  1  0.63668995  0.86720375  0.63407692  1
  O  O379  1  0.11390264  0.25935382  0.24250187  1
  O  O380  1  0.11080394  0.24808143  0.74577244  1
  O  O381  1  0.11672481  0.75619823  0.25305945  1
  O  O382  1  0.11837497  0.73996798  0.76139971  1
  O  O383  1  0.61177366  0.25974169  0.24657651  1
  O  O384  1  0.61927606  0.25661410  0.75653292  1
  O  O385  1  0.62485711  0.75706922  0.26073928  1
  O  O386  1  0.62606722  0.75991047  0.76106090  1
  O  O387  1  0.38820316  0.24640926  0.25162326  1
  O  O388  1  0.38622452  0.25400359  0.75544825  1
  O  O389  1  0.37688295  0.73847958  0.25610964  1
  O  O390  1  0.37355645  0.73662357  0.74037292  1
  O  O391  1  0.88880829  0.25303456  0.25046593  1
  O  O392  1  0.88150731  0.24038479  0.74475141  1
  O  O393  1  0.88911202  0.75117108  0.24884047  1
  O  O394  1  0.88178911  0.74206827  0.74668515  1
  O  O395  1  0.38389914  0.49313207  0.49928515  1
  O  O396  1  0.36059787  0.51360397  0.98966670  1
  O  O397  1  0.38674654  0.99897278  0.49297840  1
  O  O398  1  0.38143201  1.00339606  0.98216236  1
  O  O399  1  0.87322605  0.49507872  0.48773830  1
  O  O400  1  0.86857481  0.50343643  0.98565045  1
  O  O401  1  0.86741583  0.99215628  0.49305841  1
  O  O402  1  0.86948378  0.99885070  0.98249094  1
  O  O403  1  0.12256602  -0.00365114  0.00328630  1
  O  O404  1  0.13002719  -0.00716542  0.51942889  1
  O  O405  1  0.13000747  0.50745612  0.00889551  1
  O  O406  1  0.12790999  0.51275184  0.49308048  1
  O  O407  1  0.61526752  0.00858122  -0.00316711  1
  O  O408  1  0.61327995  0.00486855  0.50061825  1
  O  O409  1  0.63210437  0.49767337  0.01347315  1
  O  O410  1  0.61863473  0.50516833  0.50363361  1
  O  O411  1  0.37254763  0.37349462  0.12767683  1
  O  O412  1  0.37541413  0.37835950  0.61633488  1
  O  O413  1  0.37022949  0.87028516  0.13128474  1
  O  O414  1  0.36867230  0.86520923  0.62685013  1
  O  O415  1  0.87393954  0.37330005  0.12358404  1
  O  O416  1  0.87218876  0.36748458  0.61572086  1
  O  O417  1  0.86383084  0.87529574  0.12387279  1
  O  O418  1  0.86731888  0.87143658  0.62132314  1
  O  O419  1  0.14706423  0.11315841  0.35471042  1
  O  O420  1  0.12110441  0.14119570  0.85808927  1
  O  O421  1  0.12933963  0.63303861  0.38060124  1
  O  O422  1  0.11614671  0.63107269  0.88667764  1
  O  O423  1  0.63040762  0.12206400  0.39188438  1
  O  O424  1  0.63037338  0.12984729  0.87803060  1
  O  O425  1  0.62979357  0.62921506  0.37955678  1
  O  O426  1  0.63201209  0.63476111  0.87423517  1
