# generated using pymatgen
data_V85Zn86O256
_symmetry_space_group_name_H-M   'P 1'
_cell_length_a   16.94269662
_cell_length_b   16.92554722
_cell_length_c   16.93363351
_cell_angle_alpha   89.97231770
_cell_angle_beta   90.00377199
_cell_angle_gamma   90.00910354
_symmetry_Int_Tables_number   1
_chemical_formula_structural   V85Zn86O256
_chemical_formula_sum   'V85 Zn86 O256'
_cell_volume   4855.96281417
_cell_formula_units_Z   1
loop_
 _symmetry_equiv_pos_site_id
 _symmetry_equiv_pos_as_xyz
  1  'x, y, z'
loop_
 _atom_site_type_symbol
 _atom_site_label
 _atom_site_symmetry_multiplicity
 _atom_site_fract_x
 _atom_site_fract_y
 _atom_site_fract_z
 _atom_site_occupancy
  V  V0  1  0.62769657  0.52010984  0.11985135  1
  V  V1  1  0.50452778  0.87826686  0.86629251  1
  V  V2  1  0.00689766  0.86968537  0.37910276  1
  V  V3  1  0.12449843  0.75042663  0.87931806  1
  V  V4  1  0.50696950  0.51410090  -0.00001456  1
  V  V5  1  -0.00354993  -0.00521081  0.50304055  1
  V  V6  1  0.74529767  0.74576708  0.00974862  1
  V  V7  1  -0.00022000  0.24659836  0.23650635  1
  V  V8  1  -0.00984575  0.01044454  -0.00521167  1
  V  V9  1  0.76349065  0.25877927  0.01710064  1
  V  V10  1  0.37326933  0.00057651  0.87696694  1
  V  V11  1  0.74946564  -0.00613015  0.75835985  1
  V  V12  1  -0.00562989  0.48638518  -0.00104122  1
  V  V13  1  0.87582260  -0.00572035  0.37954193  1
  V  V14  1  0.39032655  0.86785500  0.49927513  1
  V  V15  1  0.75145492  0.24719291  0.49815026  1
  V  V16  1  0.25320700  0.51025882  0.24878171  1
  V  V17  1  0.13332512  0.12386551  -0.00491006  1
  V  V18  1  0.12789124  0.37392183  0.24910432  1
  V  V19  1  0.38436561  0.50210729  0.36791320  1
  V  V20  1  0.62225213  -0.01154968  0.62820250  1
  V  V21  1  0.87498514  0.24836267  0.62455760  1
  V  V22  1  0.12293001  0.12489047  0.50153452  1
  V  V23  1  0.49494932  0.62399087  0.61886714  1
  V  V24  1  0.75208463  0.12492456  0.37558491  1
  V  V25  1  0.61740936  0.37383500  0.23391145  1
  V  V26  1  0.86724834  0.63264810  0.24479844  1
  V  V27  1  0.62767853  0.50774630  0.61427233  1
  V  V28  1  0.61807268  0.87399149  0.25525045  1
  V  V29  1  -0.00188087  0.63067066  0.12292431  1
  V  V30  1  0.75370995  -0.00162516  0.24926343  1
  V  V31  1  0.76581358  0.47472285  0.23537528  1
  V  V32  1  0.24676953  0.86908431  0.61147810  1
  V  V33  1  0.74948364  0.37422849  0.62184403  1
  V  V34  1  0.75816636  0.87545574  0.62314243  1
  V  V35  1  0.25036681  0.87394625  0.12194292  1
  V  V36  1  0.87444198  0.62572358  0.75199530  1
  V  V37  1  0.13133667  0.25535410  0.87516556  1
  V  V38  1  0.75584599  0.75158934  0.49822455  1
  V  V39  1  0.38251315  0.37568572  0.49341644  1
  V  V40  1  0.50177908  0.12468674  0.12821978  1
  V  V41  1  0.24652881  0.63171338  0.38319346  1
  V  V42  1  0.74763680  0.62577996  0.37768779  1
  V  V43  1  0.39057982  -0.00538866  0.38327852  1
  V  V44  1  0.25155515  0.50028429  0.74909737  1
  V  V45  1  0.37941039  0.50533816  0.86936433  1
  V  V46  1  0.75028505  0.49981146  0.74895056  1
  V  V47  1  -0.00153023  0.75027875  0.75384790  1
  V  V48  1  0.37092243  0.12606701  0.75373456  1
  V  V49  1  0.87518072  0.11957504  0.75938802  1
  V  V50  1  0.00790233  0.49928857  0.49905637  1
  V  V51  1  -0.00169969  0.12624674  0.62615700  1
  V  V52  1  0.25066129  0.25113128  0.49831333  1
  V  V53  1  0.61866578  0.25747531  0.37794270  1
  V  V54  1  0.49207831  0.74440003  0.74887353  1
  V  V55  1  0.37494332  0.25066659  0.62320786  1
  V  V56  1  -0.00148584  0.25833144  0.75720228  1
  V  V57  1  0.00181667  0.62438115  0.62506083  1
  V  V58  1  0.00113289  0.37292999  0.37347446  1
  V  V59  1  0.62573539  0.37475474  0.74663610  1
  V  V60  1  0.87755509  0.50286585  0.37587600  1
  V  V61  1  0.63190171  0.24948756  0.87622617  1
  V  V62  1  0.12418490  0.00138340  0.62583499  1
  V  V63  1  0.62649694  -0.00236283  0.12500117  1
  V  V64  1  0.49951603  0.11755630  0.62190124  1
  V  V65  1  0.88160674  0.12624061  0.23919046  1
  V  V66  1  0.11665234  0.00660525  0.12765220  1
  V  V67  1  0.26100374  0.37368914  0.12368257  1
  V  V68  1  0.87786606  0.86422622  -0.00048239  1
  V  V69  1  0.62250562  0.11515818  0.49894324  1
  V  V70  1  0.50203294  0.37605186  0.87763876  1
  V  V71  1  0.62823338  0.12562897  0.00025151  1
  V  V72  1  0.62800723  0.75462296  0.86614565  1
  V  V73  1  0.61482500  0.75173792  0.37755223  1
  V  V74  1  0.50124992  0.24936012  0.74909541  1
  V  V75  1  0.24817723  0.00155376  0.75433606  1
  V  V76  1  0.87742547  0.48705275  0.87847842  1
  V  V77  1  0.00624046  0.74925844  0.25218863  1
  V  V78  1  0.12592448  0.87602126  0.75140283  1
  V  V79  1  0.24873893  0.11305228  0.37720782  1
  V  V80  1  0.12541022  0.49919194  0.12191903  1
  V  V81  1  0.12537734  0.24852501  0.37385730  1
  V  V82  1  0.37553819  0.11914611  0.25158388  1
  V  V83  1  0.25519420  0.62812297  0.87120627  1
  V  V84  1  0.74434288  0.62515851  0.87591667  1
  Zn  Zn85  1  0.50135798  0.00053683  -0.00259067  1
  Zn  Zn86  1  0.49283570  0.25621003  0.25472605  1
  Zn  Zn87  1  -0.00473950  0.88063401  0.87370489  1
  Zn  Zn88  1  0.87523650  0.75349814  0.62307779  1
  Zn  Zn89  1  0.25690772  0.24689621  -0.00351108  1
  Zn  Zn90  1  0.24938181  0.37706433  0.62469089  1
  Zn  Zn91  1  0.39762617  0.72621544  0.13119524  1
  Zn  Zn92  1  0.12227929  0.37923179  0.75137805  1
  Zn  Zn93  1  0.75484910  0.86806234  0.12937216  1
  Zn  Zn94  1  0.37940959  0.86754022  0.00041105  1
  Zn  Zn95  1  0.24747542  -0.00376915  0.25185528  1
  Zn  Zn96  1  0.12184651  0.62270890  -0.00375527  1
  Zn  Zn97  1  0.87644024  0.37220807  0.49651199  1
  Zn  Zn98  1  0.50728381  0.49801715  0.49429719  1
  Zn  Zn99  1  0.37720710  0.37302917  -0.00101629  1
  Zn  Zn100  1  0.36511565  0.74194144  0.62321066  1
  Zn  Zn101  1  0.25520547  0.74726129  0.00245780  1
  Zn  Zn102  1  0.37321592  0.24437497  0.12366515  1
  Zn  Zn103  1  0.12495493  0.87216080  0.24954059  1
  Zn  Zn104  1  0.12788339  0.49873077  0.62642326  1
  Zn  Zn105  1  0.12535885  0.63996723  0.49952144  1
  Zn  Zn106  1  0.75564319  0.12099730  0.87963302  1
  Zn  Zn107  1  0.18856524  0.18416685  0.18612399  1
  Zn  Zn108  1  0.18795618  0.18992106  0.68925005  1
  Zn  Zn109  1  0.18920310  0.68668347  0.18625163  1
  Zn  Zn110  1  0.18564413  0.68595413  0.69037939  1
  Zn  Zn111  1  0.68962191  0.18846178  0.19055657  1
  Zn  Zn112  1  0.68859192  0.18167343  0.68719890  1
  Zn  Zn113  1  0.56476076  0.69591343  0.19377177  1
  Zn  Zn114  1  0.68401846  0.68944478  0.68652249  1
  Zn  Zn115  1  0.31345291  0.31326248  0.31098312  1
  Zn  Zn116  1  0.31283305  0.31526668  0.81330907  1
  Zn  Zn117  1  0.31680236  0.80870141  0.30684888  1
  Zn  Zn118  1  0.31298996  0.81537706  0.80992325  1
  Zn  Zn119  1  0.81581639  0.31798003  0.29557524  1
  Zn  Zn120  1  0.81144169  0.30932744  0.81180648  1
  Zn  Zn121  1  0.81482375  0.81249421  0.31336050  1
  Zn  Zn122  1  0.81366279  0.81646996  0.81475202  1
  Zn  Zn123  1  0.19249305  0.43876634  0.43564065  1
  Zn  Zn124  1  0.18842209  0.43610707  0.93732795  1
  Zn  Zn125  1  0.18605481  0.81205157  0.43444866  1
  Zn  Zn126  1  0.18531552  0.93817098  0.93879078  1
  Zn  Zn127  1  0.69384144  0.43509562  0.43196754  1
  Zn  Zn128  1  0.69138309  0.43600190  0.94200158  1
  Zn  Zn129  1  0.68816087  0.93338590  0.43998963  1
  Zn  Zn130  1  0.68957724  0.93272986  0.93804304  1
  Zn  Zn131  1  0.30995025  0.05605808  0.06580789  1
  Zn  Zn132  1  0.31172876  0.05759089  0.56257978  1
  Zn  Zn133  1  0.31287446  0.56158109  0.05103861  1
  Zn  Zn134  1  0.31583155  0.56001699  0.55889946  1
  Zn  Zn135  1  0.81156155  0.06441888  0.06166789  1
  Zn  Zn136  1  0.81178899  0.06077740  0.56620681  1
  Zn  Zn137  1  0.81220450  0.56236215  0.06165310  1
  Zn  Zn138  1  0.81514844  0.56537984  0.55948993  1
  Zn  Zn139  1  0.43973140  0.55504258  0.18578117  1
  Zn  Zn140  1  0.43674720  0.43837127  0.68564082  1
  Zn  Zn141  1  0.42090719  0.89858841  0.20602923  1
  Zn  Zn142  1  0.43511896  0.93339513  0.68679782  1
  Zn  Zn143  1  0.93933769  0.43866657  0.18792192  1
  Zn  Zn144  1  0.93508363  0.43759363  0.68566429  1
  Zn  Zn145  1  0.93757233  0.93406550  0.18385685  1
  Zn  Zn146  1  0.93533717  0.93757891  0.69112458  1
  Zn  Zn147  1  0.06043584  0.06079674  0.31454236  1
  Zn  Zn148  1  0.06261704  0.06858631  0.81650573  1
  Zn  Zn149  1  0.06552268  0.56553343  0.31047371  1
  Zn  Zn150  1  0.06303882  0.56086770  0.81568340  1
  Zn  Zn151  1  0.56360641  0.06032068  0.31179175  1
  Zn  Zn152  1  0.56418276  0.06278550  0.80905102  1
  Zn  Zn153  1  0.57336696  0.55591657  0.31322329  1
  Zn  Zn154  1  0.56397790  0.56473342  0.80590527  1
  Zn  Zn155  1  0.43795220  0.18288142  0.43865522  1
  Zn  Zn156  1  0.44011240  0.18761323  0.93857498  1
  Zn  Zn157  1  0.43509890  0.68167555  0.43794541  1
  Zn  Zn158  1  0.43693661  0.69227207  0.94060992  1
  Zn  Zn159  1  0.93742625  0.18504540  0.43273028  1
  Zn  Zn160  1  0.94154968  0.19123901  0.93963354  1
  Zn  Zn161  1  0.93717009  0.68880157  0.43885467  1
  Zn  Zn162  1  0.93567245  0.68252420  0.93802308  1
  Zn  Zn163  1  0.06763352  0.31273556  0.06023980  1
  Zn  Zn164  1  0.06439070  0.31516550  0.56565398  1
  Zn  Zn165  1  0.06229162  0.81538340  0.06317380  1
  Zn  Zn166  1  0.05676701  0.81416878  0.56691169  1
  Zn  Zn167  1  0.56077565  0.30908197  0.06083713  1
  Zn  Zn168  1  0.56293882  0.31000214  0.56051320  1
  Zn  Zn169  1  0.56740280  0.81904912  0.05241535  1
  Zn  Zn170  1  0.56743392  0.80544180  0.56030533  1
  O  O171  1  0.12401331  0.11283163  0.11804797  1
  O  O172  1  0.11793036  0.12173495  0.62246719  1
  O  O173  1  0.11836494  0.61328987  0.12392716  1
  O  O174  1  0.11163747  0.62162976  0.62562165  1
  O  O175  1  0.62167982  0.12141021  0.12065724  1
  O  O176  1  0.61842533  0.11653136  0.61768601  1
  O  O177  1  0.63191276  0.61705827  0.12569323  1
  O  O178  1  0.61699204  0.61482842  0.62804533  1
  O  O179  1  0.36984226  0.38849410  0.38037248  1
  O  O180  1  0.38749632  0.38115381  0.87448949  1
  O  O181  1  0.37135886  0.88558005  0.38840479  1
  O  O182  1  0.38137891  0.88505474  0.87528947  1
  O  O183  1  0.88296414  0.38534185  0.37303939  1
  O  O184  1  0.87113880  0.38813795  0.86748476  1
  O  O185  1  0.88429092  0.88894653  0.37010250  1
  O  O186  1  0.87641976  0.87631208  0.89227548  1
  O  O187  1  0.25276971  0.01172286  0.37623020  1
  O  O188  1  0.25605910  -0.00398598  0.86242238  1
  O  O189  1  0.25719815  0.50785754  0.36648965  1
  O  O190  1  0.26006791  0.50546238  0.87089778  1
  O  O191  1  0.75765784  0.00326885  0.37025136  1
  O  O192  1  0.74342540  0.00196266  0.86278733  1
  O  O193  1  0.76132624  0.50644088  0.36912665  1
  O  O194  1  0.75478798  0.50722711  0.87066024  1
  O  O195  1  0.24193174  0.49434927  0.12975085  1
  O  O196  1  0.25132798  0.50300654  0.63549789  1
  O  O197  1  0.23189196  0.99503599  0.12647919  1
  O  O198  1  0.24382686  0.99252051  0.63321132  1
  O  O199  1  0.74037686  0.50196870  0.12838046  1
  O  O200  1  0.74546842  0.49675378  0.62731728  1
  O  O201  1  0.74242613  1.00216216  0.13328680  1
  O  O202  1  0.74313366  0.99208064  0.63060148  1
  O  O203  1  0.00811723  0.36740281  0.25472424  1
  O  O204  1  -0.00113932  0.36142893  0.74485753  1
  O  O205  1  -0.00138294  0.86576771  0.25573430  1
  O  O206  1  0.00577638  0.86903407  0.75246331  1
  O  O207  1  0.51967868  0.37301741  0.25325016  1
  O  O208  1  0.50582452  0.36975450  0.75761390  1
  O  O209  1  0.52207776  0.89885797  0.25584138  1
  O  O210  1  0.49764092  0.86687647  0.75875231  1
  O  O211  1  0.49290011  0.12326748  0.24378365  1
  O  O212  1  0.49470793  0.13092276  0.73975223  1
  O  O213  1  0.50748611  0.61756807  0.24959474  1
  O  O214  1  0.50276350  0.63310117  0.73735867  1
  O  O215  1  0.98928719  0.13080506  0.25503406  1
  O  O216  1  0.99277535  0.13050051  0.74420647  1
  O  O217  1  0.99235690  0.63087914  0.24539234  1
  O  O218  1  0.99283142  0.62810319  0.74549897  1
  O  O219  1  0.37492315  0.25279861  0.00374253  1
  O  O220  1  0.37014846  0.25432808  0.50122452  1
  O  O221  1  0.37227117  0.75184412  0.01058160  1
  O  O222  1  0.37820189  0.76322146  0.50139513  1
  O  O223  1  0.86200356  0.24380363  -0.00076307  1
  O  O224  1  0.86895252  0.24715504  0.50468795  1
  O  O225  1  0.86654209  0.75756008  -0.00310510  1
  O  O226  1  0.86222423  0.74592281  0.50480559  1
  O  O227  1  0.12994532  0.24462528  0.49469424  1
  O  O228  1  0.12487476  0.24311041  0.98930914  1
  O  O229  1  0.11876447  0.75232009  0.49965684  1
  O  O230  1  0.12381829  0.74949278  0.98756989  1
  O  O231  1  0.62892517  0.23715570  0.49347159  1
  O  O232  1  0.63172880  0.24280237  0.99290226  1
  O  O233  1  0.63835528  0.75248226  0.48576123  1
  O  O234  1  0.64104968  0.75487714  0.98482252  1
  O  O235  1  0.49927603  0.23615860  0.12936828  1
  O  O236  1  0.49492046  0.24173836  0.63026652  1
  O  O237  1  0.50821202  0.75755293  0.12081976  1
  O  O238  1  0.50351489  0.73767172  0.63025415  1
  O  O239  1  1.00440156  0.25463436  0.13731846  1
  O  O240  1  0.99417452  0.24389658  0.63108249  1
  O  O241  1  1.00377512  0.73710775  0.13009171  1
  O  O242  1  0.99564240  0.74173940  0.63587273  1
  O  O243  1  0.00737548  0.25496688  0.36940260  1
  O  O244  1  0.01140657  0.24652060  0.86627802  1
  O  O245  1  -0.00851912  0.75935495  0.36681259  1
  O  O246  1  0.00586632  0.74892715  0.86896896  1
  O  O247  1  0.51563173  0.23687898  0.37261691  1
  O  O248  1  0.51184780  0.25665387  0.87043215  1
  O  O249  1  0.51667180  0.74266414  0.38316633  1
  O  O250  1  0.50701537  0.75522024  0.86746971  1
  O  O251  1  0.24472962  0.12997322  0.49517175  1
  O  O252  1  0.23715921  0.12592488  1.00545066  1
  O  O253  1  0.24704115  0.62125670  0.48723389  1
  O  O254  1  0.24279844  0.62542664  0.98394218  1
  O  O255  1  0.74271834  0.12865027  0.49718069  1
  O  O256  1  0.74124573  0.13269745  0.99900735  1
  O  O257  1  0.75383323  0.63149862  0.48840820  1
  O  O258  1  0.75931978  0.63855529  0.98937853  1
  O  O259  1  0.25250540  0.37300440  0.00938394  1
  O  O260  1  0.26021587  0.36725732  0.49968084  1
  O  O261  1  0.24871895  0.87337784  0.00903529  1
  O  O262  1  0.25340742  0.87461257  0.50903664  1
  O  O263  1  0.74985915  0.35703343  -0.00272673  1
  O  O264  1  0.75433253  0.36564914  0.50404338  1
  O  O265  1  0.75972938  0.86296343  -0.00006588  1
  O  O266  1  0.75036369  0.86660608  0.51000221  1
  O  O267  1  0.13172988  0.49530546  0.24184413  1
  O  O268  1  0.13534325  0.49839333  0.75198789  1
  O  O269  1  0.12022253  1.00041690  0.23703197  1
  O  O270  1  0.13067795  0.99925649  0.74711028  1
  O  O271  1  0.63547348  0.48901246  0.23421058  1
  O  O272  1  0.63299587  0.49349424  0.73966503  1
  O  O273  1  0.63866136  1.00004168  0.24573537  1
  O  O274  1  0.63678415  1.00773240  0.73786611  1
  O  O275  1  0.37340908  0.00273934  0.26686102  1
  O  O276  1  0.36766777  0.00578286  0.75596528  1
  O  O277  1  0.36748700  0.49510323  0.26182994  1
  O  O278  1  0.37079103  0.49681130  0.76200883  1
  O  O279  1  0.87315767  0.00720980  0.25551536  1
  O  O280  1  0.86450514  0.00885102  0.74637103  1
  O  O281  1  0.88345085  0.51701331  0.26421210  1
  O  O282  1  0.86973732  0.50704511  0.75506207  1
  O  O283  1  0.12224955  0.36961980  0.36873733  1
  O  O284  1  0.12465723  0.36070671  0.87368596  1
  O  O285  1  0.11079081  0.87760276  0.37039383  1
  O  O286  1  0.12263876  0.86767443  0.86859293  1
  O  O287  1  0.61697769  0.35674593  0.39126678  1
  O  O288  1  0.62199305  0.36896273  0.86755452  1
  O  O289  1  0.63130886  0.86214713  0.37029263  1
  O  O290  1  0.61796490  0.86751813  0.87386695  1
  O  O291  1  0.38314564  0.11764010  0.13492945  1
  O  O292  1  0.38240717  0.12658209  0.63141198  1
  O  O293  1  0.36429555  0.61775270  0.13068446  1
  O  O294  1  0.38936518  0.62480625  0.62206410  1
  O  O295  1  0.87553039  0.11899123  0.14077073  1
  O  O296  1  0.87899578  0.13094081  0.63409447  1
  O  O297  1  0.88261120  0.61817399  0.13852070  1
  O  O298  1  0.88430659  0.62376331  0.63615646  1
  O  O299  1  0.24995229  0.25940238  0.12439350  1
  O  O300  1  0.25792642  0.24846446  0.61595323  1
  O  O301  1  0.24112644  0.76724426  0.12309540  1
  O  O302  1  0.25046263  0.76237665  0.63561343  1
  O  O303  1  0.75150712  0.24843750  0.11689040  1
  O  O304  1  0.75428628  0.25196987  0.61829404  1
  O  O305  1  0.74472939  0.74716411  0.10765396  1
  O  O306  1  0.74797510  0.75776140  0.61856154  1
  O  O307  1  0.24535301  0.24053354  0.38064675  1
  O  O308  1  0.23675293  0.25116417  0.87423315  1
  O  O309  1  0.25383137  0.73747413  0.37038586  1
  O  O310  1  0.24355872  0.74427513  0.87256564  1
  O  O311  1  0.74073973  0.24315437  0.37990844  1
  O  O312  1  0.73914664  0.24521020  0.87458836  1
  O  O313  1  0.75079175  0.74299948  0.38065631  1
  O  O314  1  0.74437970  0.74336567  0.87443446  1
  O  O315  1  0.00723073  0.11411368  -0.00081312  1
  O  O316  1  0.00349053  0.12085004  0.50696564  1
  O  O317  1  -0.00040644  0.61756289  0.01021685  1
  O  O318  1  0.00003915  0.61787186  0.50848776  1
  O  O319  1  0.51300217  0.12316869  0.00664692  1
  O  O320  1  0.50726143  0.12653829  0.51356812  1
  O  O321  1  0.50570171  0.61277276  -0.01206813  1
  O  O322  1  0.50203539  0.62084319  0.51403273  1
  O  O323  1  0.48626518  0.37495566  0.50465728  1
  O  O324  1  0.50513912  0.38035325  0.98639906  1
  O  O325  1  0.48864462  0.87482035  0.50741348  1
  O  O326  1  0.49861350  0.88304973  0.98260720  1
  O  O327  1  0.99815335  0.38253880  0.49353823  1
  O  O328  1  0.99606675  0.38704294  1.01052848  1
  O  O329  1  0.99795370  0.88596506  0.49461006  1
  O  O330  1  0.98947628  0.88175763  0.99885208  1
  O  O331  1  0.48812436  0.50361105  0.37668449  1
  O  O332  1  0.49905739  0.49393555  0.87511498  1
  O  O333  1  0.48868012  1.00606989  0.38191614  1
  O  O334  1  0.49300245  0.99450934  0.86940351  1
  O  O335  1  0.99716289  0.49732887  0.38078276  1
  O  O336  1  0.98978482  0.50495610  0.88614427  1
  O  O337  1  0.99441676  0.99466136  0.38444309  1
  O  O338  1  1.00573490  0.99886531  0.89133099  1
  O  O339  1  0.01061972  -0.00541373  0.11195533  1
  O  O340  1  0.00143385  0.00539285  0.62084788  1
  O  O341  1  0.00571114  0.50670175  0.12193370  1
  O  O342  1  -0.00089828  0.50636591  0.61605361  1
  O  O343  1  0.51645751  0.01115721  0.12217447  1
  O  O344  1  0.50856524  0.00677416  0.63376028  1
  O  O345  1  0.51738949  0.50049320  0.11335662  1
  O  O346  1  0.50819098  0.50949861  0.62488016  1
  O  O347  1  0.24467434  0.38407682  0.24420562  1
  O  O348  1  0.25030343  0.38876202  0.75004228  1
  O  O349  1  0.24318223  0.87921147  0.23807419  1
  O  O350  1  0.24459839  0.88494772  0.74253767  1
  O  O351  1  0.72012257  0.38335479  0.28345402  1
  O  O352  1  0.74536860  0.37927138  0.74164868  1
  O  O353  1  0.74951392  0.88677315  0.24965820  1
  O  O354  1  0.75343566  0.88435834  0.74192325  1
  O  O355  1  0.25795585  0.12021542  0.25830088  1
  O  O356  1  0.26080139  0.11552783  0.74225706  1
  O  O357  1  0.24468267  0.61450905  0.25866463  1
  O  O358  1  0.24684078  0.61481500  0.76164923  1
  O  O359  1  0.76028830  0.11663070  0.25517818  1
  O  O360  1  0.75951830  0.11638984  0.75124774  1
  O  O361  1  0.76637607  0.61105163  0.25463779  1
  O  O362  1  0.75746550  0.62073949  0.75345307  1
  O  O363  1  0.36947509  0.11407478  0.37311910  1
  O  O364  1  0.38436670  0.12012950  0.85958213  1
  O  O365  1  0.36324747  0.61137525  0.37949232  1
  O  O366  1  0.36814227  0.61777144  0.87697011  1
  O  O367  1  0.87009877  0.11314924  0.36834720  1
  O  O368  1  0.87589459  0.12888676  0.86284409  1
  O  O369  1  0.86899709  0.62154243  0.36816968  1
  O  O370  1  0.86669201  0.61944372  0.86396722  1
  O  O371  1  0.13167340  0.38469416  0.12973874  1
  O  O372  1  0.13077514  0.37904794  0.63087308  1
  O  O373  1  0.13053402  0.88773975  0.12386073  1
  O  O374  1  0.12965321  0.88292486  0.63192024  1
  O  O375  1  0.62635293  0.37142290  0.13306942  1
  O  O376  1  0.63027044  0.37905671  0.62875471  1
  O  O377  1  0.63347266  0.88478035  0.13214721  1
  O  O378  1  0.63190180  0.88497908  0.61938012  1
  O  O379  1  0.11925426  0.25124405  0.25530296  1
  O  O380  1  0.11786986  0.24921158  0.76058470  1
  O  O381  1  0.11025487  0.74830695  0.24792400  1
  O  O382  1  0.11758604  0.75450268  0.75969320  1
  O  O383  1  0.62654155  0.25873172  0.26195340  1
  O  O384  1  0.62130074  0.25249631  0.75554280  1
  O  O385  1  0.63024794  0.76178289  0.26546235  1
  O  O386  1  0.61584565  0.74763041  0.76019255  1
  O  O387  1  0.37602605  0.23361543  0.25134986  1
  O  O388  1  0.37887604  0.24293265  0.74529168  1
  O  O389  1  0.38929578  0.78940874  0.22811429  1
  O  O390  1  0.38821979  0.75410974  0.74525987  1
  O  O391  1  0.88406647  0.23413377  0.25705143  1
  O  O392  1  0.88158162  0.24261121  0.74541666  1
  O  O393  1  0.88131448  0.73735139  0.25145719  1
  O  O394  1  0.88050530  0.74208344  0.75035911  1
  O  O395  1  0.37746014  0.49139772  0.48807683  1
  O  O396  1  0.38770674  0.49502138  0.98646790  1
  O  O397  1  0.37160375  0.99126417  0.48950008  1
  O  O398  1  0.37599026  1.00941029  0.98240483  1
  O  O399  1  0.88591280  0.50113558  0.48892069  1
  O  O400  1  0.88078716  0.50328646  0.99031660  1
  O  O401  1  0.88547323  1.00803962  0.49326370  1
  O  O402  1  0.88699018  0.99839004  1.00181984  1
  O  O403  1  0.11680520  0.00708603  0.00613855  1
  O  O404  1  0.10987998  0.00978515  0.51045679  1
  O  O405  1  0.11650483  0.49955872  0.00679101  1
  O  O406  1  0.11461239  0.50118410  0.49984824  1
  O  O407  1  0.62983066  0.00754553  0.00786514  1
  O  O408  1  0.63013629  0.00960176  0.50768726  1
  O  O409  1  0.62366973  0.49799572  0.01210879  1
  O  O410  1  0.62659989  0.49131052  0.51022638  1
  O  O411  1  0.36260145  0.37415754  0.12587803  1
  O  O412  1  0.37257967  0.36759058  0.61719204  1
  O  O413  1  0.35281388  0.90306871  0.11280928  1
  O  O414  1  0.36614946  0.87663602  0.61140845  1
  O  O415  1  0.83444516  0.39670489  0.19767526  1
  O  O416  1  0.86740450  0.36648862  0.62197572  1
  O  O417  1  0.87031926  0.88047239  0.10678505  1
  O  O418  1  0.86292290  0.87415891  0.62716940  1
  O  O419  1  0.13125154  0.12782237  0.38075518  1
  O  O420  1  0.12457516  0.13696407  0.88410997  1
  O  O421  1  0.14216990  0.61975742  0.37741151  1
  O  O422  1  0.13144697  0.63483285  0.87455407  1
  O  O423  1  0.63200790  0.12717990  0.38237529  1
  O  O424  1  0.62475219  0.13260398  0.88354858  1
  O  O425  1  0.64151395  0.63478155  0.36758427  1
  O  O426  1  0.63954876  0.62980833  0.86819895  1
