# generated using pymatgen
data_V85Zn86O256
_symmetry_space_group_name_H-M   'P 1'
_cell_length_a   16.93020673
_cell_length_b   16.94268776
_cell_length_c   16.94100533
_cell_angle_alpha   89.95300527
_cell_angle_beta   90.05287301
_cell_angle_gamma   90.04183282
_symmetry_Int_Tables_number   1
_chemical_formula_structural   V85Zn86O256
_chemical_formula_sum   'V85 Zn86 O256'
_cell_volume   4859.40729115
_cell_formula_units_Z   1
loop_
 _symmetry_equiv_pos_site_id
 _symmetry_equiv_pos_as_xyz
  1  'x, y, z'
loop_
 _atom_site_type_symbol
 _atom_site_label
 _atom_site_symmetry_multiplicity
 _atom_site_fract_x
 _atom_site_fract_y
 _atom_site_fract_z
 _atom_site_occupancy
  V  V0  1  0.87519474  0.25186132  0.63285742  1
  V  V1  1  0.37228114  0.25373110  0.12035960  1
  V  V2  1  0.01258100  0.25533165  0.75698492  1
  V  V3  1  0.11864584  0.36532403  0.23978738  1
  V  V4  1  0.74826658  0.25079061  0.50087326  1
  V  V5  1  -0.00026201  0.49918865  0.00731385  1
  V  V6  1  0.49831281  0.87421916  0.37459985  1
  V  V7  1  0.01302193  0.49421440  0.50262046  1
  V  V8  1  0.87612381  0.49359914  0.87789547  1
  V  V9  1  0.74882023  0.37701266  0.62734859  1
  V  V10  1  0.75659494  0.51076417  0.75130928  1
  V  V11  1  0.50368525  -0.00148538  0.50890224  1
  V  V12  1  0.49221258  0.13061504  0.62388488  1
  V  V13  1  0.50180341  0.75075883  0.75158848  1
  V  V14  1  0.74762456  0.12650034  0.37290154  1
  V  V15  1  0.37777972  0.12681413  0.24584052  1
  V  V16  1  0.11744998  0.13034641  -0.00489690  1
  V  V17  1  0.12505428  0.62081273  0.00284218  1
  V  V18  1  0.50172582  0.87652317  0.87387265  1
  V  V19  1  0.75198781  0.00099156  0.24785238  1
  V  V20  1  0.12502905  -0.00350189  0.12497463  1
  V  V21  1  0.00369623  0.87671206  0.86481818  1
  V  V22  1  0.24038227  0.62187123  0.37522017  1
  V  V23  1  0.37640394  0.36760176  0.51103116  1
  V  V24  1  0.49814088  0.74743282  0.24839998  1
  V  V25  1  0.63043804  0.62304192  0.49483051  1
  V  V26  1  0.37631272  0.75010821  0.62760026  1
  V  V27  1  0.86563416  0.00025943  0.86910817  1
  V  V28  1  0.87519875  0.37540053  0.49730326  1
  V  V29  1  0.23382131  0.37147274  0.62712670  1
  V  V30  1  0.12589008  0.75307831  0.86613309  1
  V  V31  1  0.75591978  0.50109544  0.24852240  1
  V  V32  1  0.37380853  0.49695008  0.37373946  1
  V  V33  1  0.25330086  0.61872685  0.87195134  1
  V  V34  1  0.62588561  0.01176220  0.11905078  1
  V  V35  1  0.23931899  -0.00361626  0.75139789  1
  V  V36  1  0.74768432  0.86571018  0.11964078  1
  V  V37  1  0.24212082  0.49561140  0.24217392  1
  V  V38  1  0.24563881  0.13210750  0.87216072  1
  V  V39  1  0.50112360  0.49937873  0.49862677  1
  V  V40  1  0.37274108  0.38827636  -0.00583621  1
  V  V41  1  0.61158626  0.62139731  0.00608833  1
  V  V42  1  0.50199832  0.37183336  0.36955660  1
  V  V43  1  0.23714269  0.87206549  0.62852044  1
  V  V44  1  0.62700800  0.88834788  0.74920519  1
  V  V45  1  0.62612446  0.37461684  0.75355066  1
  V  V46  1  0.50287926  0.01363234  -0.00376236  1
  V  V47  1  0.25122457  0.87508195  0.12429388  1
  V  V48  1  0.25199795  0.74980663  -0.00561153  1
  V  V49  1  0.23453730  0.49656242  0.74473725  1
  V  V50  1  0.49414327  0.25275753  0.74827299  1
  V  V51  1  0.88334621  0.13565702  0.25123534  1
  V  V52  1  0.87189781  0.86527236  -0.00280928  1
  V  V53  1  0.25018839  0.12733568  0.37706449  1
  V  V54  1  0.62335407  0.87651662  0.24700097  1
  V  V55  1  0.37717387  0.61351796  0.75117349  1
  V  V56  1  -0.00622857  0.74804510  0.74491624  1
  V  V57  1  0.62754446  0.50095578  0.62549980  1
  V  V58  1  -0.00230804  -0.00002413  0.50411512  1
  V  V59  1  0.25021098  0.74466992  0.49990124  1
  V  V60  1  0.37803449  0.87626622  -0.00353405  1
  V  V61  1  0.61622106  0.49496740  0.12362922  1
  V  V62  1  0.82294448  0.31908229  0.06353041  1
  V  V63  1  0.01555571  0.37577073  0.87091169  1
  V  V64  1  0.37343667  0.00367398  0.87174064  1
  V  V65  1  0.63248314  0.74900544  0.88044093  1
  V  V66  1  0.23989008  0.25380509  -0.00398569  1
  V  V67  1  0.75778578  0.62572347  0.88931360  1
  V  V68  1  0.37600115  -0.00260918  0.37279566  1
  V  V69  1  0.86507880  0.12691177  0.75456370  1
  V  V70  1  0.49585321  0.38930252  0.87751144  1
  V  V71  1  0.62625901  0.12251255  0.50741568  1
  V  V72  1  0.50115990  0.62518294  0.62463103  1
  V  V73  1  -0.00270857  -0.00212224  -0.00044065  1
  V  V74  1  0.37512884  0.87294173  0.50042381  1
  V  V75  1  -0.00030468  0.63077185  0.13565923  1
  V  V76  1  0.37935101  0.61978617  0.24525142  1
  V  V77  1  0.63000433  0.74622391  0.37183685  1
  V  V78  1  0.00131840  0.36519853  0.37263694  1
  V  V79  1  -0.00136671  0.12928878  0.13420013  1
  V  V80  1  0.75072883  0.74946354  0.50485753  1
  V  V81  1  0.62625315  0.24808801  0.88945382  1
  V  V82  1  0.38271576  0.74507692  0.12115912  1
  V  V83  1  0.74757050  0.88867384  0.62986510  1
  V  V84  1  -0.00085058  0.61385409  0.63113559  1
  Zn  Zn85  1  0.87069662  0.50511977  0.37802006  1
  Zn  Zn86  1  0.50339766  0.25163840  0.24447496  1
  Zn  Zn87  1  0.62291521  0.24873336  0.36943498  1
  Zn  Zn88  1  0.11964709  -0.00034500  0.62886129  1
  Zn  Zn89  1  0.12564079  0.12345363  0.50354923  1
  Zn  Zn90  1  -0.00683243  0.85997145  0.36550029  1
  Zn  Zn91  1  0.73947885  0.12499192  0.88738665  1
  Zn  Zn92  1  0.87259912  -0.00308384  0.37857549  1
  Zn  Zn93  1  0.36976609  0.13027076  0.74398801  1
  Zn  Zn94  1  0.50403737  0.13175956  0.11950831  1
  Zn  Zn95  1  0.11984565  0.24100050  0.37339803  1
  Zn  Zn96  1  0.25051297  0.24376774  0.50844717  1
  Zn  Zn97  1  0.88146274  0.75153696  0.12919259  1
  Zn  Zn98  1  0.87201017  0.87620629  0.50165017  1
  Zn  Zn99  1  0.25124698  0.00109040  0.24849837  1
  Zn  Zn100  1  0.86244200  0.63794766  0.26792953  1
  Zn  Zn101  1  0.00520346  0.12840505  0.62962798  1
  Zn  Zn102  1  0.10773816  0.84330055  0.25480861  1
  Zn  Zn103  1  0.63300627  0.36965455  0.24039254  1
  Zn  Zn104  1  0.24087372  0.37906026  0.11828477  1
  Zn  Zn105  1  0.12623558  0.62005712  0.50500731  1
  Zn  Zn106  1  0.86986776  0.74475081  0.63112076  1
  Zn  Zn107  1  0.18710356  0.18668560  0.18512423  1
  Zn  Zn108  1  0.18760823  0.18845606  0.68545234  1
  Zn  Zn109  1  0.18905752  0.68286496  0.18313095  1
  Zn  Zn110  1  0.18230606  0.68502062  0.68526603  1
  Zn  Zn111  1  0.69479868  0.19554436  0.18163481  1
  Zn  Zn112  1  0.68373001  0.18801744  0.69107610  1
  Zn  Zn113  1  0.69047779  0.68333828  0.18633347  1
  Zn  Zn114  1  0.68609645  0.68971330  0.69095870  1
  Zn  Zn115  1  0.31099639  0.31178472  0.31033139  1
  Zn  Zn116  1  0.31065769  0.31566101  0.81106365  1
  Zn  Zn117  1  0.28325600  0.79544169  0.29751776  1
  Zn  Zn118  1  0.31347832  0.81250468  0.80869650  1
  Zn  Zn119  1  0.81079164  0.31544953  0.30801108  1
  Zn  Zn120  1  0.81161116  0.31717310  0.81951796  1
  Zn  Zn121  1  0.81453634  0.81448219  0.31307578  1
  Zn  Zn122  1  0.81149286  0.81223341  0.81127901  1
  Zn  Zn123  1  0.18831426  0.42869657  0.43339431  1
  Zn  Zn124  1  0.18734098  0.44123685  0.93322136  1
  Zn  Zn125  1  0.18430534  0.93261032  0.43976782  1
  Zn  Zn126  1  0.18570638  0.93870754  0.93683855  1
  Zn  Zn127  1  0.68987767  0.43821960  0.43075411  1
  Zn  Zn128  1  0.68946766  0.43499740  0.94435254  1
  Zn  Zn129  1  0.68640620  0.93668842  0.43783569  1
  Zn  Zn130  1  0.68707478  0.93849305  0.93821436  1
  Zn  Zn131  1  0.31203653  0.06592673  0.05747395  1
  Zn  Zn132  1  0.31164388  0.05720501  0.56304722  1
  Zn  Zn133  1  0.31130028  0.56354357  0.06347350  1
  Zn  Zn134  1  0.31286647  0.55647606  0.56454911  1
  Zn  Zn135  1  0.81253071  0.06091422  0.06503197  1
  Zn  Zn136  1  0.81480593  0.06567439  0.56633355  1
  Zn  Zn137  1  0.81434512  0.55379599  0.06757629  1
  Zn  Zn138  1  0.81789578  0.56459807  0.56139438  1
  Zn  Zn139  1  0.43810930  0.43641734  0.18248789  1
  Zn  Zn140  1  0.43942343  0.43804305  0.68915836  1
  Zn  Zn141  1  0.43837186  0.93817563  0.18359529  1
  Zn  Zn142  1  0.43310185  0.93948161  0.68836680  1
  Zn  Zn143  1  0.94085695  0.44342020  0.18913890  1
  Zn  Zn144  1  0.93620156  0.43715580  0.69085577  1
  Zn  Zn145  1  0.93568416  0.93442311  0.18835372  1
  Zn  Zn146  1  0.93392695  0.93802970  0.68399433  1
  Zn  Zn147  1  0.08022399  0.02288257  0.32912944  1
  Zn  Zn148  1  0.05636484  0.06800565  0.81162810  1
  Zn  Zn149  1  0.06025171  0.55216455  0.31573232  1
  Zn  Zn150  1  0.06156629  0.56499921  0.81391473  1
  Zn  Zn151  1  0.56217780  0.06464597  0.31231084  1
  Zn  Zn152  1  0.56164217  0.06900336  0.81192157  1
  Zn  Zn153  1  0.56511275  0.55979406  0.30811123  1
  Zn  Zn154  1  0.56927415  0.56459877  0.81383227  1
  Zn  Zn155  1  0.43638373  0.18771582  0.43610987  1
  Zn  Zn156  1  0.43231598  0.19689188  0.93218780  1
  Zn  Zn157  1  0.43657747  0.68497016  0.43496223  1
  Zn  Zn158  1  0.43872833  0.68525782  0.93348361  1
  Zn  Zn159  1  0.93588961  0.18258955  0.43981267  1
  Zn  Zn160  1  0.89586772  0.17484958  0.96259560  1
  Zn  Zn161  1  0.94500740  0.68629229  0.43382333  1
  Zn  Zn162  1  0.93881720  0.68442104  0.93521350  1
  Zn  Zn163  1  0.02501919  0.29876136  0.04860888  1
  Zn  Zn164  1  0.06264838  0.30299891  0.55854287  1
  Zn  Zn165  1  0.06407791  0.81004824  0.05685550  1
  Zn  Zn166  1  0.04971107  0.79825184  0.53868283  1
  Zn  Zn167  1  0.55649461  0.31843785  0.05907796  1
  Zn  Zn168  1  0.56304886  0.31064179  0.56172498  1
  Zn  Zn169  1  0.56414365  0.81459233  0.05909819  1
  Zn  Zn170  1  0.56675799  0.81315289  0.56431548  1
  O  O171  1  0.12300939  0.11615382  0.11145659  1
  O  O172  1  0.12432522  0.12026249  0.62347860  1
  O  O173  1  0.11793482  0.62881820  0.11328704  1
  O  O174  1  0.10729341  0.62605001  0.62281096  1
  O  O175  1  0.62544692  0.11518454  0.12727526  1
  O  O176  1  0.61671287  0.12771969  0.61350003  1
  O  O177  1  0.62454343  0.62287249  0.10994013  1
  O  O178  1  0.61866561  0.62016242  0.61902855  1
  O  O179  1  0.37957911  0.38266893  0.38102549  1
  O  O180  1  0.38379057  0.37122578  0.88119070  1
  O  O181  1  0.38011347  0.88158018  0.38048175  1
  O  O182  1  0.38090317  0.88170734  0.87743805  1
  O  O183  1  0.88013320  0.37559495  0.38346354  1
  O  O184  1  0.88647344  0.38903776  0.87059078  1
  O  O185  1  0.87403743  0.87950084  0.38358202  1
  O  O186  1  0.88072697  0.88162183  0.87831222  1
  O  O187  1  0.26534819  0.00633068  0.37496025  1
  O  O188  1  0.25334513  0.00781369  0.87036194  1
  O  O189  1  0.25790938  0.50176279  0.36842050  1
  O  O190  1  0.24907722  0.50723740  0.85833710  1
  O  O191  1  0.74589383  0.01048140  0.36677206  1
  O  O192  1  0.76227407  0.00283911  0.87835319  1
  O  O193  1  0.75015829  0.49976011  0.35901888  1
  O  O194  1  0.75694474  0.50565771  0.87147638  1
  O  O195  1  0.25048268  0.49853008  0.13791465  1
  O  O196  1  0.25254246  0.48951432  0.63635666  1
  O  O197  1  0.24263684  0.99109433  0.11329869  1
  O  O198  1  0.24930026  0.98942997  0.63433794  1
  O  O199  1  0.73651567  0.50594649  0.13637675  1
  O  O200  1  0.74738418  0.49830936  0.63287589  1
  O  O201  1  0.74237193  0.99449953  0.12961822  1
  O  O202  1  0.74804275  0.98754179  0.62311046  1
  O  O203  1  0.01136170  0.38049323  0.25726837  1
  O  O204  1  -0.00229981  0.36639292  0.75767791  1
  O  O205  1  0.00007873  0.87086663  0.25090006  1
  O  O206  1  -0.00271235  0.86896681  0.75960880  1
  O  O207  1  0.49957928  0.37363817  0.25856103  1
  O  O208  1  0.50534115  0.37061789  0.75554176  1
  O  O209  1  0.50397825  0.86877074  0.25340192  1
  O  O210  1  0.50542521  0.87116493  0.75465819  1
  O  O211  1  0.48855475  0.12751420  0.24595953  1
  O  O212  1  0.49852206  0.13382363  0.74023379  1
  O  O213  1  0.48590055  0.63004224  0.25655526  1
  O  O214  1  0.49418327  0.62883631  0.74737490  1
  O  O215  1  0.98627982  0.11215081  0.24972189  1
  O  O216  1  0.99055796  0.14294124  0.75207270  1
  O  O217  1  1.00777131  0.61811096  0.23610120  1
  O  O218  1  1.00256812  0.63071803  0.73993282  1
  O  O219  1  0.36001953  0.25689843  0.00316502  1
  O  O220  1  0.37264032  0.26510356  0.49615592  1
  O  O221  1  0.37339234  0.75330538  0.00285696  1
  O  O222  1  0.37296046  0.75170843  0.51014229  1
  O  O223  1  0.90749158  0.27117861  0.01751426  1
  O  O224  1  0.86950332  0.25823659  0.51006640  1
  O  O225  1  0.88105362  0.76272518  -0.00016114  1
  O  O226  1  0.85507138  0.74982164  0.50273247  1
  O  O227  1  0.13204810  0.24290012  0.49255586  1
  O  O228  1  0.13023842  0.24352264  1.00349887  1
  O  O229  1  0.14863623  0.74227213  0.50912398  1
  O  O230  1  0.13131616  0.74042914  0.98733785  1
  O  O231  1  0.63201499  0.24181829  0.49705794  1
  O  O232  1  0.61882861  0.25228309  0.98829128  1
  O  O233  1  0.62863399  0.74190665  0.49362681  1
  O  O234  1  0.61949719  0.73944187  0.98882887  1
  O  O235  1  0.48540715  0.24969160  0.12083179  1
  O  O236  1  0.50322739  0.24221457  0.63290354  1
  O  O237  1  0.48902647  0.75594519  0.12846665  1
  O  O238  1  0.49719860  0.74451955  0.63125024  1
  O  O239  1  1.01358836  0.22775219  0.13630394  1
  O  O240  1  0.99113874  0.25382375  0.63874063  1
  O  O241  1  1.00327263  0.73537306  0.12049685  1
  O  O242  1  0.99730690  0.74200377  0.63134981  1
  O  O243  1  -0.00269776  0.26103539  0.38089023  1
  O  O244  1  -0.00189141  0.26837247  0.86517419  1
  O  O245  1  0.01484908  0.76974681  0.43078364  1
  O  O246  1  0.00740790  0.75524810  0.86851825  1
  O  O247  1  0.49895941  0.25915086  0.37153144  1
  O  O248  1  0.50912902  0.25834168  0.86742335  1
  O  O249  1  0.50614774  0.75556891  0.36994476  1
  O  O250  1  0.50698695  0.75678576  0.86971311  1
  O  O251  1  0.25464006  0.12460865  0.49108034  1
  O  O252  1  0.23973535  0.13318064  0.99141710  1
  O  O253  1  0.25237943  0.62519609  0.49412611  1
  O  O254  1  0.24597053  0.62855757  0.99027741  1
  O  O255  1  0.74330346  0.12840458  0.49476102  1
  O  O256  1  0.78866326  0.13655616  0.98912521  1
  O  O257  1  0.73659852  0.63067028  0.50651727  1
  O  O258  1  0.74254677  0.62039152  0.99132323  1
  O  O259  1  0.24965806  0.36867280  -0.00277832  1
  O  O260  1  0.25938814  0.37740161  0.51341372  1
  O  O261  1  0.25705241  0.86961106  0.00298182  1
  O  O262  1  0.25667507  0.86587946  0.50466104  1
  O  O263  1  0.76600118  0.36986787  -0.00488580  1
  O  O264  1  0.75522459  0.37086165  0.50501016  1
  O  O265  1  0.75951586  0.88098154  0.00702126  1
  O  O266  1  0.74214272  0.86776375  0.51420583  1
  O  O267  1  0.13420252  0.48412891  0.25615036  1
  O  O268  1  0.13651944  0.50451127  0.74729199  1
  O  O269  1  0.13329176  1.01100962  0.22724323  1
  O  O270  1  0.13580261  1.00255699  0.75362471  1
  O  O271  1  0.62985866  0.49775130  0.23799558  1
  O  O272  1  0.63251739  0.49396917  0.74456586  1
  O  O273  1  0.63188304  0.99800369  0.24217265  1
  O  O274  1  0.62086494  0.98736765  0.75820235  1
  O  O275  1  0.37842676  0.00788834  0.25610603  1
  O  O276  1  0.36470643  0.00412358  0.75765355  1
  O  O277  1  0.36942086  0.50215069  0.25495309  1
  O  O278  1  0.36973879  0.51144927  0.74582961  1
  O  O279  1  0.85932426  0.00343619  0.25047647  1
  O  O280  1  0.88016459  0.01176500  0.75865381  1
  O  O281  1  0.86473028  0.50692190  0.24972758  1
  O  O282  1  0.86418145  0.49883392  0.75795503  1
  O  O283  1  0.11717831  0.36801423  0.36652336  1
  O  O284  1  0.11433209  0.38190579  0.86551459  1
  O  O285  1  0.11634814  0.90967039  0.35440445  1
  O  O286  1  0.11585839  0.86533769  0.88072839  1
  O  O287  1  0.61017368  0.37307736  0.37773125  1
  O  O288  1  0.61621645  0.37080158  0.87300905  1
  O  O289  1  0.61732959  0.86882882  0.36720348  1
  O  O290  1  0.62302647  0.86682848  0.87086269  1
  O  O291  1  0.37440229  0.13287408  0.12953822  1
  O  O292  1  0.38776866  0.12181300  0.62377466  1
  O  O293  1  0.37159012  0.63260848  0.13255080  1
  O  O294  1  0.38155919  0.62888330  0.63183137  1
  O  O295  1  0.88498658  0.11609035  0.14205139  1
  O  O296  1  0.87207615  0.14036908  0.63499356  1
  O  O297  1  0.89298753  0.62687099  0.12158039  1
  O  O298  1  0.89184458  0.62786110  0.62214129  1
  O  O299  1  0.25630753  0.25158605  0.11367894  1
  O  O300  1  0.25268852  0.26714170  0.62921432  1
  O  O301  1  0.26309250  0.75629711  0.11227142  1
  O  O302  1  0.25888202  0.75368390  0.62442921  1
  O  O303  1  0.76513493  0.25631587  0.11896302  1
  O  O304  1  0.75428964  0.25701841  0.62231876  1
  O  O305  1  0.74175757  0.76438123  0.12147901  1
  O  O306  1  0.74750226  0.75454496  0.61948644  1
  O  O307  1  0.25523031  0.23480990  0.37563327  1
  O  O308  1  0.25003500  0.24040276  0.87893106  1
  O  O309  1  0.27117962  0.73066477  0.39060392  1
  O  O310  1  0.24444377  0.74461511  0.87550490  1
  O  O311  1  0.74971164  0.23906069  0.38056116  1
  O  O312  1  0.72879062  0.25522086  0.86913632  1
  O  O313  1  0.73347983  0.75839576  0.38514210  1
  O  O314  1  0.74277760  0.74003095  0.87103037  1
  O  O315  1  0.00117811  0.11661161  0.00864096  1
  O  O316  1  -0.00206528  0.11574717  0.50831039  1
  O  O317  1  0.00963301  0.61866792  0.00240971  1
  O  O318  1  0.00418037  0.60844668  0.51126934  1
  O  O319  1  0.49146093  0.11611482  -0.00273705  1
  O  O320  1  0.50542306  0.11989728  0.50497528  1
  O  O321  1  0.51309824  0.62097685  -0.00807432  1
  O  O322  1  0.50828401  0.61899976  0.50425760  1
  O  O323  1  0.49107680  0.37899630  0.49476500  1
  O  O324  1  0.48634490  0.37526809  0.98804546  1
  O  O325  1  0.49762403  0.88144843  0.49682926  1
  O  O326  1  0.49620898  0.88474213  0.99118622  1
  O  O327  1  0.99253148  0.37650185  0.49751615  1
  O  O328  1  1.01375619  0.39001923  0.98354650  1
  O  O329  1  0.99026568  0.89653370  0.52250688  1
  O  O330  1  0.99483706  0.88049080  0.99024578  1
  O  O331  1  0.49342858  0.49244302  0.37927764  1
  O  O332  1  0.50224787  0.48823641  0.86643750  1
  O  O333  1  0.49172257  0.99648734  0.38202394  1
  O  O334  1  0.49433156  0.99794442  0.87915218  1
  O  O335  1  0.99727731  0.48467216  0.38693645  1
  O  O336  1  0.99532295  0.49422503  0.87711916  1
  O  O337  1  0.99004270  1.00265967  0.39621219  1
  O  O338  1  0.99604422  0.99194717  0.88025469  1
  O  O339  1  0.00686951  0.00192516  0.11606425  1
  O  O340  1  -0.00094811  0.00939890  0.62375428  1
  O  O341  1  0.00177896  0.51107191  0.11302945  1
  O  O342  1  -0.00370254  0.50592790  0.62129228  1
  O  O343  1  0.50792728  0.00300454  0.11373158  1
  O  O344  1  0.49648833  0.00558123  0.61388680  1
  O  O345  1  0.51605924  0.50477749  0.13074003  1
  O  O346  1  0.50708106  0.50502046  0.61868658  1
  O  O347  1  0.23998152  0.38001773  0.24746374  1
  O  O348  1  0.25325831  0.38674444  0.73923420  1
  O  O349  1  0.26825444  0.88640022  0.22747019  1
  O  O350  1  0.25371621  0.88358159  0.74132383  1
  O  O351  1  0.74690029  0.39040115  0.25247334  1
  O  O352  1  0.74389449  0.38513659  0.74631190  1
  O  O353  1  0.74106587  0.88457207  0.24153422  1
  O  O354  1  0.74114907  0.87173781  0.73940991  1
  O  O355  1  0.26291058  0.12218178  0.25445042  1
  O  O356  1  0.25061764  0.11971231  0.75770097  1
  O  O357  1  0.26076428  0.61301648  0.25756640  1
  O  O358  1  0.25521253  0.61544535  0.75151425  1
  O  O359  1  0.75595994  0.12025402  0.25590788  1
  O  O360  1  0.76136544  0.13210949  0.75834925  1
  O  O361  1  0.74608147  0.60994611  0.25030229  1
  O  O362  1  0.73979611  0.61427417  0.76155423  1
  O  O363  1  0.37350676  0.11716411  0.36652971  1
  O  O364  1  0.36278404  0.12044469  0.87411754  1
  O  O365  1  0.37174388  0.60956410  0.36966090  1
  O  O366  1  0.36167922  0.63177242  0.86548236  1
  O  O367  1  0.86519039  0.12115198  0.36630849  1
  O  O368  1  0.88544210  0.11360900  0.86561976  1
  O  O369  1  0.88361146  0.61799625  0.37734520  1
  O  O370  1  0.86702384  0.61500262  0.87780247  1
  O  O371  1  0.12008584  0.36793852  0.13883330  1
  O  O372  1  0.13569230  0.37281384  0.62154847  1
  O  O373  1  0.13504141  0.87845883  0.12209354  1
  O  O374  1  0.13698254  0.87177985  0.61908097  1
  O  O375  1  0.62103835  0.38991595  0.12069026  1
  O  O376  1  0.62987866  0.38202361  0.62999125  1
  O  O377  1  0.62904066  0.88530464  0.12782123  1
  O  O378  1  0.63470336  0.87120271  0.63695848  1
  O  O379  1  0.13199248  0.26151431  0.25475276  1
  O  O380  1  0.11067547  0.24819504  0.75129378  1
  O  O381  1  0.17684332  0.75800672  0.26192746  1
  O  O382  1  0.11641170  0.74624488  0.76091153  1
  O  O383  1  0.62261280  0.25285207  0.24960542  1
  O  O384  1  0.61396540  0.25977128  0.75288653  1
  O  O385  1  0.61864483  0.75211644  0.25549056  1
  O  O386  1  0.61816723  0.75440340  0.76264310  1
  O  O387  1  0.37456363  0.24443151  0.23789756  1
  O  O388  1  0.38921711  0.24955336  0.75544856  1
  O  O389  1  0.37656308  0.73982044  0.24009717  1
  O  O390  1  0.38162217  0.74057243  0.74442514  1
  O  O391  1  0.87502895  0.23430896  0.25474828  1
  O  O392  1  0.87796843  0.24850578  0.74726394  1
  O  O393  1  0.85969109  0.74632719  0.23993677  1
  O  O394  1  0.88968931  0.75092286  0.75308443  1
  O  O395  1  0.38058560  0.49149349  0.49170852  1
  O  O396  1  0.36438083  0.48768938  0.99902904  1
  O  O397  1  0.38382154  0.99330450  0.49243166  1
  O  O398  1  0.38162437  0.99605549  0.99129713  1
  O  O399  1  0.87926652  0.48409210  0.50347965  1
  O  O400  1  0.88868333  0.50564843  0.99151952  1
  O  O401  1  0.88075846  1.00107354  0.50223345  1
  O  O402  1  0.88676380  0.98993090  0.99320835  1
  O  O403  1  0.11362871  0.00432196  0.00425568  1
  O  O404  1  0.11179777  0.00172725  0.50527595  1
  O  O405  1  0.11957423  0.51443953  -0.00832692  1
  O  O406  1  0.11580925  0.49328960  0.49868097  1
  O  O407  1  0.61552042  -0.00080885  0.00595908  1
  O  O408  1  0.61374627  0.00863334  0.49404035  1
  O  O409  1  0.62878310  0.51059091  0.01060985  1
  O  O410  1  0.62225365  0.50647199  0.50316994  1
  O  O411  1  0.36952520  0.36899777  0.11480882  1
  O  O412  1  0.37542885  0.38028711  0.61221810  1
  O  O413  1  0.37292611  0.86907214  0.11308379  1
  O  O414  1  0.36977701  0.86832837  0.61872332  1
  O  O415  1  0.87100010  0.38492016  0.12342067  1
  O  O416  1  0.86852120  0.36666400  0.62160680  1
  O  O417  1  0.86495523  0.87545918  0.11382801  1
  O  O418  1  0.85732014  0.86919078  0.62699175  1
  O  O419  1  0.13859833  0.11798261  0.37383350  1
  O  O420  1  0.12919436  0.11982819  0.88790998  1
  O  O421  1  0.13768036  0.61629112  0.37883217  1
  O  O422  1  0.13648068  0.63204935  0.87811591  1
  O  O423  1  0.63108280  0.12659725  0.38454131  1
  O  O424  1  0.62364704  0.14186133  0.87372079  1
  O  O425  1  0.61646854  0.63357231  0.38407180  1
  O  O426  1  0.63278994  0.63053815  0.88506871  1
