# generated using pymatgen
data_V85Zn86O256
_symmetry_space_group_name_H-M   'P 1'
_cell_length_a   16.94526700
_cell_length_b   16.93165352
_cell_length_c   16.93164791
_cell_angle_alpha   89.96736604
_cell_angle_beta   90.02070071
_cell_angle_gamma   89.96301438
_symmetry_Int_Tables_number   1
_chemical_formula_structural   V85Zn86O256
_chemical_formula_sum   'V85 Zn86 O256'
_cell_volume   4857.88051457
_cell_formula_units_Z   1
loop_
 _symmetry_equiv_pos_site_id
 _symmetry_equiv_pos_as_xyz
  1  'x, y, z'
loop_
 _atom_site_type_symbol
 _atom_site_label
 _atom_site_symmetry_multiplicity
 _atom_site_fract_x
 _atom_site_fract_y
 _atom_site_fract_z
 _atom_site_occupancy
  V  V0  1  0.62249604  0.50039548  0.12662877  1
  V  V1  1  0.50055556  0.75156662  0.24732693  1
  V  V2  1  0.00191304  0.62576487  0.62537861  1
  V  V3  1  0.63322414  0.24502846  0.37670059  1
  V  V4  1  0.44050362  0.68133438  0.06667488  1
  V  V5  1  0.50854498  0.11832430  0.62972502  1
  V  V6  1  0.37442827  0.86673850  0.50651552  1
  V  V7  1  0.74927625  0.36481301  0.12021710  1
  V  V8  1  0.49107429  0.49884675  0.50378203  1
  V  V9  1  0.31666829  0.06547282  0.70242513  1
  V  V10  1  0.62137936  0.87224506  0.74964413  1
  V  V11  1  0.74156308  0.00471884  0.25735958  1
  V  V12  1  0.12630088  0.12375954  0.50036111  1
  V  V13  1  0.87718664  0.87712021  0.50084726  1
  V  V14  1  0.12729612  0.49951492  0.62525850  1
  V  V15  1  0.00388165  0.87562988  0.37212435  1
  V  V16  1  0.74485234  0.87946393  0.62566149  1
  V  V17  1  0.25077819  0.50036606  0.24857964  1
  V  V18  1  0.24998622  0.12627552  0.87403732  1
  V  V19  1  0.50766354  -0.00364081  0.50216147  1
  V  V20  1  0.88260618  0.49880056  0.88032861  1
  V  V21  1  0.87314842  0.01204612  0.37082373  1
  V  V22  1  0.25146358  0.36632367  0.12701388  1
  V  V23  1  0.25312058  0.62721010  0.37368021  1
  V  V24  1  -0.01006117  0.23686446  0.24339090  1
  V  V25  1  0.12252435  0.37291537  0.24886687  1
  V  V26  1  0.26164465  0.87008686  0.11559541  1
  V  V27  1  0.49534196  0.63348896  0.63702244  1
  V  V28  1  0.12809129  0.62767382  0.49962838  1
  V  V29  1  0.12392899  0.24889813  0.37393393  1
  V  V30  1  0.62117948  -0.00649742  0.12714343  1
  V  V31  1  0.37618915  0.36797100  0.00372091  1
  V  V32  1  0.26061270  0.25332514  0.49636370  1
  V  V33  1  0.74736420  0.74530334  0.49732252  1
  V  V34  1  0.75382728  0.49919227  0.74684025  1
  V  V35  1  0.13453675  0.88214467  0.74591269  1
  V  V36  1  0.62658303  0.50145312  0.62350095  1
  V  V37  1  0.87573828  0.75404871  0.62741594  1
  V  V38  1  -0.00414529  0.37574054  0.37266273  1
  V  V39  1  0.24660121  -0.01015689  0.24945702  1
  V  V40  1  0.12693595  0.37210297  0.75601958  1
  V  V41  1  0.49915029  0.49912185  0.00325263  1
  V  V42  1  0.11917740  -0.00782862  0.12376384  1
  V  V43  1  0.37805996  -0.00383071  0.37165712  1
  V  V44  1  0.36909837  -0.00103716  0.88858091  1
  V  V45  1  0.75385293  0.50843445  0.25661298  1
  V  V46  1  0.49606168  0.87406262  0.88168309  1
  V  V47  1  0.63217049  0.12075913  0.49953682  1
  V  V48  1  0.25930466  0.37765905  0.61958471  1
  V  V49  1  0.49676220  0.37378111  0.38178968  1
  V  V50  1  0.62523406  0.37219657  0.25163390  1
  V  V51  1  0.87535721  0.62472560  0.74914837  1
  V  V52  1  -0.01305885  0.62493670  0.12776546  1
  V  V53  1  -0.01590214  0.74719485  0.24732637  1
  V  V54  1  0.00209213  0.49832371  0.49839798  1
  V  V55  1  0.75424772  0.36471386  0.62550825  1
  V  V56  1  0.49263156  0.24630232  0.75120383  1
  V  V57  1  0.12713881  0.75312454  0.36558565  1
  V  V58  1  0.12482828  0.75273034  0.88079697  1
  V  V59  1  0.11822580  0.62344806  0.00142503  1
  V  V60  1  -0.00078450  0.75351673  0.75179409  1
  V  V61  1  0.87740084  0.00245348  0.88055078  1
  V  V62  1  0.25261880  0.50243315  0.75064652  1
  V  V63  1  0.12038591  0.12311710  0.00168829  1
  V  V64  1  0.62488126  0.25041924  0.88303719  1
  V  V65  1  -0.00154015  0.12731116  0.62508543  1
  V  V66  1  0.62274183  0.74985718  0.87350991  1
  V  V67  1  0.62463906  0.37247258  0.75101610  1
  V  V68  1  0.11805838  0.49938111  0.12166933  1
  V  V69  1  0.87615416  0.36788689  0.50507207  1
  V  V70  1  0.63144738  0.74848414  0.36488918  1
  V  V71  1  0.25380849  0.62697035  0.87394702  1
  V  V72  1  0.62739482  0.62603764  0.00426805  1
  V  V73  1  0.74475552  0.00072560  0.75055931  1
  V  V74  1  0.75637948  0.75066742  0.00668021  1
  V  V75  1  0.38141628  0.62730109  0.24832284  1
  V  V76  1  0.87691253  0.87583954  0.01087450  1
  V  V77  1  0.74798459  0.12953878  0.88236914  1
  V  V78  1  0.24393915  0.25073528  -0.00400896  1
  V  V79  1  0.87946094  0.36855548  0.00162969  1
  V  V80  1  0.00212730  0.25166383  0.75380098  1
  V  V81  1  0.37519738  0.12850902  0.24189227  1
  V  V82  1  -0.00151997  0.87955676  0.88033536  1
  V  V83  1  0.37638939  0.50159932  0.87251076  1
  V  V84  1  0.87281401  0.13125526  0.74567424  1
  Zn  Zn85  1  0.24707902  0.75792976  0.50486158  1
  Zn  Zn86  1  -0.04214626  0.06341071  0.06196542  1
  Zn  Zn87  1  0.13342733  -0.00060179  0.62823791  1
  Zn  Zn88  1  0.87054827  0.23288556  0.12307888  1
  Zn  Zn89  1  0.49694243  0.25086830  0.24885660  1
  Zn  Zn90  1  0.49918055  0.13462471  0.12009829  1
  Zn  Zn91  1  0.62310269  0.62340765  0.49486075  1
  Zn  Zn92  1  0.74998739  0.86876130  0.13799403  1
  Zn  Zn93  1  0.87657018  0.51452317  0.36673663  1
  Zn  Zn94  1  0.49903205  0.37366537  0.87497409  1
  Zn  Zn95  1  0.75188587  0.62466369  0.87594718  1
  Zn  Zn96  1  0.75736206  0.24067399  0.49993902  1
  Zn  Zn97  1  0.62163122  0.12780620  0.00526775  1
  Zn  Zn98  1  0.00381151  -0.00103598  0.50254727  1
  Zn  Zn99  1  0.36143957  0.75086565  0.64955481  1
  Zn  Zn100  1  0.37784879  0.25110623  0.62292855  1
  Zn  Zn101  1  0.24955995  0.12405862  0.37038179  1
  Zn  Zn102  1  0.49876197  0.00194367  0.00381479  1
  Zn  Zn103  1  0.37516623  0.49691761  0.37738777  1
  Zn  Zn104  1  0.50610406  0.87408791  0.36994988  1
  Zn  Zn105  1  0.00832411  0.37517326  0.88294681  1
  Zn  Zn106  1  0.26267520  0.74869366  0.00444755  1
  Zn  Zn107  1  0.18512195  0.18215706  0.18686930  1
  Zn  Zn108  1  0.18277343  0.19527818  0.68147645  1
  Zn  Zn109  1  0.18573134  0.69002115  0.18740820  1
  Zn  Zn110  1  0.18780335  0.69184649  0.69103516  1
  Zn  Zn111  1  0.68711659  0.18178352  0.19128257  1
  Zn  Zn112  1  0.68226308  0.18611140  0.69077124  1
  Zn  Zn113  1  0.68841051  0.68573582  0.18604038  1
  Zn  Zn114  1  0.68842682  0.68748471  0.68551142  1
  Zn  Zn115  1  0.31297278  0.31323229  0.31418948  1
  Zn  Zn116  1  0.31181038  0.31316969  0.81416928  1
  Zn  Zn117  1  0.31637039  0.81260377  0.30984807  1
  Zn  Zn118  1  0.30986035  0.81797231  0.82002649  1
  Zn  Zn119  1  0.81195142  0.31539285  0.31229510  1
  Zn  Zn120  1  0.81385593  0.31150122  0.81501495  1
  Zn  Zn121  1  0.81141556  0.81742666  0.31582119  1
  Zn  Zn122  1  0.80977463  0.81289212  0.81833448  1
  Zn  Zn123  1  0.18803857  0.43778245  0.43554688  1
  Zn  Zn124  1  0.18753319  0.44040804  0.93980697  1
  Zn  Zn125  1  0.18998867  0.93705227  0.43811802  1
  Zn  Zn126  1  0.18815547  0.93899355  0.94107608  1
  Zn  Zn127  1  0.68644906  0.43518110  0.43890915  1
  Zn  Zn128  1  0.69229741  0.43616709  0.93689510  1
  Zn  Zn129  1  0.68749517  0.93205391  0.43292879  1
  Zn  Zn130  1  0.68884593  0.93726332  0.94162961  1
  Zn  Zn131  1  0.30549077  0.06189312  0.06486644  1
  Zn  Zn132  1  0.31645989  0.06239036  0.54112077  1
  Zn  Zn133  1  0.30376309  0.55521831  0.05806501  1
  Zn  Zn134  1  0.31476325  0.57116877  0.56437775  1
  Zn  Zn135  1  0.79533562  0.06216706  0.06827338  1
  Zn  Zn136  1  0.81485711  0.05921273  0.56460097  1
  Zn  Zn137  1  0.80777622  0.55400650  0.06203820  1
  Zn  Zn138  1  0.83149988  0.57738705  0.53034387  1
  Zn  Zn139  1  0.43832678  0.43647547  0.18874566  1
  Zn  Zn140  1  0.43904657  0.43838386  0.68954331  1
  Zn  Zn141  1  0.43688496  0.93674106  0.18627535  1
  Zn  Zn142  1  0.44353302  0.92958274  0.68661642  1
  Zn  Zn143  1  0.93514967  0.43564989  0.18596587  1
  Zn  Zn144  1  0.93781695  0.43577218  0.68502250  1
  Zn  Zn145  1  0.93440269  0.93529921  0.19753526  1
  Zn  Zn146  1  0.93938807  0.94370147  0.69092721  1
  Zn  Zn147  1  0.06411685  0.05936638  0.31108925  1
  Zn  Zn148  1  0.06350031  0.06356623  0.81530625  1
  Zn  Zn149  1  0.06322253  0.56429611  0.30949620  1
  Zn  Zn150  1  0.06321128  0.56216866  0.81227688  1
  Zn  Zn151  1  0.56195459  0.06295941  0.31295969  1
  Zn  Zn152  1  0.55985614  0.06111406  0.81566709  1
  Zn  Zn153  1  0.56396108  0.56512701  0.31389466  1
  Zn  Zn154  1  0.56770181  0.55798912  0.81574147  1
  Zn  Zn155  1  0.44331393  0.18260642  0.43299152  1
  Zn  Zn156  1  0.43517550  0.18445067  0.93795131  1
  Zn  Zn157  1  0.44510911  0.68434685  0.43582967  1
  Zn  Zn158  1  0.44005933  0.68570566  0.81684226  1
  Zn  Zn159  1  0.94168400  0.19018777  0.43816013  1
  Zn  Zn160  1  0.93566324  0.19429524  0.93298969  1
  Zn  Zn161  1  0.93905181  0.68960659  0.43445371  1
  Zn  Zn162  1  0.93715164  0.68713374  0.93980454  1
  Zn  Zn163  1  0.06095101  0.30910416  0.06324383  1
  Zn  Zn164  1  0.06659132  0.30971286  0.56581517  1
  Zn  Zn165  1  0.06169181  0.81351408  0.06688518  1
  Zn  Zn166  1  0.06576812  0.81294458  0.56193760  1
  Zn  Zn167  1  0.55793132  0.31062528  0.06682512  1
  Zn  Zn168  1  0.56335600  0.30926412  0.56290187  1
  Zn  Zn169  1  0.56793518  0.81764982  0.06026486  1
  Zn  Zn170  1  0.56398148  0.81209218  0.56019590  1
  O  O171  1  0.13112260  0.11060437  0.11354995  1
  O  O172  1  0.12020383  0.12211695  0.61745725  1
  O  O173  1  0.12059338  0.61841337  0.11890502  1
  O  O174  1  0.11994174  0.61851068  0.62230753  1
  O  O175  1  0.62389620  0.11121222  0.12582779  1
  O  O176  1  0.61554666  0.12531212  0.61746020  1
  O  O177  1  0.62972675  0.61550410  0.11254521  1
  O  O178  1  0.61643026  0.61189971  0.63113935  1
  O  O179  1  0.39176871  0.37786576  0.36737602  1
  O  O180  1  0.37388142  0.38390317  0.88472517  1
  O  O181  1  0.37950139  0.88409159  0.38006134  1
  O  O182  1  0.38185606  0.88964095  0.87527530  1
  O  O183  1  0.88626084  0.37822250  0.38191727  1
  O  O184  1  0.87517243  0.37961362  0.88616645  1
  O  O185  1  0.88649332  0.87996517  0.38456834  1
  O  O186  1  0.88028837  0.88429477  0.88154533  1
  O  O187  1  0.25691249  -0.00136544  0.36592009  1
  O  O188  1  0.26204940  0.00359893  0.87636567  1
  O  O189  1  0.25241345  0.50692570  0.36673598  1
  O  O190  1  0.25690986  0.50754622  0.87330075  1
  O  O191  1  0.76173271  -0.00433626  0.36960803  1
  O  O192  1  0.75929786  0.00540618  0.86963504  1
  O  O193  1  0.74772461  0.49299148  0.35971588  1
  O  O194  1  0.75943313  0.49952355  0.86182861  1
  O  O195  1  0.23771382  0.49106000  0.12971177  1
  O  O196  1  0.24740143  0.49733197  0.62851286  1
  O  O197  1  0.24282887  0.98838676  0.12954496  1
  O  O198  1  0.25946492  1.01347235  0.63560270  1
  O  O199  1  0.73937710  0.48897197  0.13299658  1
  O  O200  1  0.74359240  0.49224910  0.63623393  1
  O  O201  1  0.73701339  0.99430016  0.13800308  1
  O  O202  1  0.75494271  0.98715146  0.63488521  1
  O  O203  1  0.00395632  0.37083763  0.25783359  1
  O  O204  1  0.00946496  0.36758747  0.74566018  1
  O  O205  1  -0.00286195  0.86031394  0.25968614  1
  O  O206  1  0.00261934  0.87101849  0.76247122  1
  O  O207  1  0.51289467  0.37787586  0.25774416  1
  O  O208  1  0.50796344  0.36747344  0.75142117  1
  O  O209  1  0.49100041  0.85578939  0.24780853  1
  O  O210  1  0.51630844  0.88216113  0.76114888  1
  O  O211  1  0.48308013  0.12257200  0.25181440  1
  O  O212  1  0.50579559  0.13128040  0.74053482  1
  O  O213  1  0.49231668  0.63230842  0.24922420  1
  O  O214  1  0.50370491  0.62019314  0.74234083  1
  O  O215  1  1.00167135  0.13897380  0.25542006  1
  O  O216  1  0.99405522  0.13057631  0.74655561  1
  O  O217  1  1.00095966  0.63663591  0.24393919  1
  O  O218  1  0.99555438  0.63232591  0.74485808  1
  O  O219  1  0.36419059  0.26216138  -0.00498518  1
  O  O220  1  0.36381369  0.24191825  0.49848761  1
  O  O221  1  0.38294627  0.73408392  0.00663725  1
  O  O222  1  0.37889031  0.76401492  0.49096582  1
  O  O223  1  0.87301351  0.26393020  0.00051055  1
  O  O224  1  0.87448403  0.26142207  0.49699811  1
  O  O225  1  0.86638984  0.76065339  -0.00755680  1
  O  O226  1  0.86837609  0.76324330  0.50554405  1
  O  O227  1  0.13283962  0.24042793  0.49580891  1
  O  O228  1  0.13627163  0.24263281  1.00419254  1
  O  O229  1  0.12565723  0.74414013  0.48852541  1
  O  O230  1  0.12334420  0.74535088  0.99040119  1
  O  O231  1  0.62654415  0.23885016  0.49437624  1
  O  O232  1  0.62107386  0.25276584  0.98610736  1
  O  O233  1  0.63242808  0.74977634  0.49031501  1
  O  O234  1  0.63107658  0.74229429  0.99516202  1
  O  O235  1  0.49897161  0.24822479  0.13528050  1
  O  O236  1  0.49626573  0.23917956  0.63006282  1
  O  O237  1  0.50018531  0.74526081  0.12423097  1
  O  O238  1  0.50537174  0.73365523  0.62469626  1
  O  O239  1  0.99696113  0.25245284  0.14027648  1
  O  O240  1  1.00636988  0.23662809  0.63546786  1
  O  O241  1  1.00349054  0.74329442  0.14027701  1
  O  O242  1  0.99516100  0.74765766  0.63173327  1
  O  O243  1  0.00510594  0.25779314  0.36657162  1
  O  O244  1  -0.00137763  0.25606417  0.85921747  1
  O  O245  1  0.00552920  0.75462485  0.36756020  1
  O  O246  1  0.00613741  0.75687216  0.87063341  1
  O  O247  1  0.50955786  0.25747891  0.37283443  1
  O  O248  1  0.50560913  0.24985390  0.86743677  1
  O  O249  1  0.51055425  0.74984988  0.36427950  1
  O  O250  1  0.51463177  0.75747493  0.87583450  1
  O  O251  1  0.24282355  0.13421143  0.49428580  1
  O  O252  1  0.24488541  0.13301167  0.99387693  1
  O  O253  1  0.24730269  0.62264076  0.48458057  1
  O  O254  1  0.23804630  0.62712105  0.99147353  1
  O  O255  1  0.73660296  0.12192122  0.50895532  1
  O  O256  1  0.74283108  0.12309697  0.98513862  1
  O  O257  1  0.73888578  0.64468808  0.52263743  1
  O  O258  1  0.74369874  0.63010508  0.99806726  1
  O  O259  1  0.25259736  0.36846267  0.00624706  1
  O  O260  1  0.24475898  0.36667735  0.50717869  1
  O  O261  1  0.25096786  0.87008975  0.01048855  1
  O  O262  1  0.26942462  0.87693199  0.49809464  1
  O  O263  1  0.75996617  0.37865697  0.01037163  1
  O  O264  1  0.75937410  0.37543514  0.50945387  1
  O  O265  1  0.76034356  0.86781409  0.00234896  1
  O  O266  1  0.75510046  0.86903585  0.50875102  1
  O  O267  1  0.13180221  0.49299808  0.24438689  1
  O  O268  1  0.13160729  0.49472007  0.74323521  1
  O  O269  1  0.13445703  1.00496545  0.23694162  1
  O  O270  1  0.12133505  0.98614844  0.75035284  1
  O  O271  1  0.63022764  0.49424938  0.24368993  1
  O  O272  1  0.63395617  0.49185001  0.74644337  1
  O  O273  1  0.63302203  0.99945640  0.24713945  1
  O  O274  1  0.63922379  0.99259553  0.75847910  1
  O  O275  1  0.36862756  0.00440267  0.25572565  1
  O  O276  1  0.37374104  -0.00078125  0.75519777  1
  O  O277  1  0.36970889  0.51122429  0.24888038  1
  O  O278  1  0.36837136  0.49371193  0.76354330  1
  O  O279  1  0.87120439  0.00250631  0.26633947  1
  O  O280  1  0.86558688  0.00963427  0.75808732  1
  O  O281  1  0.85929423  0.49424339  0.25115569  1
  O  O282  1  0.86940001  0.50395024  0.75281086  1
  O  O283  1  0.11458604  0.37035187  0.37038990  1
  O  O284  1  0.12534619  0.38419568  0.86117710  1
  O  O285  1  0.11277387  0.86879189  0.38282244  1
  O  O286  1  0.11747146  0.87115349  0.87214282  1
  O  O287  1  0.61733581  0.36893751  0.36934872  1
  O  O288  1  0.62527915  0.36886753  0.86793139  1
  O  O289  1  0.62276958  0.85618183  0.37590382  1
  O  O290  1  0.62211302  0.86896593  0.87073296  1
  O  O291  1  0.37387362  0.11794345  0.13917611  1
  O  O292  1  0.37639362  0.11990350  0.63374305  1
  O  O293  1  0.37618583  0.62224596  0.12537785  1
  O  O294  1  0.39175207  0.62680812  0.62858096  1
  O  O295  1  0.87753876  0.12114766  0.11259801  1
  O  O296  1  0.88312325  0.12119196  0.63423451  1
  O  O297  1  0.88852417  0.61595819  0.11596883  1
  O  O298  1  0.88307605  0.63290739  0.62763563  1
  O  O299  1  0.24529275  0.26129331  0.11998758  1
  O  O300  1  0.25463722  0.25926713  0.61561791  1
  O  O301  1  0.24392335  0.76503919  0.12384660  1
  O  O302  1  0.25551097  0.73328780  0.61495544  1
  O  O303  1  0.75136206  0.26125471  0.13379938  1
  O  O304  1  0.74136607  0.26202581  0.62419827  1
  O  O305  1  0.74536546  0.75254829  0.11236134  1
  O  O306  1  0.75705002  0.76293191  0.62317685  1
  O  O307  1  0.24144383  0.25117489  0.38087899  1
  O  O308  1  0.25296605  0.24050030  0.88333631  1
  O  O309  1  0.24376296  0.74479840  0.37544438  1
  O  O310  1  0.24205055  0.74389996  0.88220339  1
  O  O311  1  0.73760419  0.25784206  0.38018281  1
  O  O312  1  0.73858389  0.24011163  0.86476890  1
  O  O313  1  0.74212886  0.75300557  0.38316275  1
  O  O314  1  0.74013226  0.74846011  0.88672603  1
  O  O315  1  0.01551210  0.12987979  -0.01276460  1
  O  O316  1  0.00890924  0.12544881  0.50793809  1
  O  O317  1  0.01138749  0.63133256  0.00916655  1
  O  O318  1  0.01063720  0.62076912  0.50704016  1
  O  O319  1  0.50284892  0.12074302  0.00216747  1
  O  O320  1  0.50748365  0.11599522  0.50810733  1
  O  O321  1  0.50483486  0.61979445  0.00893720  1
  O  O322  1  0.50388308  0.61634940  0.51247295  1
  O  O323  1  0.50619417  0.38323510  0.49346065  1
  O  O324  1  0.49057542  0.38059385  0.99835043  1
  O  O325  1  0.49390048  0.88087718  0.49737795  1
  O  O326  1  0.50544296  0.87998317  0.98539772  1
  O  O327  1  0.99867126  0.37518379  0.49368932  1
  O  O328  1  0.98648738  0.37294898  1.00043687  1
  O  O329  1  0.99260207  0.87657239  0.49532170  1
  O  O330  1  0.99358885  0.86874974  0.98800838  1
  O  O331  1  0.50249872  0.49400519  0.38650542  1
  O  O332  1  0.49235664  0.49870969  0.88312541  1
  O  O333  1  0.49440868  0.99537757  0.38084083  1
  O  O334  1  0.48690934  0.99516105  0.87644773  1
  O  O335  1  0.99967044  0.49292589  0.37881240  1
  O  O336  1  0.98650610  0.49481404  0.86597223  1
  O  O337  1  0.99222104  0.99225931  0.37606770  1
  O  O338  1  0.98641982  0.99412345  0.87018222  1
  O  O339  1  0.01409733  -0.00869199  0.13179561  1
  O  O340  1  0.00357116  0.01324493  0.62419768  1
  O  O341  1  0.01192300  0.50763174  0.13540019  1
  O  O342  1  0.00876029  0.50402414  0.61996853  1
  O  O343  1  0.51114154  0.00076173  0.12735308  1
  O  O344  1  0.49656877  0.00738791  0.61629070  1
  O  O345  1  0.51486172  0.49255786  0.12006006  1
  O  O346  1  0.50747030  0.50526094  0.62218197  1
  O  O347  1  0.24514250  0.37768010  0.24333250  1
  O  O348  1  0.24399527  0.38038726  0.74314174  1
  O  O349  1  0.25394050  0.88413441  0.24090381  1
  O  O350  1  0.23228348  0.87408579  0.75560405  1
  O  O351  1  0.73885261  0.38099667  0.24429711  1
  O  O352  1  0.74726932  0.37971524  0.74400515  1
  O  O353  1  0.76167918  0.89364982  0.24989243  1
  O  O354  1  0.74443345  0.88170565  0.74611506  1
  O  O355  1  0.25892896  0.11334412  0.25012888  1
  O  O356  1  0.25177218  0.12958312  0.75375823  1
  O  O357  1  0.25582913  0.62301261  0.25740027  1
  O  O358  1  0.24005052  0.61805960  0.76714279  1
  O  O359  1  0.75194080  0.10546347  0.25109300  1
  O  O360  1  0.75525642  0.11823335  0.75355509  1
  O  O361  1  0.74710730  0.60710209  0.24506021  1
  O  O362  1  0.75738720  0.61635524  0.74999779  1
  O  O363  1  0.37296348  0.11007040  0.37059125  1
  O  O364  1  0.36341343  0.11254099  0.87380437  1
  O  O365  1  0.36953532  0.62230097  0.36674891  1
  O  O366  1  0.36613564  0.61480335  0.87783064  1
  O  O367  1  0.87839637  0.10938215  0.38658076  1
  O  O368  1  0.86753727  0.12054272  0.86963094  1
  O  O369  1  0.86362903  0.61149696  0.42118147  1
  O  O370  1  0.87454042  0.61670583  0.86898505  1
  O  O371  1  0.12910772  0.38146349  0.12853617  1
  O  O372  1  0.13597845  0.38133901  0.63236497  1
  O  O373  1  0.13402631  0.88775565  0.11981072  1
  O  O374  1  0.12134049  0.87724453  0.64030510  1
  O  O375  1  0.63171798  0.37946755  0.13139983  1
  O  O376  1  0.63014171  0.38433464  0.63093986  1
  O  O377  1  0.62772388  0.88809030  0.12695256  1
  O  O378  1  0.63328836  0.86950443  0.63514006  1
  O  O379  1  0.11800477  0.25447249  0.25398092  1
  O  O380  1  0.11789391  0.26132103  0.74743233  1
  O  O381  1  0.11700633  0.74651632  0.26295248  1
  O  O382  1  0.11929223  0.75913261  0.76249919  1
  O  O383  1  0.62545032  0.25658990  0.25925816  1
  O  O384  1  0.61404171  0.25566152  0.75617044  1
  O  O385  1  0.61950317  0.74464745  0.25669504  1
  O  O386  1  0.63616798  0.75975677  0.76093656  1
  O  O387  1  0.37119946  0.23062819  0.25915693  1
  O  O388  1  0.38881531  0.25560029  0.74877680  1
  O  O389  1  0.38164645  0.73592118  0.25086125  1
  O  O390  1  0.38109042  0.75941750  0.75884472  1
  O  O391  1  0.88678455  0.25342388  0.24976132  1
  O  O392  1  0.88040289  0.23754011  0.75258504  1
  O  O393  1  0.88550869  0.74680103  0.25813813  1
  O  O394  1  0.87814311  0.74583684  0.74814719  1
  O  O395  1  0.38762494  0.50320203  0.50039429  1
  O  O396  1  0.37702663  0.49018035  0.99352590  1
  O  O397  1  0.38703341  0.98965228  0.49168464  1
  O  O398  1  0.37465933  1.00287527  0.99107923  1
  O  O399  1  0.88949495  0.48078779  0.50797664  1
  O  O400  1  0.87017853  0.48837842  0.98929373  1
  O  O401  1  0.87514807  0.98933827  0.49259837  1
  O  O402  1  0.87500595  0.99470349  0.99392690  1
  O  O403  1  0.12705355  0.00672535  0.01261084  1
  O  O404  1  0.12801639  0.01086437  0.50434378  1
  O  O405  1  0.12603769  0.50889696  0.00956250  1
  O  O406  1  0.12157183  0.50611454  0.50484501  1
  O  O407  1  0.62576772  0.00118215  0.01466214  1
  O  O408  1  0.61535441  0.00309367  0.49262536  1
  O  O409  1  0.62198815  0.50623981  0.00445204  1
  O  O410  1  0.62019502  0.50177374  0.51014735  1
  O  O411  1  0.36265723  0.38323137  0.11680578  1
  O  O412  1  0.36262629  0.37596449  0.62746256  1
  O  O413  1  0.36057551  0.87834358  0.12278934  1
  O  O414  1  0.38384098  0.86729556  0.61055637  1
  O  O415  1  0.86780566  0.37491774  0.11378132  1
  O  O416  1  0.86546978  0.37327593  0.62031089  1
  O  O417  1  0.87644770  0.88063077  0.11355208  1
  O  O418  1  0.87127711  0.87355959  0.62054597  1
  O  O419  1  0.12579298  0.12973694  0.38296696  1
  O  O420  1  0.14168872  0.11347660  0.88335513  1
  O  O421  1  0.13367055  0.63164142  0.37775579  1
  O  O422  1  0.12705834  0.63217940  0.88248953  1
  O  O423  1  0.61888260  0.13365590  0.38546058  1
  O  O424  1  0.63194594  0.13310033  0.87275077  1
  O  O425  1  0.62322979  0.64089868  0.37846763  1
  O  O426  1  0.62640613  0.63054978  0.88619598  1
