# generated using pymatgen
data_V85Zn86O256
_symmetry_space_group_name_H-M   'P 1'
_cell_length_a   16.93018107
_cell_length_b   16.92469146
_cell_length_c   16.93332051
_cell_angle_alpha   89.98760464
_cell_angle_beta   90.05044366
_cell_angle_gamma   89.96928749
_symmetry_Int_Tables_number   1
_chemical_formula_structural   V85Zn86O256
_chemical_formula_sum   'V85 Zn86 O256'
_cell_volume   4852.03863939
_cell_formula_units_Z   1
loop_
 _symmetry_equiv_pos_site_id
 _symmetry_equiv_pos_as_xyz
  1  'x, y, z'
loop_
 _atom_site_type_symbol
 _atom_site_label
 _atom_site_symmetry_multiplicity
 _atom_site_fract_x
 _atom_site_fract_y
 _atom_site_fract_z
 _atom_site_occupancy
  V  V0  1  0.49832449  0.87064332  0.86702237  1
  V  V1  1  0.37830288  0.50045701  0.87619424  1
  V  V2  1  0.37116287  0.87562870  -0.00493186  1
  V  V3  1  0.12052900  0.37872287  0.24401122  1
  V  V4  1  0.62470467  0.49877837  0.11914644  1
  V  V5  1  0.37481722  0.50038150  0.37587275  1
  V  V6  1  0.62275946  0.74988651  0.86649036  1
  V  V7  1  0.75893098  0.36521240  0.12518601  1
  V  V8  1  0.37947539  0.37679870  -0.00024402  1
  V  V9  1  0.25081899  -0.00151540  0.25519676  1
  V  V10  1  0.12503554  0.37506684  0.75427888  1
  V  V11  1  -0.00704314  0.87853235  0.87463203  1
  V  V12  1  0.87547027  0.74524205  0.14061911  1
  V  V13  1  0.75492190  -0.00001420  0.74788470  1
  V  V14  1  0.74859818  0.25596065  0.49995550  1
  V  V15  1  0.37074124  0.01580203  0.87188750  1
  V  V16  1  0.87747146  0.62364147  0.75504516  1
  V  V17  1  0.50202739  -0.00143040  -0.00174933  1
  V  V18  1  0.12179957  0.62961095  0.49663428  1
  V  V19  1  0.24290104  0.87495520  0.12403340  1
  V  V20  1  -0.00185635  0.00172780  -0.00129108  1
  V  V21  1  0.50028810  0.24480414  0.75397913  1
  V  V22  1  0.49870226  0.61975340  0.11903019  1
  V  V23  1  0.50146798  0.62965967  0.63266145  1
  V  V24  1  0.12262677  0.61604299  0.00278504  1
  V  V25  1  0.73952380  0.87519233  0.62148563  1
  V  V26  1  0.75622189  0.37782155  0.62541677  1
  V  V27  1  0.76842086  0.00461935  0.25251037  1
  V  V28  1  0.62380749  -0.00405486  0.13594809  1
  V  V29  1  0.50089778  0.50078731  0.50279914  1
  V  V30  1  0.87528628  0.50353431  0.39090640  1
  V  V31  1  0.87693174  0.87173618  0.49735138  1
  V  V32  1  0.61926054  0.75765497  0.37031973  1
  V  V33  1  0.76247769  0.50540961  0.24738588  1
  V  V34  1  0.12434527  0.25255996  0.37266609  1
  V  V35  1  0.24472614  0.23893814  -0.00811583  1
  V  V36  1  0.74640349  0.87005522  0.12828883  1
  V  V37  1  -0.00487302  0.24834578  0.75228692  1
  V  V38  1  0.62704028  0.37539370  0.24898435  1
  V  V39  1  0.50466725  0.37837585  0.87735721  1
  V  V40  1  0.24731997  0.63212291  0.37487294  1
  V  V41  1  0.24742557  0.49796129  0.24780091  1
  V  V42  1  0.25133799  0.12316591  0.37461428  1
  V  V43  1  0.37610461  0.62292036  0.24915297  1
  V  V44  1  0.12406709  0.01217251  0.12347538  1
  V  V45  1  0.12041276  0.86389982  0.25399628  1
  V  V46  1  -0.01974309  0.12878549  0.12474610  1
  V  V47  1  -0.00814506  0.50391996  -0.00504373  1
  V  V48  1  0.75487629  0.63020446  0.88143027  1
  V  V49  1  0.00150332  0.62546125  0.13699221  1
  V  V50  1  0.12216651  0.75206341  0.87551151  1
  V  V51  1  0.25006127  0.24862162  0.50005047  1
  V  V52  1  0.62786962  0.63272736  0.00176803  1
  V  V53  1  0.62546090  0.50021651  0.62739161  1
  V  V54  1  0.62703596  0.12380712  -0.00434614  1
  V  V55  1  0.00077777  0.85239394  0.37616736  1
  V  V56  1  0.24588866  0.37945256  0.12141248  1
  V  V57  1  0.37785547  0.75248195  0.63086688  1
  V  V58  1  0.25171835  0.37453409  0.62606543  1
  V  V59  1  0.24958047  0.62494981  0.87283042  1
  V  V60  1  0.12223073  0.87700146  0.75376689  1
  V  V61  1  -0.00316707  0.38087063  0.38695999  1
  V  V62  1  0.24650950  0.75420368  -0.00063037  1
  V  V63  1  0.75382104  0.50069587  0.75799218  1
  V  V64  1  0.24658972  0.87513870  0.62444191  1
  V  V65  1  0.37591389  0.24942337  0.12591580  1
  V  V66  1  0.77070128  0.11768648  0.87300370  1
  V  V67  1  0.87540092  0.37103145  -0.00558823  1
  V  V68  1  0.87274253  0.24956073  0.62811451  1
  V  V69  1  0.87128022  0.86622803  -0.00000827  1
  V  V70  1  0.62968563  0.11637256  0.50153161  1
  V  V71  1  -0.01446495  0.25090038  0.24325692  1
  V  V72  1  -0.00824171  0.11718272  0.62917157  1
  V  V73  1  0.37688925  0.24118349  0.62923904  1
  V  V74  1  0.37555201  0.74978947  0.12369823  1
  V  V75  1  0.50277396  0.37463004  0.37577843  1
  V  V76  1  0.37765088  0.88229948  0.49301373  1
  V  V77  1  0.37635470  0.37259006  0.50189261  1
  V  V78  1  0.50615108  0.11707699  0.62914822  1
  V  V79  1  -0.00264451  0.62128417  0.62153809  1
  V  V80  1  0.37819536  0.12255910  0.25567653  1
  V  V81  1  -0.06023184  0.05304403  0.43936777  1
  V  V82  1  0.12314360  0.49912202  0.61920705  1
  V  V83  1  0.12297995  0.11707185  0.49701753  1
  V  V84  1  0.24758540  0.01290844  0.75384389  1
  Zn  Zn85  1  0.62986248  0.25088572  0.37482549  1
  Zn  Zn86  1  0.37953802  0.63124970  0.75426821  1
  Zn  Zn87  1  -0.00230194  0.75004553  0.74879223  1
  Zn  Zn88  1  0.11650447  -0.00505675  0.62075107  1
  Zn  Zn89  1  0.63086428  0.24938038  0.87708845  1
  Zn  Zn90  1  0.50019497  0.00050499  0.49845445  1
  Zn  Zn91  1  0.62081947  0.87766600  0.74312852  1
  Zn  Zn92  1  0.75681325  0.24271904  0.00217370  1
  Zn  Zn93  1  0.75753568  0.12438712  0.37101424  1
  Zn  Zn94  1  0.24925506  0.75208468  0.49713508  1
  Zn  Zn95  1  0.50439813  0.75268911  0.24697154  1
  Zn  Zn96  1  0.62755545  0.37248191  0.75338600  1
  Zn  Zn97  1  0.50222487  0.25003791  0.24992718  1
  Zn  Zn98  1  -0.00368547  0.37966588  0.87216410  1
  Zn  Zn99  1  0.87279126  0.74871861  0.62393267  1
  Zn  Zn100  1  0.62775154  0.62676537  0.49645868  1
  Zn  Zn101  1  0.50188803  -0.10167071  0.35233849  1
  Zn  Zn102  1  0.25179415  0.50077942  0.74886004  1
  Zn  Zn103  1  0.75116286  0.63180051  0.37285775  1
  Zn  Zn104  1  0.74808368  0.74845499  0.49749243  1
  Zn  Zn105  1  0.12342282  0.23630115  0.87441237  1
  Zn  Zn106  1  0.50316825  0.12587173  0.12621995  1
  Zn  Zn107  1  0.18827413  0.19252204  0.18712467  1
  Zn  Zn108  1  0.17903454  0.18862189  0.68381906  1
  Zn  Zn109  1  0.18609103  0.68425179  0.18656763  1
  Zn  Zn110  1  0.18631674  0.68989948  0.68694438  1
  Zn  Zn111  1  0.68935350  0.18359668  0.18678853  1
  Zn  Zn112  1  0.68649130  0.18438554  0.69245354  1
  Zn  Zn113  1  0.68874398  0.68954870  0.19053178  1
  Zn  Zn114  1  0.68931874  0.68933060  0.68714468  1
  Zn  Zn115  1  0.31279483  0.31197632  0.31188064  1
  Zn  Zn116  1  0.31480589  0.30974986  0.81198987  1
  Zn  Zn117  1  0.31789107  0.81283005  0.30908272  1
  Zn  Zn118  1  0.31002256  0.81770354  0.81079390  1
  Zn  Zn119  1  0.81297538  0.31777595  0.31553573  1
  Zn  Zn120  1  0.81197690  0.31012085  0.81619949  1
  Zn  Zn121  1  0.80931124  0.81841147  0.31356275  1
  Zn  Zn122  1  0.81021205  0.81047061  0.81018318  1
  Zn  Zn123  1  0.18675777  0.44018288  0.43689664  1
  Zn  Zn124  1  0.18880868  0.43668423  0.93743041  1
  Zn  Zn125  1  0.18444754  0.93424822  0.43551950  1
  Zn  Zn126  1  0.18277755  1.05871804  0.93838027  1
  Zn  Zn127  1  0.68981978  0.44039860  0.43891580  1
  Zn  Zn128  1  0.69038024  0.44029630  0.94008407  1
  Zn  Zn129  1  0.68797472  0.93520450  0.43099267  1
  Zn  Zn130  1  0.68932537  0.93665318  0.93701671  1
  Zn  Zn131  1  0.31654273  0.06110620  0.06795186  1
  Zn  Zn132  1  0.30914985  0.06072224  0.56750222  1
  Zn  Zn133  1  0.31197391  0.56047935  0.05831628  1
  Zn  Zn134  1  0.31257023  0.56417975  0.56339518  1
  Zn  Zn135  1  0.81129414  0.05276535  0.05941551  1
  Zn  Zn136  1  0.80586223  0.06398476  0.56916432  1
  Zn  Zn137  1  0.81518237  0.56234761  0.06312179  1
  Zn  Zn138  1  0.80945476  0.56588340  0.56338169  1
  Zn  Zn139  1  0.43925048  0.43790533  0.18677884  1
  Zn  Zn140  1  0.43818183  0.43538483  0.69245859  1
  Zn  Zn141  1  0.43339844  0.93835550  0.18206077  1
  Zn  Zn142  1  0.43120092  0.94027987  0.68863133  1
  Zn  Zn143  1  0.94001534  0.44099405  0.18105793  1
  Zn  Zn144  1  0.93708006  0.44009970  0.68817712  1
  Zn  Zn145  1  0.94046387  0.93227483  0.18827075  1
  Zn  Zn146  1  0.92913544  0.93684115  0.68786034  1
  Zn  Zn147  1  0.06539692  0.06516367  0.30106979  1
  Zn  Zn148  1  0.05416673  0.06013558  0.80958501  1
  Zn  Zn149  1  0.06255449  0.55922079  0.31523213  1
  Zn  Zn150  1  0.06358879  0.56047307  0.81142871  1
  Zn  Zn151  1  0.56351489  0.06694388  0.31884906  1
  Zn  Zn152  1  0.56720741  0.05761138  0.81159145  1
  Zn  Zn153  1  0.56661501  0.56594735  0.30949087  1
  Zn  Zn154  1  0.56451870  0.56124400  0.81353094  1
  Zn  Zn155  1  0.44217934  0.18458585  0.43792032  1
  Zn  Zn156  1  0.44033594  0.18984920  0.94073733  1
  Zn  Zn157  1  0.43844148  0.69066168  0.44301695  1
  Zn  Zn158  1  0.44033971  0.68725713  0.93995148  1
  Zn  Zn159  1  0.93372096  0.21698516  0.44005583  1
  Zn  Zn160  1  0.94443816  0.19009630  0.94044694  1
  Zn  Zn161  1  0.93459195  0.68281319  0.43991925  1
  Zn  Zn162  1  0.93574377  0.69204401  0.93988247  1
  Zn  Zn163  1  0.06077041  0.31198692  0.06140884  1
  Zn  Zn164  1  0.06408908  0.30815003  0.56583850  1
  Zn  Zn165  1  0.05976933  0.81094570  0.06457275  1
  Zn  Zn166  1  0.05973282  0.80769610  0.56127282  1
  Zn  Zn167  1  0.56514545  0.31017498  0.06115659  1
  Zn  Zn168  1  0.56643951  0.31103000  0.56657269  1
  Zn  Zn169  1  0.56222793  0.81228270  0.06030267  1
  Zn  Zn170  1  0.56069897  0.80953052  0.55659004  1
  O  O171  1  0.12468875  0.11452355  0.13038400  1
  O  O172  1  0.10985703  0.12634413  0.61189002  1
  O  O173  1  0.11129409  0.63124884  0.11619713  1
  O  O174  1  0.12077114  0.61704420  0.62073728  1
  O  O175  1  0.62587239  0.11528960  0.11321984  1
  O  O176  1  0.61900499  0.13037252  0.61409208  1
  O  O177  1  0.62048629  0.62053829  0.12012288  1
  O  O178  1  0.61893845  0.61807057  0.62436991  1
  O  O179  1  0.38235347  0.37978020  0.38011797  1
  O  O180  1  0.38058345  0.38069515  0.88155769  1
  O  O181  1  0.37447558  0.86864276  0.39127604  1
  O  O182  1  0.38071856  0.87963960  0.88002511  1
  O  O183  1  0.88944929  0.38361699  0.37366693  1
  O  O184  1  0.87446553  0.37695822  0.88935711  1
  O  O185  1  0.88884672  0.87223808  0.38345057  1
  O  O186  1  0.88225158  0.86437170  0.88476103  1
  O  O187  1  0.24445682  0.00568971  0.36291986  1
  O  O188  1  0.25818600  0.00223594  0.86809268  1
  O  O189  1  0.25756134  0.50464535  0.36883229  1
  O  O190  1  0.25699777  0.50908818  0.87489248  1
  O  O191  1  0.74840505  -0.00025670  0.35624517  1
  O  O192  1  0.75147718  0.01163988  0.87188471  1
  O  O193  1  0.76329232  0.49338468  0.36454636  1
  O  O194  1  0.74184931  0.51203533  0.86400506  1
  O  O195  1  0.25526754  0.48656490  0.12793557  1
  O  O196  1  0.24485894  0.49251680  0.62769655  1
  O  O197  1  0.24163569  0.99412414  0.12982710  1
  O  O198  1  0.24516566  0.98857265  0.63292977  1
  O  O199  1  0.74627966  0.49373282  0.13466038  1
  O  O200  1  0.74448807  0.49557425  0.63446851  1
  O  O201  1  0.74241522  0.99435536  0.13453096  1
  O  O202  1  0.75151613  0.99295029  0.63863267  1
  O  O203  1  0.00651371  0.37112779  0.24909787  1
  O  O204  1  0.00711857  0.36958819  0.74983440  1
  O  O205  1  0.00681820  0.87789405  0.26571822  1
  O  O206  1  0.00256750  0.87505719  0.75660469  1
  O  O207  1  0.50873004  0.37565040  0.25792106  1
  O  O208  1  0.50342152  0.36667356  0.76032566  1
  O  O209  1  0.47779157  0.86352481  0.24880074  1
  O  O210  1  0.50094217  0.88322391  0.76324144  1
  O  O211  1  0.49211663  0.13005306  0.24744250  1
  O  O212  1  0.50737650  0.13178791  0.74316233  1
  O  O213  1  0.49312923  0.62496503  0.23709530  1
  O  O214  1  0.49831134  0.61900063  0.73747645  1
  O  O215  1  1.00232136  0.13563114  0.23493147  1
  O  O216  1  1.00002444  0.13565544  0.73937651  1
  O  O217  1  1.00634939  0.61942882  0.23563505  1
  O  O218  1  0.99267995  0.62406312  0.74596193  1
  O  O219  1  0.36535309  0.25512996  0.00627937  1
  O  O220  1  0.37142945  0.25459813  0.50700121  1
  O  O221  1  0.36559371  0.75328881  0.00361859  1
  O  O222  1  0.37067516  0.75956530  0.51223512  1
  O  O223  1  0.87621369  0.26575518  -0.00022774  1
  O  O224  1  0.86115343  0.25510337  0.51596448  1
  O  O225  1  0.87782256  0.76167716  0.01240134  1
  O  O226  1  0.87172682  0.75814615  0.50164390  1
  O  O227  1  0.12881255  0.24000429  0.49338714  1
  O  O228  1  0.14230929  0.25683165  0.99781868  1
  O  O229  1  0.13041079  0.73371162  0.50443077  1
  O  O230  1  0.13042859  0.74119866  0.99619519  1
  O  O231  1  0.63672910  0.24482574  0.50145932  1
  O  O232  1  0.63130368  0.23893143  0.99928991  1
  O  O233  1  0.62528330  0.74731455  0.48610457  1
  O  O234  1  0.62290066  0.73714911  0.99315834  1
  O  O235  1  0.48694612  0.25083109  0.12514974  1
  O  O236  1  0.49475364  0.24358910  0.63341483  1
  O  O237  1  0.49198508  0.74038267  0.12185760  1
  O  O238  1  0.49214477  0.74117567  0.62195485  1
  O  O239  1  1.00289599  0.23652451  0.12794389  1
  O  O240  1  0.99066681  0.24335293  0.62875089  1
  O  O241  1  0.98908868  0.73774093  0.12353625  1
  O  O242  1  0.99863805  0.73476196  0.62848684  1
  O  O243  1  0.00457652  0.26382024  0.36468727  1
  O  O244  1  0.00220330  0.25624019  0.86585062  1
  O  O245  1  0.00058987  0.75406669  0.37376723  1
  O  O246  1  0.00607287  0.75830947  0.87393410  1
  O  O247  1  0.50264678  0.26433312  0.37458534  1
  O  O248  1  0.49975880  0.25988839  0.86995640  1
  O  O249  1  0.51080311  0.74442995  0.37209856  1
  O  O250  1  0.50677489  0.75920186  0.87965532  1
  O  O251  1  0.24199705  0.12903923  0.49636537  1
  O  O252  1  0.25116096  0.13525927  1.00464078  1
  O  O253  1  0.24412035  0.62440809  0.49067789  1
  O  O254  1  0.24323392  0.63210932  0.99258454  1
  O  O255  1  0.74200445  0.13288910  0.50072770  1
  O  O256  1  0.74702431  0.12050093  0.98978108  1
  O  O257  1  0.74721788  0.62804780  0.49395274  1
  O  O258  1  0.74264727  0.61967980  0.99217009  1
  O  O259  1  0.25990438  0.36855533  0.00490958  1
  O  O260  1  0.25451178  0.36806417  0.50502052  1
  O  O261  1  0.24984778  0.86069278  0.00281937  1
  O  O262  1  0.25497198  0.87399054  0.50709660  1
  O  O263  1  0.76096040  0.37524963  0.00666808  1
  O  O264  1  0.74344006  0.36808649  0.51212579  1
  O  O265  1  0.76113677  0.88444091  0.01412330  1
  O  O266  1  0.75905939  0.87772413  0.50468516  1
  O  O267  1  0.13099511  0.48633262  0.25287776  1
  O  O268  1  0.12858199  0.49231641  0.73978077  1
  O  O269  1  0.13367549  0.99195323  0.24177669  1
  O  O270  1  0.12761153  0.98883568  0.74665433  1
  O  O271  1  0.63438510  0.49052553  0.24220613  1
  O  O272  1  0.63296128  0.49941970  0.74059972  1
  O  O273  1  0.62135740  1.00475683  0.23687098  1
  O  O274  1  0.64393338  0.99121694  0.76097882  1
  O  O275  1  0.36195112  0.01197946  0.24035439  1
  O  O276  1  0.36079350  -0.00344314  0.76058010  1
  O  O277  1  0.36902124  0.50397579  0.25473552  1
  O  O278  1  0.37197087  0.50089351  0.76356827  1
  O  O279  1  0.86694093  0.00146064  0.24569559  1
  O  O280  1  0.85615508  -0.00813134  0.75750920  1
  O  O281  1  0.86402855  0.49406184  0.25302842  1
  O  O282  1  0.86633299  0.51141539  0.74910815  1
  O  O283  1  0.11435128  0.37495061  0.36806427  1
  O  O284  1  0.12649970  0.37389466  0.86182464  1
  O  O285  1  0.11046350  0.87588707  0.36957493  1
  O  O286  1  0.11279905  0.86829283  0.86460178  1
  O  O287  1  0.61976069  0.37673042  0.36692606  1
  O  O288  1  0.61817049  0.37332749  0.87811221  1
  O  O289  1  0.61453394  0.86387255  0.37860480  1
  O  O290  1  0.61630979  0.86473935  0.88042596  1
  O  O291  1  0.37588217  0.13392153  0.13545865  1
  O  O292  1  0.38307413  0.13677614  0.61830617  1
  O  O293  1  0.38185154  0.62541136  0.12597133  1
  O  O294  1  0.38109703  0.63334619  0.62785071  1
  O  O295  1  0.88206661  0.12449920  0.12251518  1
  O  O296  1  0.88036945  0.13613586  0.62131412  1
  O  O297  1  0.88337102  0.63717178  0.12257242  1
  O  O298  1  0.88293545  0.62291938  0.63294401  1
  O  O299  1  0.25908985  0.25857143  0.11699500  1
  O  O300  1  0.25743794  0.25282838  0.62056777  1
  O  O301  1  0.25372591  0.75194318  0.11654614  1
  O  O302  1  0.25468011  0.76173484  0.62467214  1
  O  O303  1  0.74737883  0.26202032  0.12379099  1
  O  O304  1  0.75488906  0.25741882  0.62602887  1
  O  O305  1  0.76149619  0.75632651  0.13017572  1
  O  O306  1  0.75222585  0.76031960  0.62180753  1
  O  O307  1  0.24349849  0.24577907  0.38036761  1
  O  O308  1  0.25162398  0.25081206  0.88922774  1
  O  O309  1  0.25444048  0.73491889  0.37344897  1
  O  O310  1  0.24506630  0.74456489  0.88143938  1
  O  O311  1  0.75307240  0.24887514  0.38560366  1
  O  O312  1  0.75055157  0.23194330  0.87575048  1
  O  O313  1  0.73685022  0.75346814  0.37399771  1
  O  O314  1  0.74022080  0.73798695  0.87339975  1
  O  O315  1  -0.00394333  0.11713999  0.01420881  1
  O  O316  1  -0.00044123  0.12270484  0.49803300  1
  O  O317  1  0.00605841  0.62096714  0.00304689  1
  O  O318  1  0.00826384  0.62356851  0.50827491  1
  O  O319  1  0.50762190  0.11679360  0.00278338  1
  O  O320  1  0.51393946  0.12838420  0.50920873  1
  O  O321  1  0.50835719  0.62351862  0.01130291  1
  O  O322  1  0.49912718  0.61511158  0.51293874  1
  O  O323  1  0.49795122  0.37963603  0.49502732  1
  O  O324  1  0.48738253  0.36817912  0.99382689  1
  O  O325  1  0.48321725  0.87948600  0.50659994  1
  O  O326  1  0.49289180  0.88209375  0.99209139  1
  O  O327  1  1.00543870  0.36890102  0.48523622  1
  O  O328  1  0.99054530  0.38320927  1.00162644  1
  O  O329  1  0.99611478  0.87077999  0.48628894  1
  O  O330  1  0.99503996  0.87934033  0.99342044  1
  O  O331  1  0.49671739  0.49137339  0.37961782  1
  O  O332  1  0.49436475  0.48784039  0.87208825  1
  O  O333  1  0.49849988  1.00550719  0.38454207  1
  O  O334  1  0.49361486  0.99424361  0.88405463  1
  O  O335  1  0.98853568  0.48989780  0.37267224  1
  O  O336  1  1.00635002  0.49855288  0.88957369  1
  O  O337  1  0.99847175  1.00290334  0.37531542  1
  O  O338  1  1.00000750  0.98752580  0.88449985  1
  O  O339  1  0.00503142  0.01125204  0.12437511  1
  O  O340  1  -0.00314683  0.01244667  0.62935336  1
  O  O341  1  -0.00471952  0.51768413  0.11317249  1
  O  O342  1  0.00912327  0.51013034  0.62941774  1
  O  O343  1  0.50467820  -0.00035058  0.11214805  1
  O  O344  1  0.49370361  0.01425523  0.62350124  1
  O  O345  1  0.51175354  0.50664057  0.12924778  1
  O  O346  1  0.50794778  0.50214173  0.62339297  1
  O  O347  1  0.24372274  0.37737174  0.24131286  1
  O  O348  1  0.24320024  0.37271301  0.74297533  1
  O  O349  1  0.24562126  0.88279712  0.24653955  1
  O  O350  1  0.23892249  0.88161931  0.74377524  1
  O  O351  1  0.74538182  0.38189277  0.24303634  1
  O  O352  1  0.74944979  0.38404578  0.74804624  1
  O  O353  1  0.75428442  0.88828597  0.23686028  1
  O  O354  1  0.74830269  0.87994765  0.73988292  1
  O  O355  1  0.25464064  0.11967483  0.25470767  1
  O  O356  1  0.24196837  0.11179240  0.73934075  1
  O  O357  1  0.25269945  0.61601529  0.25474259  1
  O  O358  1  0.25058665  0.62595230  0.76353355  1
  O  O359  1  0.74927143  0.11086857  0.25135165  1
  O  O360  1  0.74898182  0.11400297  0.76243950  1
  O  O361  1  0.74744047  0.60758610  0.25102752  1
  O  O362  1  0.75668837  0.61932075  0.75661260  1
  O  O363  1  0.36819425  0.13412184  0.36318437  1
  O  O364  1  0.38015789  0.11462507  0.87850629  1
  O  O365  1  0.36968194  0.61861782  0.37116299  1
  O  O366  1  0.36980514  0.61856989  0.87664376  1
  O  O367  1  0.88202723  0.12135926  0.38901844  1
  O  O368  1  0.86878199  0.12341838  0.88002977  1
  O  O369  1  0.87435311  0.60770704  0.37543912  1
  O  O370  1  0.86607480  0.62998232  0.87019511  1
  O  O371  1  0.13419582  0.37049729  0.13101258  1
  O  O372  1  0.12922020  0.38017971  0.63189824  1
  O  O373  1  0.12602577  0.88263458  0.13200913  1
  O  O374  1  0.12865928  0.87425033  0.63014556  1
  O  O375  1  0.63121165  0.38207131  0.12912365  1
  O  O376  1  0.63513584  0.38312215  0.63019736  1
  O  O377  1  0.63489423  0.88184639  0.11722650  1
  O  O378  1  0.63538314  0.87234126  0.62137613  1
  O  O379  1  0.12065039  0.26163887  0.25516711  1
  O  O380  1  0.11334905  0.25897695  0.74749117  1
  O  O381  1  0.13178483  0.76501511  0.24594828  1
  O  O382  1  0.12293386  0.76035505  0.75518676  1
  O  O383  1  0.62556931  0.26300527  0.24959937  1
  O  O384  1  0.61410069  0.25191821  0.75468358  1
  O  O385  1  0.62264612  0.74727444  0.26346141  1
  O  O386  1  0.62566569  0.75325168  0.76264707  1
  O  O387  1  0.37472758  0.24428304  0.24114660  1
  O  O388  1  0.38782420  0.25293018  0.74217188  1
  O  O389  1  0.36853720  0.73626433  0.23882365  1
  O  O390  1  0.37021180  0.75159405  0.73665891  1
  O  O391  1  0.88644917  0.25604822  0.25166011  1
  O  O392  1  0.88451872  0.25741170  0.74083776  1
  O  O393  1  0.87472172  0.75268955  0.23942844  1
  O  O394  1  0.87547320  0.73630154  0.74681276  1
  O  O395  1  0.38109072  0.49206184  0.49705025  1
  O  O396  1  0.37179156  0.49037036  0.98745723  1
  O  O397  1  0.37003438  0.98502641  0.50538310  1
  O  O398  1  0.38045848  0.99517990  0.99453534  1
  O  O399  1  0.86963191  0.49621652  0.48906525  1
  O  O400  1  0.88218969  0.49045721  1.00131099  1
  O  O401  1  0.87713362  0.99644757  0.49868197  1
  O  O402  1  0.89063399  0.98400177  1.01088293  1
  O  O403  1  0.11134541  -0.00217351  0.01161882  1
  O  O404  1  0.12742888  0.01283472  0.50085564  1
  O  O405  1  0.12235122  0.51170679  -0.00100498  1
  O  O406  1  0.13028081  0.50633266  0.51357008  1
  O  O407  1  0.61686529  0.00344750  0.00498183  1
  O  O408  1  0.63021839  0.01387404  0.49940480  1
  O  O409  1  0.63084347  0.50887956  0.01389750  1
  O  O410  1  0.62022357  0.50008575  0.51267317  1
  O  O411  1  0.37029941  0.36978269  0.11831435  1
  O  O412  1  0.37258182  0.36507947  0.62102304  1
  O  O413  1  0.36158938  0.87121406  0.11317095  1
  O  O414  1  0.36589340  0.87043053  0.62030497  1
  O  O415  1  0.86756236  0.38024601  0.11356053  1
  O  O416  1  0.86269072  0.37164739  0.62975546  1
  O  O417  1  0.87275862  0.86242931  0.12215747  1
  O  O418  1  0.87053769  0.87363956  0.61085817  1
  O  O419  1  0.12889275  0.13139517  0.37858082  1
  O  O420  1  0.11888744  0.12363555  0.87465851  1
  O  O421  1  0.13423308  0.61411545  0.38499677  1
  O  O422  1  0.13227410  0.62984122  0.88134975  1
  O  O423  1  0.63065826  0.13280828  0.38932415  1
  O  O424  1  0.62714252  0.12360775  0.88801108  1
  O  O425  1  0.62872194  0.63230742  0.37641619  1
  O  O426  1  0.62797413  0.63068348  0.88280102  1
