# generated using pymatgen
data_V85Zn86O256
_symmetry_space_group_name_H-M   'P 1'
_cell_length_a   16.93341905
_cell_length_b   16.93761277
_cell_length_c   16.93663133
_cell_angle_alpha   90.06280346
_cell_angle_beta   90.00782094
_cell_angle_gamma   89.99552712
_symmetry_Int_Tables_number   1
_chemical_formula_structural   V85Zn86O256
_chemical_formula_sum   'V85 Zn86 O256'
_cell_volume   4857.62095741
_cell_formula_units_Z   1
loop_
 _symmetry_equiv_pos_site_id
 _symmetry_equiv_pos_as_xyz
  1  'x, y, z'
loop_
 _atom_site_type_symbol
 _atom_site_label
 _atom_site_symmetry_multiplicity
 _atom_site_fract_x
 _atom_site_fract_y
 _atom_site_fract_z
 _atom_site_occupancy
  V  V0  1  0.85619574  0.61932668  0.25355485  1
  V  V1  1  0.25539131  0.51132327  0.25471496  1
  V  V2  1  0.62530381  0.50666135  0.10507538  1
  V  V3  1  0.12583844  0.87363681  0.75036357  1
  V  V4  1  0.62368149  0.00254664  0.62578597  1
  V  V5  1  0.49690189  0.87646664  0.37190768  1
  V  V6  1  0.49015546  0.37521953  0.37742136  1
  V  V7  1  0.12719413  0.24007344  0.88081294  1
  V  V8  1  0.49917548  0.00056016  0.50018309  1
  V  V9  1  -0.00440329  0.62501024  0.12677153  1
  V  V10  1  0.11952387  -0.00837790  0.13469990  1
  V  V11  1  0.37895332  0.37978794  0.00346120  1
  V  V12  1  0.50111181  0.38516850  0.87791839  1
  V  V13  1  0.00521320  0.25179262  0.25537423  1
  V  V14  1  0.11183183  0.50014198  0.62252529  1
  V  V15  1  0.74720520  0.00346286  0.24728242  1
  V  V16  1  -0.00183026  0.49958718  0.00212967  1
  V  V17  1  0.62222877  0.87629717  0.24953726  1
  V  V18  1  0.00493927  0.87450536  0.36998857  1
  V  V19  1  0.87516757  0.24746854  0.62455822  1
  V  V20  1  0.74829903  0.37726618  0.62781533  1
  V  V21  1  0.87183894  0.25075507  0.12449766  1
  V  V22  1  0.61644842  0.13057684  0.00501404  1
  V  V23  1  0.49937714  0.25330329  0.74560249  1
  V  V24  1  0.25512565  0.00028258  0.75678707  1
  V  V25  1  0.00280251  0.00507771  -0.00400306  1
  V  V26  1  0.75201657  0.49789041  0.75081520  1
  V  V27  1  0.12716401  0.37373656  0.74893299  1
  V  V28  1  0.62963660  0.25037815  0.87798352  1
  V  V29  1  0.37327011  0.74655287  0.12399769  1
  V  V30  1  0.74695039  0.87821251  0.12345772  1
  V  V31  1  0.25040238  0.50042362  0.75158096  1
  V  V32  1  0.62320026  0.25144036  0.37119835  1
  V  V33  1  0.62659936  0.74227494  0.37065511  1
  V  V34  1  0.87971092  0.74235942  0.62350445  1
  V  V35  1  0.23798387  0.86518235  0.12081954  1
  V  V36  1  0.62474724  0.12695214  0.49930250  1
  V  V37  1  0.74961471  0.74290064  0.49475880  1
  V  V38  1  0.75077514  0.74900079  -0.00038467  1
  V  V39  1  0.10772850  0.62024392  0.50290129  1
  V  V40  1  0.87720390  0.12676731  0.25123689  1
  V  V41  1  0.75145453  0.87543044  0.62369191  1
  V  V42  1  0.13019348  0.63049680  -0.00164298  1
  V  V43  1  0.37837106  0.62288928  0.74751990  1
  V  V44  1  0.49712639  0.24755689  0.23337979  1
  V  V45  1  0.50408995  0.74472908  0.74629975  1
  V  V46  1  0.87624957  0.00144327  0.37351060  1
  V  V47  1  0.50004612  0.87681004  0.88374476  1
  V  V48  1  0.13605181  0.24881090  0.37557405  1
  V  V49  1  0.37366285  0.87381303  0.49899287  1
  V  V50  1  0.87207835  0.88462249  -0.00275836  1
  V  V51  1  0.60235190  0.00108994  0.11892260  1
  V  V52  1  0.25289266  0.24403160  0.00180654  1
  V  V53  1  -0.00301084  0.12363255  0.62730021  1
  V  V54  1  0.63044173  0.38681591  0.25076226  1
  V  V55  1  0.37676197  0.13072742  0.74880167  1
  V  V56  1  0.25169370  0.73476034  0.49840554  1
  V  V57  1  0.01121932  0.12653137  0.12441143  1
  V  V58  1  0.00238718  0.37237124  0.87836290  1
  V  V59  1  0.49906591  0.50376258  0.50597141  1
  V  V60  1  0.38166211  0.74501435  0.62344227  1
  V  V61  1  0.12735984  0.00020269  0.62534959  1
  V  V62  1  0.12932392  0.37554267  0.25309771  1
  V  V63  1  0.00257345  0.74192948  0.74758904  1
  V  V64  1  0.76221215  0.00930053  0.75482871  1
  V  V65  1  0.12908083  0.74351087  0.37201653  1
  V  V66  1  0.00197270  0.24446235  0.74980177  1
  V  V67  1  0.26672374  0.24981768  0.50253368  1
  V  V68  1  0.87552919  0.87455968  0.49839938  1
  V  V69  1  0.62673480  0.74338353  0.87430317  1
  V  V70  1  0.75021128  0.37498448  0.12052717  1
  V  V71  1  0.00181402  0.00102914  0.49799246  1
  V  V72  1  0.26180395  0.37183022  0.62139350  1
  V  V73  1  0.25683866  0.37137500  0.12607222  1
  V  V74  1  0.75083096  0.25473399  0.49797481  1
  V  V75  1  -0.00603143  0.87895980  0.87149591  1
  V  V76  1  -0.00149661  0.74932937  0.25020203  1
  V  V77  1  0.24922956  -0.00610860  0.25611764  1
  V  V78  1  0.37457494  0.51569748  0.37385659  1
  V  V79  1  0.13483548  0.12625993  0.49849578  1
  V  V80  1  0.12541333  0.49974694  0.12817735  1
  V  V81  1  0.86645845  0.49910981  0.38023664  1
  V  V82  1  0.62557225  0.87584422  0.74863296  1
  V  V83  1  0.75664216  0.62409536  0.87765028  1
  V  V84  1  0.25228904  0.87290418  0.62584736  1
  Zn  Zn85  1  0.62332880  0.62549008  0.50308684  1
  Zn  Zn86  1  0.87728218  0.49725386  0.87474556  1
  Zn  Zn87  1  0.49231414  0.61030217  0.11850670  1
  Zn  Zn88  1  0.36267379  0.00884285  0.38099603  1
  Zn  Zn89  1  0.75965411  0.11940814  0.88856590  1
  Zn  Zn90  1  0.39447093  0.01180001  0.88579404  1
  Zn  Zn91  1  0.62740188  0.37489609  0.75179971  1
  Zn  Zn92  1  0.00763356  0.39017298  0.38501237  1
  Zn  Zn93  1  0.62246608  0.50884229  0.62740082  1
  Zn  Zn94  1  0.12966024  0.75719608  0.88183641  1
  Zn  Zn95  1  0.88689391  0.38280975  0.50262493  1
  Zn  Zn96  1  0.49524781  0.13666074  0.62074433  1
  Zn  Zn97  1  0.36222975  0.87695490  -0.00220179  1
  Zn  Zn98  1  0.75135146  0.12673972  0.37455545  1
  Zn  Zn99  1  0.48125603  0.73664395  0.25457316  1
  Zn  Zn100  1  0.37823554  0.50495016  0.88084608  1
  Zn  Zn101  1  0.25294024  0.12259123  0.88049908  1
  Zn  Zn102  1  0.88141901  0.62050169  0.74757322  1
  Zn  Zn103  1  0.87042569  0.74961453  0.12702476  1
  Zn  Zn104  1  0.38208432  0.12511658  0.24609579  1
  Zn  Zn105  1  0.25191487  0.63361901  0.87616762  1
  Zn  Zn106  1  0.87416020  0.37199249  0.00132767  1
  Zn  Zn107  1  0.22013011  0.16460062  0.16948698  1
  Zn  Zn108  1  0.19045826  0.18771521  0.68735315  1
  Zn  Zn109  1  0.18405764  0.68787512  0.18769682  1
  Zn  Zn110  1  0.18873609  0.68515608  0.68595202  1
  Zn  Zn111  1  0.68473276  0.18687290  0.18482915  1
  Zn  Zn112  1  0.68515678  0.18856778  0.68856724  1
  Zn  Zn113  1  0.67733078  0.68868215  0.18440095  1
  Zn  Zn114  1  0.69165119  0.68274155  0.68525213  1
  Zn  Zn115  1  0.31477063  0.31193560  0.31218907  1
  Zn  Zn116  1  0.31570067  0.31372010  0.81562564  1
  Zn  Zn117  1  0.30498047  0.81686958  0.30897785  1
  Zn  Zn118  1  0.31406472  0.81041993  0.81525700  1
  Zn  Zn119  1  0.81275361  0.31848741  0.31165551  1
  Zn  Zn120  1  0.83332605  0.27571170  0.83081551  1
  Zn  Zn121  1  0.81236536  0.81248103  0.31076778  1
  Zn  Zn122  1  0.81411660  0.81507413  0.80940109  1
  Zn  Zn123  1  0.19212310  0.43919744  0.44041372  1
  Zn  Zn124  1  0.18791001  0.43746331  0.93868236  1
  Zn  Zn125  1  0.18496553  0.92859461  0.44083511  1
  Zn  Zn126  1  0.18184586  0.94043108  0.94049267  1
  Zn  Zn127  1  0.68760782  0.44043186  0.43564141  1
  Zn  Zn128  1  0.69305295  0.43149917  0.93617441  1
  Zn  Zn129  1  0.68713348  0.93489615  0.43549387  1
  Zn  Zn130  1  0.68124760  0.94062326  0.93696844  1
  Zn  Zn131  1  0.32736651  0.05866161  0.06746819  1
  Zn  Zn132  1  0.31525613  0.06329536  0.56752518  1
  Zn  Zn133  1  0.31119038  0.55963257  0.06576271  1
  Zn  Zn134  1  0.31581317  0.55580619  0.56436214  1
  Zn  Zn135  1  0.81131377  0.06761875  0.06342897  1
  Zn  Zn136  1  0.81130345  0.06445611  0.56191596  1
  Zn  Zn137  1  0.80951203  0.55956223  0.06561123  1
  Zn  Zn138  1  0.81139770  0.56344389  0.56116783  1
  Zn  Zn139  1  0.44243977  0.43704991  0.18982884  1
  Zn  Zn140  1  0.43845918  0.43590651  0.69009216  1
  Zn  Zn141  1  0.42709263  0.92651202  0.18698047  1
  Zn  Zn142  1  0.43785966  0.93690306  0.69149658  1
  Zn  Zn143  1  0.93687277  0.43942453  0.19586535  1
  Zn  Zn144  1  0.93392415  0.43024723  0.69038579  1
  Zn  Zn145  1  0.93487421  0.93627821  0.18614318  1
  Zn  Zn146  1  0.93790392  0.93416007  0.68514095  1
  Zn  Zn147  1  0.07295058  0.06604839  0.31069246  1
  Zn  Zn148  1  0.06260247  0.06037919  0.81194173  1
  Zn  Zn149  1  0.05928087  0.56437181  0.31562660  1
  Zn  Zn150  1  0.06431717  0.55973617  0.81415195  1
  Zn  Zn151  1  0.55891079  0.06561197  0.31252459  1
  Zn  Zn152  1  0.56766647  0.06738293  0.81344880  1
  Zn  Zn153  1  0.55618394  0.56546894  0.30739851  1
  Zn  Zn154  1  0.56706815  0.56380305  0.81243187  1
  Zn  Zn155  1  0.43784316  0.18133357  0.42694016  1
  Zn  Zn156  1  0.43939591  0.19500028  0.93683559  1
  Zn  Zn157  1  0.44131703  0.68681579  0.43642953  1
  Zn  Zn158  1  0.42824369  0.68692691  0.94186417  1
  Zn  Zn159  1  0.94237911  0.19147070  0.43945267  1
  Zn  Zn160  1  0.93770716  0.18351915  0.94104734  1
  Zn  Zn161  1  0.93327372  0.68359653  0.43217089  1
  Zn  Zn162  1  0.93782609  0.69108657  0.93606483  1
  Zn  Zn163  1  0.06729175  0.31137253  0.06546501  1
  Zn  Zn164  1  0.06845192  0.31333200  0.56185153  1
  Zn  Zn165  1  0.05572787  0.81227011  0.06233154  1
  Zn  Zn166  1  0.06348566  0.81037758  0.56121828  1
  Zn  Zn167  1  0.56473531  0.31790012  0.06020902  1
  Zn  Zn168  1  0.56228320  0.31925926  0.56041825  1
  Zn  Zn169  1  0.54149300  0.76324548  0.04153586  1
  Zn  Zn170  1  0.56384023  0.81215592  0.56021569  1
  O  O171  1  0.11472622  0.11458415  0.12923003  1
  O  O172  1  0.11993678  0.11997871  0.61731976  1
  O  O173  1  0.11717885  0.61915778  0.11646132  1
  O  O174  1  0.12842805  0.61588331  0.61184497  1
  O  O175  1  0.62310204  0.11272588  0.11711863  1
  O  O176  1  0.62145796  0.11770786  0.61812184  1
  O  O177  1  0.63369617  0.60788872  0.11845518  1
  O  O178  1  0.62906163  0.62235862  0.61795544  1
  O  O179  1  0.38823206  0.37949740  0.37254004  1
  O  O180  1  0.38394156  0.38032645  0.88215838  1
  O  O181  1  0.38170609  0.87586339  0.38214249  1
  O  O182  1  0.39252770  0.87315459  0.87357944  1
  O  O183  1  0.87807944  0.38740928  0.37447649  1
  O  O184  1  0.89147002  0.36858426  0.87920231  1
  O  O185  1  0.88520201  0.88038978  0.37897314  1
  O  O186  1  0.88557846  0.87381178  0.88079327  1
  O  O187  1  0.24683835  -0.02004812  0.36178093  1
  O  O188  1  0.24248572  0.00158017  0.86297342  1
  O  O189  1  0.26715732  0.49396049  0.37079223  1
  O  O190  1  0.24882330  0.50029657  0.86003226  1
  O  O191  1  0.75423950  0.00060083  0.36341274  1
  O  O192  1  0.74529381  0.00044078  0.85903075  1
  O  O193  1  0.76481570  0.49500397  0.37099057  1
  O  O194  1  0.75448417  0.50615243  0.87028472  1
  O  O195  1  0.24442704  0.49088164  0.13496060  1
  O  O196  1  0.24484397  0.48932887  0.63248177  1
  O  O197  1  0.23398843  0.98843101  0.13387819  1
  O  O198  1  0.24698248  0.99428890  0.63618682  1
  O  O199  1  0.73826820  0.48885095  0.12308663  1
  O  O200  1  0.75275884  0.49308631  0.63188085  1
  O  O201  1  0.75036239  0.99717071  0.13753020  1
  O  O202  1  0.74282526  0.99528908  0.62872342  1
  O  O203  1  0.01451911  0.36806005  0.25093184  1
  O  O204  1  0.00708798  0.36652760  0.75859703  1
  O  O205  1  -0.01019519  0.86040909  0.25745860  1
  O  O206  1  0.00446616  0.87075191  0.75598611  1
  O  O207  1  0.51267014  0.36675195  0.25656476  1
  O  O208  1  0.50290042  0.36999728  0.75806489  1
  O  O209  1  0.50257284  0.87983946  0.26316504  1
  O  O210  1  0.50702205  0.86243819  0.75317919  1
  O  O211  1  0.50383297  0.14271454  0.24818769  1
  O  O212  1  0.49547872  0.13497123  0.75005135  1
  O  O213  1  0.51039903  0.63068736  0.23115702  1
  O  O214  1  0.49518416  0.63683693  0.75343209  1
  O  O215  1  0.99806339  0.13234065  0.24459184  1
  O  O216  1  1.00688228  0.12781519  0.73537331  1
  O  O217  1  0.99445243  0.63494973  0.24409070  1
  O  O218  1  1.00223858  0.63814811  0.75448740  1
  O  O219  1  0.36416627  0.26544439  -0.00585265  1
  O  O220  1  0.36574974  0.24188986  0.49714312  1
  O  O221  1  0.36969255  0.76099398  0.01522652  1
  O  O222  1  0.37058155  0.75119208  0.50521298  1
  O  O223  1  0.88941055  0.25481323  0.02231283  1
  O  O224  1  0.86676275  0.24973967  0.50725474  1
  O  O225  1  0.86562640  0.76273399  -0.00050289  1
  O  O226  1  0.87011140  0.75455185  0.50297988  1
  O  O227  1  0.13546256  0.24198730  0.49388204  1
  O  O228  1  0.13507518  0.25774266  0.98931428  1
  O  O229  1  0.13174162  0.73750564  0.49787460  1
  O  O230  1  0.11491162  0.73342546  1.00113461  1
  O  O231  1  0.63157758  0.24860251  0.49242665  1
  O  O232  1  0.62124959  0.23840709  0.99646013  1
  O  O233  1  0.63315117  0.75284329  0.48986258  1
  O  O234  1  0.64402145  0.76010913  0.98690385  1
  O  O235  1  0.50373752  0.25464017  0.13522271  1
  O  O236  1  0.50806557  0.25488035  0.63970687  1
  O  O237  1  0.47665624  0.77326739  0.13589460  1
  O  O238  1  0.48951214  0.75468490  0.62942324  1
  O  O239  1  1.00170608  0.24386671  0.13773559  1
  O  O240  1  0.99581293  0.24098267  0.62671855  1
  O  O241  1  0.99369452  0.74493415  0.13373912  1
  O  O242  1  0.99101413  0.75828470  0.63379231  1
  O  O243  1  0.01138415  0.24909572  0.36419938  1
  O  O244  1  0.01075560  0.25468334  0.87320970  1
  O  O245  1  0.00439109  0.75428258  0.36930739  1
  O  O246  1  0.00370112  0.76017069  0.86556643  1
  O  O247  1  0.51236454  0.25878334  0.37529127  1
  O  O248  1  0.50898415  0.26091998  0.86622983  1
  O  O249  1  0.50612064  0.75937817  0.37221230  1
  O  O250  1  0.50960922  0.75637892  0.86516389  1
  O  O251  1  0.24233264  0.13246705  0.50999735  1
  O  O252  1  0.25334648  0.14110894  0.99942998  1
  O  O253  1  0.24932767  0.63338852  0.50421440  1
  O  O254  1  0.23258552  0.61647527  0.99960940  1
  O  O255  1  0.74377371  0.13756214  0.49836021  1
  O  O256  1  0.72996613  0.11394218  1.00045221  1
  O  O257  1  0.75086283  0.64031347  0.49783001  1
  O  O258  1  0.75981477  0.63447931  0.98775837  1
  O  O259  1  0.25500500  0.37174005  0.00872857  1
  O  O260  1  0.24767015  0.36708005  0.51373208  1
  O  O261  1  0.23905012  0.87687633  0.01608914  1
  O  O262  1  0.25507926  0.86360767  0.50838538  1
  O  O263  1  0.75499500  0.37284537  0.01447899  1
  O  O264  1  0.75069650  0.36496678  0.50555622  1
  O  O265  1  0.75632130  0.87470981  0.00138732  1
  O  O266  1  0.75669251  0.87023393  0.50513293  1
  O  O267  1  0.13174413  0.49240664  0.25088875  1
  O  O268  1  0.13238105  0.49609241  0.74263607  1
  O  O269  1  0.11243389  0.98636895  0.23828001  1
  O  O270  1  0.13172316  0.99374173  0.74281526  1
  O  O271  1  0.62544762  0.48688900  0.25175452  1
  O  O272  1  0.63955248  0.49833403  0.74945140  1
  O  O273  1  0.62978457  0.99923292  0.24287837  1
  O  O274  1  0.62917844  0.99700378  0.73748327  1
  O  O275  1  0.35663721  -0.00289986  0.25008425  1
  O  O276  1  0.36896973  0.00529536  0.75754883  1
  O  O277  1  0.36974541  0.49504763  0.26313795  1
  O  O278  1  0.36945415  0.50825642  0.75033979  1
  O  O279  1  0.86826232  0.00551973  0.25514177  1
  O  O280  1  0.86041643  -0.00342392  0.74282057  1
  O  O281  1  0.87019785  0.51422210  0.25279909  1
  O  O282  1  0.86594200  0.50026945  0.75270789  1
  O  O283  1  0.12762970  0.36939140  0.36914452  1
  O  O284  1  0.11755277  0.36985972  0.86899305  1
  O  O285  1  0.10986129  0.86076991  0.38342501  1
  O  O286  1  0.11172608  0.87692269  0.86884832  1
  O  O287  1  0.62101054  0.37034642  0.36457108  1
  O  O288  1  0.61636143  0.37001021  0.87592761  1
  O  O289  1  0.61569333  0.87111267  0.36836724  1
  O  O290  1  0.62069842  0.86526986  0.86673797  1
  O  O291  1  0.33037105  0.13379002  0.14642790  1
  O  O292  1  0.38067306  0.11966160  0.64227867  1
  O  O293  1  0.36979312  0.64132322  0.12042589  1
  O  O294  1  0.37320619  0.63132699  0.63659743  1
  O  O295  1  0.88448128  0.13205064  0.13356281  1
  O  O296  1  0.88599815  0.13256580  0.61788339  1
  O  O297  1  0.87734028  0.62589286  0.13586066  1
  O  O298  1  0.87177714  0.63866570  0.62667898  1
  O  O299  1  0.23563042  0.26598469  0.11543697  1
  O  O300  1  0.24617685  0.26323685  0.61855051  1
  O  O301  1  0.24904909  0.75973179  0.12780867  1
  O  O302  1  0.26184450  0.75244187  0.61901206  1
  O  O303  1  0.76172869  0.25641442  0.13320030  1
  O  O304  1  0.75639846  0.25463364  0.61936130  1
  O  O305  1  0.74726292  0.75848693  0.11497482  1
  O  O306  1  0.75872768  0.75851904  0.61772580  1
  O  O307  1  0.24237579  0.25651749  0.38425460  1
  O  O308  1  0.24235337  0.25232421  0.88291711  1
  O  O309  1  0.23750135  0.75699883  0.38487706  1
  O  O310  1  0.24109950  0.74684154  0.86751360  1
  O  O311  1  0.74097096  0.25243884  0.38095495  1
  O  O312  1  0.72979616  0.26307153  0.87588302  1
  O  O313  1  0.73955390  0.76142796  0.38375203  1
  O  O314  1  0.74730683  0.74411070  0.87673251  1
  O  O315  1  -0.00364888  0.11668617  0.01085976  1
  O  O316  1  0.00995660  0.12035876  0.50862143  1
  O  O317  1  0.00290837  0.61771389  0.00632878  1
  O  O318  1  0.00954686  0.62998323  0.50283281  1
  O  O319  1  0.51544541  0.12388895  -0.00888039  1
  O  O320  1  0.50620156  0.11818081  0.50177810  1
  O  O321  1  0.50732021  0.65626595  0.01405083  1
  O  O322  1  0.50089578  0.60883774  0.49557235  1
  O  O323  1  0.50556630  0.38735918  0.48724290  1
  O  O324  1  0.49057124  0.37027398  0.99106914  1
  O  O325  1  0.49509003  0.87993081  0.49128713  1
  O  O326  1  0.50685694  0.86446736  0.98310656  1
  O  O327  1  0.99847428  0.36504138  0.49479054  1
  O  O328  1  1.00423448  0.38292257  0.99520025  1
  O  O329  1  0.99506771  0.88106125  0.49306182  1
  O  O330  1  0.99095704  0.88073577  0.99184621  1
  O  O331  1  0.49083478  0.49503661  0.37778916  1
  O  O332  1  0.50080268  0.48924514  0.86962522  1
  O  O333  1  0.50197638  0.99335444  0.38598573  1
  O  O334  1  0.50871156  0.98090352  0.86647326  1
  O  O335  1  0.97987764  0.50017110  0.36210548  1
  O  O336  1  1.00003161  0.49034593  0.88321172  1
  O  O337  1  0.99940575  0.99218081  0.37787974  1
  O  O338  1  1.00126809  0.99492385  0.88353675  1
  O  O339  1  0.00088054  0.00685893  0.12056422  1
  O  O340  1  0.00535695  0.00495302  0.61846367  1
  O  O341  1  0.00513438  0.50358960  0.12105274  1
  O  O342  1  0.01271894  0.49315661  0.63293772  1
  O  O343  1  0.50475857  -0.00352719  0.13162111  1
  O  O344  1  0.50894982  -0.00336856  0.61693305  1
  O  O345  1  0.51962160  0.49397906  0.12519390  1
  O  O346  1  0.49944469  0.49109718  0.60899791  1
  O  O347  1  0.24302185  0.37835812  0.24477410  1
  O  O348  1  0.24678201  0.37914450  0.74214257  1
  O  O349  1  0.23976991  0.88300324  0.23720028  1
  O  O350  1  0.24763211  0.88201178  0.74448154  1
  O  O351  1  0.73513057  0.36878512  0.24168551  1
  O  O352  1  0.75105134  0.38264613  0.74151622  1
  O  O353  1  0.74381213  0.88372822  0.24529112  1
  O  O354  1  0.74412319  0.88299299  0.74259874  1
  O  O355  1  0.21780694  0.09218034  0.25989521  1
  O  O356  1  0.25797682  0.11780269  0.75114710  1
  O  O357  1  0.24251244  0.60972649  0.24782810  1
  O  O358  1  0.25789201  0.61538048  0.74819001  1
  O  O359  1  0.75600643  0.11913867  0.25163101  1
  O  O360  1  0.74692811  0.11026140  0.74653351  1
  O  O361  1  0.75900590  0.63307868  0.24728549  1
  O  O362  1  0.75584940  0.61865298  0.76139111  1
  O  O363  1  0.37538982  0.11902987  0.36050281  1
  O  O364  1  0.37422329  0.12543325  0.86486089  1
  O  O365  1  0.37756413  0.61464762  0.37116049  1
  O  O366  1  0.37258129  0.62414232  0.86340652  1
  O  O367  1  0.87643256  0.11963234  0.37000047  1
  O  O368  1  0.85937209  0.16680175  0.86636333  1
  O  O369  1  0.87271909  0.61682452  0.36193322  1
  O  O370  1  0.87023216  0.62312214  0.87071979  1
  O  O371  1  0.13079810  0.38284977  0.13474039  1
  O  O372  1  0.13368808  0.38169589  0.63219177  1
  O  O373  1  0.12715700  0.87669506  0.12399161  1
  O  O374  1  0.13183926  0.88049448  0.62827576  1
  O  O375  1  0.63170988  0.38023052  0.13356042  1
  O  O376  1  0.63867659  0.37934876  0.62616370  1
  O  O377  1  0.63020209  0.89198915  0.13312971  1
  O  O378  1  0.63137918  0.88213800  0.62790919  1
  O  O379  1  0.12382334  0.25654376  0.25988693  1
  O  O380  1  0.12086603  0.25456625  0.75630142  1
  O  O381  1  0.11450447  0.74199010  0.26277979  1
  O  O382  1  0.11746835  0.75822258  0.74347353  1
  O  O383  1  0.61811581  0.25639432  0.25580546  1
  O  O384  1  0.61787103  0.25106382  0.75902210  1
  O  O385  1  0.62527307  0.76288575  0.25549687  1
  O  O386  1  0.62124250  0.75412718  0.75322587  1
  O  O387  1  0.39511594  0.25656337  0.25220159  1
  O  O388  1  0.38525544  0.24354098  0.75490928  1
  O  O389  1  0.36630920  0.75642598  0.23498159  1
  O  O390  1  0.38427976  0.74425275  0.74160390  1
  O  O391  1  0.88676529  0.24735859  0.24715932  1
  O  O392  1  0.88697920  0.25717875  0.73003205  1
  O  O393  1  0.88002262  0.73842712  0.25179358  1
  O  O394  1  0.88449422  0.75177614  0.74002768  1
  O  O395  1  0.38520756  0.50270245  0.48708951  1
  O  O396  1  0.36857343  0.48741720  0.99758447  1
  O  O397  1  0.38080517  0.99320953  0.50088321  1
  O  O398  1  0.36800405  0.99103513  0.99314014  1
  O  O399  1  0.87215204  0.50233294  0.48603308  1
  O  O400  1  0.88771500  0.49567392  1.00084554  1
  O  O401  1  0.88047891  0.99653250  0.49274318  1
  O  O402  1  0.88367093  0.99114810  1.00561973  1
  O  O403  1  0.10790524  -0.00475657  0.01319259  1
  O  O404  1  0.12320550  0.00660454  0.50485677  1
  O  O405  1  0.11484578  0.50653966  0.00557799  1
  O  O406  1  0.12835236  0.51269490  0.50539865  1
  O  O407  1  0.61937242  0.00297009  0.01486481  1
  O  O408  1  0.62200519  0.00368294  0.50847610  1
  O  O409  1  0.62714924  0.49568282  0.00658721  1
  O  O410  1  0.61187668  0.50251622  0.49642135  1
  O  O411  1  0.36625394  0.38052380  0.12019326  1
  O  O412  1  0.36037400  0.37745702  0.62788134  1
  O  O413  1  0.35199154  0.87051874  0.12252269  1
  O  O414  1  0.37143081  0.86649505  0.62030993  1
  O  O415  1  0.86715191  0.36899465  0.13269894  1
  O  O416  1  0.86442101  0.36783230  0.61986145  1
  O  O417  1  0.86553096  0.87280854  0.11589830  1
  O  O418  1  0.87058318  0.86717162  0.61647105  1
  O  O419  1  0.12101067  0.13457744  0.38942535  1
  O  O420  1  0.12801016  0.13692953  0.87094216  1
  O  O421  1  0.12137460  0.63172793  0.38990910  1
  O  O422  1  0.12255198  0.62368700  0.89064294  1
  O  O423  1  0.62707200  0.13498912  0.38057483  1
  O  O424  1  0.63061240  0.13323123  0.88476474  1
  O  O425  1  0.62024537  0.64003061  0.37579080  1
  O  O426  1  0.63548118  0.63781428  0.87051755  1
