# generated using pymatgen
data_V85Zn86O256
_symmetry_space_group_name_H-M   'P 1'
_cell_length_a   16.94019032
_cell_length_b   16.92697518
_cell_length_c   16.94112024
_cell_angle_alpha   89.94605746
_cell_angle_beta   90.06922039
_cell_angle_gamma   89.97444406
_symmetry_Int_Tables_number   1
_chemical_formula_structural   V85Zn86O256
_chemical_formula_sum   'V85 Zn86 O256'
_cell_volume   4857.79534801
_cell_formula_units_Z   1
loop_
 _symmetry_equiv_pos_site_id
 _symmetry_equiv_pos_as_xyz
  1  'x, y, z'
loop_
 _atom_site_type_symbol
 _atom_site_label
 _atom_site_symmetry_multiplicity
 _atom_site_fract_x
 _atom_site_fract_y
 _atom_site_fract_z
 _atom_site_occupancy
  V  V0  1  0.37315363  -0.00859932  0.88058025  1
  V  V1  1  0.12040428  0.87176271  0.75404855  1
  V  V2  1  0.74800517  0.37765395  0.62617670  1
  V  V3  1  0.87834103  0.38176085  -0.01081374  1
  V  V4  1  0.12667999  0.00219022  0.12448263  1
  V  V5  1  0.50522389  0.74846916  0.75933985  1
  V  V6  1  0.38076326  0.13902037  0.24612245  1
  V  V7  1  0.87465972  0.74432848  0.62292426  1
  V  V8  1  0.38065344  0.50037611  0.88268082  1
  V  V9  1  0.50242823  0.36998057  0.87885699  1
  V  V10  1  0.37558827  0.00048289  0.37381421  1
  V  V11  1  0.87532865  0.62033928  0.75849793  1
  V  V12  1  -0.00213210  0.51708257  -0.00146831  1
  V  V13  1  -0.00096611  0.38114211  0.37781742  1
  V  V14  1  -0.00451346  -0.00357685  0.48184128  1
  V  V15  1  0.24652347  0.61694092  0.87768297  1
  V  V16  1  0.37464157  0.74947557  0.62765122  1
  V  V17  1  0.25244622  0.37432378  0.12564672  1
  V  V18  1  0.75226706  0.49707077  0.76230335  1
  V  V19  1  0.61734426  0.25079938  0.36859741  1
  V  V20  1  0.11847162  0.87365230  0.25231648  1
  V  V21  1  0.26030639  0.25359797  0.00169551  1
  V  V22  1  0.87787415  0.38470672  0.49775612  1
  V  V23  1  0.74988465  0.74424612  0.49756764  1
  V  V24  1  0.87669319  0.87417592  0.48617414  1
  V  V25  1  0.49752617  -0.00362475  0.00212092  1
  V  V26  1  0.37465058  0.87415251  0.49962061  1
  V  V27  1  -0.00050451  0.62040398  0.61994001  1
  V  V28  1  0.11636926  0.75104128  0.37736068  1
  V  V29  1  0.87411095  0.25027060  0.11827695  1
  V  V30  1  0.48979983  0.50019723  0.49676749  1
  V  V31  1  0.74667364  0.75118468  -0.00696118  1
  V  V32  1  0.87039007  0.49764425  0.35557928  1
  V  V33  1  0.62751490  0.87386264  0.76280206  1
  V  V34  1  0.25070347  0.87640717  0.11215394  1
  V  V35  1  0.50032584  0.12564774  0.62651886  1
  V  V36  1  0.62721540  0.37947607  0.25162805  1
  V  V37  1  0.62636603  0.61955388  0.49858956  1
  V  V38  1  0.87712096  0.74061373  0.13046972  1
  V  V39  1  0.74406089  0.25080431  -0.01175852  1
  V  V40  1  -0.00291934  0.73591353  0.24488860  1
  V  V41  1  0.37547020  0.61580495  0.25553421  1
  V  V42  1  0.24992598  0.37890364  0.64067368  1
  V  V43  1  0.49110312  0.37768567  0.37067170  1
  V  V44  1  0.25164304  0.00009871  0.75076466  1
  V  V45  1  0.24860816  0.25371683  0.50304409  1
  V  V46  1  0.87911881  0.25101918  0.62793291  1
  V  V47  1  0.50006308  0.62343043  0.62687850  1
  V  V48  1  0.37644642  0.75544104  0.12157208  1
  V  V49  1  0.75367201  0.38176696  0.13248293  1
  V  V50  1  0.61771650  0.62480920  -0.00704385  1
  V  V51  1  0.63224108  0.88089941  0.25005042  1
  V  V52  1  0.00123619  0.25001196  0.24750606  1
  V  V53  1  0.49973642  0.87376917  0.37475434  1
  V  V54  1  0.24711962  0.74791343  0.49842877  1
  V  V55  1  0.62275877  0.12549260  0.49886892  1
  V  V56  1  0.11715454  0.12577631  0.50054710  1
  V  V57  1  0.88357044  0.87770887  -0.01150307  1
  V  V58  1  0.24772176  0.12597192  0.37524873  1
  V  V59  1  0.61682417  0.50220164  0.12465639  1
  V  V60  1  0.12526384  0.00326065  0.62485950  1
  V  V61  1  0.74533692  0.87289313  0.62423059  1
  V  V62  1  0.74967932  0.25054654  0.49818584  1
  V  V63  1  0.75359805  0.62028569  0.35787552  1
  V  V64  1  0.24926246  0.74486239  -0.00121466  1
  V  V65  1  -0.00043529  0.12435521  0.12117914  1
  V  V66  1  -0.05969541  0.07772737  0.68057472  1
  V  V67  1  0.62751576  0.74627059  0.37247602  1
  V  V68  1  0.12181219  0.51445467  0.11992131  1
  V  V69  1  0.12348698  0.37971918  0.24666765  1
  V  V70  1  0.38524775  0.37982362  0.01102643  1
  V  V71  1  0.00678862  0.26251482  0.74852247  1
  V  V72  1  0.75598316  0.88252239  0.12457436  1
  V  V73  1  0.49883426  0.75028037  0.24746128  1
  V  V74  1  0.12026480  0.74706449  0.87909020  1
  V  V75  1  0.12267719  0.61204194  0.49842724  1
  V  V76  1  0.62457711  0.36819747  0.75619866  1
  V  V77  1  0.12789656  0.13329203  -0.00141220  1
  V  V78  1  0.37708684  0.12568838  0.75238289  1
  V  V79  1  0.25071521  -0.00269412  0.25017933  1
  V  V80  1  0.24945642  0.87422616  0.62372100  1
  V  V81  1  0.75523738  0.11318604  0.86511619  1
  V  V82  1  0.37095748  0.61833121  0.75212549  1
  V  V83  1  0.62541684  0.00678971  0.12650632  1
  V  V84  1  0.12289845  0.49451770  0.64095535  1
  Zn  Zn85  1  0.37581634  0.25355054  0.62726660  1
  Zn  Zn86  1  0.49642168  0.62029444  0.12126492  1
  Zn  Zn87  1  0.50554031  0.24590321  0.75575901  1
  Zn  Zn88  1  0.00787257  0.38648526  0.87314250  1
  Zn  Zn89  1  0.49816282  0.13707078  0.12246833  1
  Zn  Zn90  1  0.13315997  0.26018371  0.86779438  1
  Zn  Zn91  1  0.86986327  0.10558840  0.25385210  1
  Zn  Zn92  1  0.36844238  0.38198779  0.49886686  1
  Zn  Zn93  1  0.62241550  0.49751285  0.62732133  1
  Zn  Zn94  1  0.75255187  0.10716995  0.36625339  1
  Zn  Zn95  1  0.25302458  0.49883572  0.25529654  1
  Zn  Zn96  1  0.75996586  -0.00023600  0.74699975  1
  Zn  Zn97  1  -0.01128297  0.00674510  -0.01965338  1
  Zn  Zn98  1  0.25317919  0.12796273  0.87595271  1
  Zn  Zn99  1  -0.00103642  0.74804146  0.75427691  1
  Zn  Zn100  1  0.25443727  0.61798973  0.37834023  1
  Zn  Zn101  1  0.12298518  0.25252995  0.37568307  1
  Zn  Zn102  1  0.74847640  0.62562030  0.87576232  1
  Zn  Zn103  1  0.49985393  0.87103952  0.88292444  1
  Zn  Zn104  1  0.62135227  0.12913776  -0.00900633  1
  Zn  Zn105  1  0.49949418  -0.00055089  0.50236025  1
  Zn  Zn106  1  0.62602445  0.00111614  0.62799482  1
  Zn  Zn107  1  0.19059733  0.19084506  0.18705213  1
  Zn  Zn108  1  0.18780404  0.18672031  0.68577204  1
  Zn  Zn109  1  0.19073675  0.69016329  0.19058454  1
  Zn  Zn110  1  0.18789212  0.68403580  0.68966703  1
  Zn  Zn111  1  0.68520115  0.19317366  0.18339429  1
  Zn  Zn112  1  0.68960412  0.18744908  0.68892315  1
  Zn  Zn113  1  0.68859527  0.69211361  0.17987260  1
  Zn  Zn114  1  0.68615245  0.68526107  0.68904259  1
  Zn  Zn115  1  0.30563239  0.31722434  0.31928681  1
  Zn  Zn116  1  0.31813318  0.31190830  0.81747126  1
  Zn  Zn117  1  0.30718813  0.80966552  0.31118785  1
  Zn  Zn118  1  0.30945905  0.80963507  0.81258469  1
  Zn  Zn119  1  0.80696708  0.25896788  0.30522294  1
  Zn  Zn120  1  0.81867391  0.31027837  0.81103411  1
  Zn  Zn121  1  0.81665759  0.93359451  0.31188763  1
  Zn  Zn122  1  0.81254758  0.81014131  0.81207824  1
  Zn  Zn123  1  0.18853900  0.43864379  0.43634574  1
  Zn  Zn124  1  0.18651266  0.43822797  0.93812585  1
  Zn  Zn125  1  0.18467816  0.93649225  0.43627146  1
  Zn  Zn126  1  0.15822447  0.95209300  0.92411497  1
  Zn  Zn127  1  0.68748281  0.43845594  0.43489494  1
  Zn  Zn128  1  0.68569147  0.43827787  0.94205584  1
  Zn  Zn129  1  0.68338925  0.93540939  0.44213400  1
  Zn  Zn130  1  0.68982240  0.94258365  0.94043450  1
  Zn  Zn131  1  0.31340594  0.06293289  0.06279010  1
  Zn  Zn132  1  0.31173416  0.06526128  0.56218848  1
  Zn  Zn133  1  0.31223641  0.56259139  0.06693575  1
  Zn  Zn134  1  0.30784540  0.56140705  0.56632907  1
  Zn  Zn135  1  0.81226757  0.06327450  0.05821966  1
  Zn  Zn136  1  0.80514589  0.05564450  0.54882420  1
  Zn  Zn137  1  0.80865492  0.56207178  0.06176340  1
  Zn  Zn138  1  0.81089127  0.55899998  0.56301293  1
  Zn  Zn139  1  0.43923581  0.31469743  0.18973375  1
  Zn  Zn140  1  0.43663953  0.43806962  0.68911913  1
  Zn  Zn141  1  0.43918802  0.93835412  0.18667332  1
  Zn  Zn142  1  0.44111241  0.93824673  0.69014264  1
  Zn  Zn143  1  0.94042223  0.43829317  0.17985812  1
  Zn  Zn144  1  0.93624801  0.44007857  0.68526262  1
  Zn  Zn145  1  0.94350501  0.93340346  0.17682119  1
  Zn  Zn146  1  0.93970609  0.91654388  0.67849551  1
  Zn  Zn147  1  0.06048105  0.06490985  0.30894141  1
  Zn  Zn148  1  0.06843035  0.06738524  0.81768803  1
  Zn  Zn149  1  0.06354183  0.55990682  0.31332658  1
  Zn  Zn150  1  0.06048447  0.56605365  0.81517148  1
  Zn  Zn151  1  0.56172619  0.06264647  0.31349185  1
  Zn  Zn152  1  0.56821300  0.06011210  0.81650430  1
  Zn  Zn153  1  0.56081564  0.55817507  0.30928350  1
  Zn  Zn154  1  0.56201727  0.55565414  0.81409319  1
  Zn  Zn155  1  0.43514538  0.18997950  0.43891995  1
  Zn  Zn156  1  0.43776937  0.18608691  0.94027384  1
  Zn  Zn157  1  0.43843647  0.68742546  0.43712916  1
  Zn  Zn158  1  0.43402557  0.68940361  0.94022609  1
  Zn  Zn159  1  0.93753595  0.19112602  0.43728152  1
  Zn  Zn160  1  0.93625760  0.19072547  0.93210750  1
  Zn  Zn161  1  0.93661284  0.68318687  0.43193369  1
  Zn  Zn162  1  0.93445290  0.69306834  0.94077821  1
  Zn  Zn163  1  0.06452231  0.31780126  0.05752794  1
  Zn  Zn164  1  0.06229232  0.31500281  0.56513097  1
  Zn  Zn165  1  0.06235019  0.80845175  0.06293007  1
  Zn  Zn166  1  0.05961504  0.81149680  0.56173255  1
  Zn  Zn167  1  0.56647486  0.31473648  0.06273102  1
  Zn  Zn168  1  0.56014707  0.31227861  0.56328620  1
  Zn  Zn169  1  0.56572574  0.81440650  0.06263315  1
  Zn  Zn170  1  0.56138039  0.80821295  0.56445446  1
  O  O171  1  0.11818988  0.12432115  0.12222459  1
  O  O172  1  0.12997829  0.11136381  0.61606901  1
  O  O173  1  0.13273171  0.61255511  0.12806877  1
  O  O174  1  0.11937640  0.61509430  0.62168690  1
  O  O175  1  0.62398276  0.11462988  0.12652341  1
  O  O176  1  0.61856468  0.12611054  0.61806981  1
  O  O177  1  0.62526734  0.61784329  0.11798021  1
  O  O178  1  0.61810291  0.62235559  0.61665390  1
  O  O179  1  0.38637011  0.37115635  0.37978913  1
  O  O180  1  0.38056343  0.38375441  0.88471480  1
  O  O181  1  0.37726298  0.88065646  0.37890514  1
  O  O182  1  0.37567473  0.88827945  0.86623400  1
  O  O183  1  0.88074728  0.38030308  0.38227674  1
  O  O184  1  0.87987630  0.37487652  0.88627267  1
  O  O185  1  0.87040283  0.86206597  0.38830282  1
  O  O186  1  0.87533576  0.86814244  0.88904003  1
  O  O187  1  0.25557048  0.00432153  0.37014712  1
  O  O188  1  0.25497162  0.00341122  0.86758054  1
  O  O189  1  0.24620803  0.50462715  0.36897329  1
  O  O190  1  0.26078773  0.51060817  0.88260724  1
  O  O191  1  0.75196328  -0.00404501  0.38012562  1
  O  O192  1  0.75434785  0.00787591  0.86901211  1
  O  O193  1  0.75839241  0.50759647  0.37697973  1
  O  O194  1  0.75010437  0.49996355  0.86517485  1
  O  O195  1  0.23943267  0.49144297  0.12783011  1
  O  O196  1  0.23849120  0.48819336  0.62450706  1
  O  O197  1  0.24886081  0.99297843  0.13252793  1
  O  O198  1  0.24237729  0.99434279  0.62753420  1
  O  O199  1  0.74456826  0.48585593  0.12083368  1
  O  O200  1  0.74865552  0.48705312  0.63193081  1
  O  O201  1  0.74170613  0.99079411  0.11830586  1
  O  O202  1  0.74876648  0.98724456  0.62504456  1
  O  O203  1  0.00999301  0.37129091  0.25142763  1
  O  O204  1  -0.00328306  0.36581954  0.75050328  1
  O  O205  1  0.01596878  0.86440134  0.23908619  1
  O  O206  1  0.01542391  0.86789731  0.74575377  1
  O  O207  1  0.50914732  0.37453875  0.26233321  1
  O  O208  1  0.50785611  0.37387338  0.75752059  1
  O  O209  1  0.50763421  0.86840060  0.25501778  1
  O  O210  1  0.51046863  0.86579997  0.74966380  1
  O  O211  1  0.48259404  0.12381636  0.25311586  1
  O  O212  1  0.49563145  0.12403440  0.74494800  1
  O  O213  1  0.49299127  0.63342772  0.24704802  1
  O  O214  1  0.49622802  0.63024482  0.74710910  1
  O  O215  1  0.99833759  0.13456118  0.23976469  1
  O  O216  1  0.99867852  0.12968096  0.74691213  1
  O  O217  1  1.00410429  0.63647140  0.25095471  1
  O  O218  1  0.99187161  0.62536322  0.73899187  1
  O  O219  1  0.36716016  0.26048901  -0.00062117  1
  O  O220  1  0.35820152  0.24777033  0.50474652  1
  O  O221  1  0.36417541  0.75090851  0.00922251  1
  O  O222  1  0.36915980  0.75341180  0.50653834  1
  O  O223  1  0.87113300  0.25942698  0.00543148  1
  O  O224  1  0.86713478  0.25855466  0.51010447  1
  O  O225  1  0.86747394  0.75897562  0.00837426  1
  O  O226  1  0.87146058  0.75009848  0.50815869  1
  O  O227  1  0.13092974  0.24146129  0.50257665  1
  O  O228  1  0.13677915  0.24347501  1.00496181  1
  O  O229  1  0.12664742  0.74374433  0.49432053  1
  O  O230  1  0.13778140  0.75450989  0.99267732  1
  O  O231  1  0.62977914  0.24159569  0.49784914  1
  O  O232  1  0.64149891  0.25231050  0.99985518  1
  O  O233  1  0.62649706  0.73677266  0.49501991  1
  O  O234  1  0.63383124  0.73712290  1.00884679  1
  O  O235  1  0.50200191  0.24997803  0.12485868  1
  O  O236  1  0.49664861  0.23855439  0.62849771  1
  O  O237  1  0.49255930  0.75191549  0.13137623  1
  O  O238  1  0.49280754  0.74235699  0.63381826  1
  O  O239  1  0.99714375  0.24210205  0.12455772  1
  O  O240  1  0.99311815  0.25164661  0.63487825  1
  O  O241  1  0.98778468  0.74891816  0.12848234  1
  O  O242  1  0.99093005  0.74093799  0.62706894  1
  O  O243  1  0.00197880  0.26199481  0.36281613  1
  O  O244  1  -0.00241972  0.25052888  0.85535431  1
  O  O245  1  0.01001152  0.74694205  0.36725880  1
  O  O246  1  0.01595518  0.74324050  0.87546775  1
  O  O247  1  0.50999244  0.26154575  0.38688225  1
  O  O248  1  0.49427783  0.26445325  0.87443311  1
  O  O249  1  0.50638405  0.75457775  0.36730213  1
  O  O250  1  0.49273411  0.75283738  0.86319773  1
  O  O251  1  0.23833510  0.12979840  0.49577497  1
  O  O252  1  0.24888880  0.13896150  1.00397622  1
  O  O253  1  0.24000069  0.63155405  0.50254057  1
  O  O254  1  0.25476605  0.63380032  0.99260239  1
  O  O255  1  0.74043441  0.13491858  0.49669967  1
  O  O256  1  0.74800708  0.13941207  0.99603359  1
  O  O257  1  0.74063496  0.62598001  0.49900035  1
  O  O258  1  0.74196201  0.63353782  0.99735344  1
  O  O259  1  0.26045752  0.37237283  0.00861743  1
  O  O260  1  0.24799752  0.36708109  0.50772212  1
  O  O261  1  0.24543721  0.87122250  0.01099510  1
  O  O262  1  0.25447098  0.86881573  0.50444646  1
  O  O263  1  0.75744167  0.36733800  0.00373009  1
  O  O264  1  0.75407598  0.37113018  0.50942350  1
  O  O265  1  0.75525216  0.86978177  0.00619250  1
  O  O266  1  0.75328850  0.86363827  0.50740136  1
  O  O267  1  0.12390929  0.49406977  0.23797461  1
  O  O268  1  0.12471350  0.50443512  0.73905142  1
  O  O269  1  0.12941279  0.99383894  0.24424677  1
  O  O270  1  0.13173137  0.99385248  0.74073153  1
  O  O271  1  0.62716610  0.48719617  0.24439499  1
  O  O272  1  0.63397071  0.48944232  0.74783102  1
  O  O273  1  0.61777073  0.99112583  0.24238242  1
  O  O274  1  0.62797213  0.98683868  0.74579067  1
  O  O275  1  0.37061534  0.00303350  0.26143357  1
  O  O276  1  0.37118901  0.00802292  0.75479460  1
  O  O277  1  0.37695691  0.51836540  0.24451451  1
  O  O278  1  0.37922544  0.51212935  0.75938599  1
  O  O279  1  0.87995880  -0.00539632  0.24359943  1
  O  O280  1  0.88586088  0.00828342  0.73246658  1
  O  O281  1  0.87411358  0.49190041  0.25630812  1
  O  O282  1  0.86545137  0.50861044  0.74383464  1
  O  O283  1  0.11627176  0.37562604  0.36591607  1
  O  O284  1  0.12038006  0.37096589  0.88132253  1
  O  O285  1  0.12927869  0.86449802  0.36543685  1
  O  O286  1  0.14465503  0.85741663  0.86104819  1
  O  O287  1  0.61789177  0.37145113  0.36904314  1
  O  O288  1  0.61468238  0.38265505  0.86971544  1
  O  O289  1  0.62001111  0.86722544  0.36820337  1
  O  O290  1  0.62540100  0.87725262  0.86553714  1
  O  O291  1  0.37354504  0.12176339  0.14425255  1
  O  O292  1  0.38232069  0.12484877  0.63291457  1
  O  O293  1  0.37664786  0.63844747  0.13391315  1
  O  O294  1  0.37813231  0.62792414  0.63455223  1
  O  O295  1  0.88353727  0.13409219  0.12112864  1
  O  O296  1  0.87591707  0.13039368  0.61791458  1
  O  O297  1  0.86326666  0.64231361  0.12385575  1
  O  O298  1  0.88154961  0.62716474  0.62794356  1
  O  O299  1  0.24720993  0.26585612  0.11933512  1
  O  O300  1  0.24798927  0.26273533  0.62094933  1
  O  O301  1  0.25533818  0.75637711  0.11857088  1
  O  O302  1  0.25433380  0.75412299  0.61912401  1
  O  O303  1  0.75907827  0.25802045  0.11183661  1
  O  O304  1  0.75598149  0.25833640  0.61815600  1
  O  O305  1  0.75731741  0.76267362  0.11732395  1
  O  O306  1  0.75616883  0.75082595  0.61883783  1
  O  O307  1  0.24315335  0.24553384  0.38520006  1
  O  O308  1  0.25235588  0.24946151  0.88697731  1
  O  O309  1  0.23832015  0.74517570  0.38231680  1
  O  O310  1  0.24899925  0.73914552  0.88326258  1
  O  O311  1  0.73323220  0.26488402  0.39338276  1
  O  O312  1  0.75475042  0.24965133  0.88618353  1
  O  O313  1  0.74076459  0.73555917  0.38491721  1
  O  O314  1  0.75091745  0.74908788  0.88896901  1
  O  O315  1  0.00907997  0.12752991  0.00302533  1
  O  O316  1  0.01072984  0.11926700  0.49381907  1
  O  O317  1  -0.00626274  0.61586424  0.00314006  1
  O  O318  1  0.00712464  0.62923717  0.51238574  1
  O  O319  1  0.50296984  0.11471898  0.00257982  1
  O  O320  1  0.50551551  0.12543168  0.50733432  1
  O  O321  1  0.51352739  0.63226786  0.00269995  1
  O  O322  1  0.50632372  0.61961032  0.50412076  1
  O  O323  1  0.49727300  0.38495881  0.49593068  1
  O  O324  1  0.49129481  0.37507256  0.99539281  1
  O  O325  1  0.49306620  0.87440723  0.49441389  1
  O  O326  1  0.50458570  0.88884189  1.00002027  1
  O  O327  1  0.99112600  0.36668777  0.48915641  1
  O  O328  1  0.99072278  0.38436393  1.00089439  1
  O  O329  1  0.98907316  0.88492321  0.50738444  1
  O  O330  1  0.98554011  0.87415542  1.00528246  1
  O  O331  1  0.50495740  0.49040482  0.38483907  1
  O  O332  1  0.48760671  0.48978102  0.87382344  1
  O  O333  1  0.49142574  0.99281959  0.37783651  1
  O  O334  1  0.49201433  0.99730420  0.88327898  1
  O  O335  1  0.99110977  0.48808760  0.36971388  1
  O  O336  1  1.00406721  0.50467439  0.89289389  1
  O  O337  1  1.00325168  0.99826179  0.38264248  1
  O  O338  1  1.04907535  0.98544661  0.88907902  1
  O  O339  1  0.00832303  0.01354276  0.11650501  1
  O  O340  1  0.00189728  0.00985461  0.62517831  1
  O  O341  1  0.01370290  0.50038703  0.11641410  1
  O  O342  1  0.01319037  0.50465091  0.62592449  1
  O  O343  1  0.50626102  0.00362773  0.11941097  1
  O  O344  1  0.50138964  0.01230648  0.62259766  1
  O  O345  1  0.51761477  0.50136682  0.12636636  1
  O  O346  1  0.50142243  0.50629923  0.61789051  1
  O  O347  1  0.23892684  0.37495129  0.24457262  1
  O  O348  1  0.25400600  0.37083910  0.73920038  1
  O  O349  1  0.23959186  0.87829647  0.24203273  1
  O  O350  1  0.24356783  0.87926159  0.74041116  1
  O  O351  1  0.74195676  0.35944275  0.23835188  1
  O  O352  1  0.74662652  0.37867741  0.74603059  1
  O  O353  1  0.73779892  0.87270191  0.24122682  1
  O  O354  1  0.74484838  0.87431730  0.74260235  1
  O  O355  1  0.25818078  0.12043659  0.25594729  1
  O  O356  1  0.25861053  0.11812740  0.74868523  1
  O  O357  1  0.26601857  0.62876053  0.25127332  1
  O  O358  1  0.26194336  0.63021292  0.76127013  1
  O  O359  1  0.76004885  0.15438827  0.25701544  1
  O  O360  1  0.75238539  0.12158005  0.75908341  1
  O  O361  1  0.74348873  0.62985963  0.25968885  1
  O  O362  1  0.75542762  0.61519831  0.75105891  1
  O  O363  1  0.36948211  0.11938839  0.36818514  1
  O  O364  1  0.37491737  0.11497938  0.86695759  1
  O  O365  1  0.37575106  0.63195449  0.36009090  1
  O  O366  1  0.37138834  0.61829030  0.87139524  1
  O  O367  1  0.86305678  0.15689140  0.36260416  1
  O  O368  1  0.85484159  0.12834919  0.88302582  1
  O  O369  1  0.86494478  0.61098078  0.37884756  1
  O  O370  1  0.87361276  0.63289551  0.86098118  1
  O  O371  1  0.13095557  0.38320859  0.13111075  1
  O  O372  1  0.13234152  0.38753643  0.62451429  1
  O  O373  1  0.13230966  0.88151354  0.12879302  1
  O  O374  1  0.12850906  0.88423104  0.62836051  1
  O  O375  1  0.63340637  0.38205202  0.13165498  1
  O  O376  1  0.63308080  0.37516273  0.63164491  1
  O  O377  1  0.63179832  0.88512068  0.13202992  1
  O  O378  1  0.63617636  0.87154026  0.62787333  1
  O  O379  1  0.11502912  0.25837726  0.24775263  1
  O  O380  1  0.10972548  0.24608919  0.74559835  1
  O  O381  1  0.12032492  0.75454284  0.25685682  1
  O  O382  1  0.12545399  0.75548238  0.75613401  1
  O  O383  1  0.62392331  0.25954757  0.26242282  1
  O  O384  1  0.62635542  0.26404797  0.74836958  1
  O  O385  1  0.61456293  0.75711867  0.25006481  1
  O  O386  1  0.61590499  0.75720625  0.74599926  1
  O  O387  1  0.37016604  0.24260516  0.25537487  1
  O  O388  1  0.37705745  0.23620536  0.74945523  1
  O  O389  1  0.38612813  0.74923176  0.24542890  1
  O  O390  1  0.38149333  0.74149266  0.74523588  1
  O  O391  1  0.89298283  0.26427130  0.22883196  1
  O  O392  1  0.88348387  0.25112614  0.73559401  1
  O  O393  1  0.88495149  0.75590041  0.23340326  1
  O  O394  1  0.87434064  0.74230939  0.73760921  1
  O  O395  1  0.38596757  0.50418422  0.50310558  1
  O  O396  1  0.37379148  0.49246728  0.99591261  1
  O  O397  1  0.37326449  0.99641784  0.48774198  1
  O  O398  1  0.38164144  1.00389707  0.99176057  1
  O  O399  1  0.87272155  0.48680143  0.49804312  1
  O  O400  1  0.88836121  0.49525703  1.00881401  1
  O  O401  1  0.88465449  0.98853573  0.50205863  1
  O  O402  1  0.87579261  0.98449069  1.00149910  1
  O  O403  1  0.14265622  0.02270853  0.01415239  1
  O  O404  1  0.11563890  0.00295738  0.50647784  1
  O  O405  1  0.11468993  0.50031699  0.01284686  1
  O  O406  1  0.12618358  0.51011443  0.50905319  1
  O  O407  1  0.61801292  0.00335689  0.00967051  1
  O  O408  1  0.62157977  0.01392883  0.50337414  1
  O  O409  1  0.63106001  0.51600682  0.00855127  1
  O  O410  1  0.61780800  0.50925927  0.50152686  1
  O  O411  1  0.36732820  0.37948777  0.12109421  1
  O  O412  1  0.36205513  0.37613053  0.62280510  1
  O  O413  1  0.36578396  0.86385875  0.13333811  1
  O  O414  1  0.37085937  0.87112018  0.61961207  1
  O  O415  1  0.86932691  0.37014546  0.11452842  1
  O  O416  1  0.86880075  0.36878997  0.61890095  1
  O  O417  1  0.86712105  0.86735271  0.11594222  1
  O  O418  1  0.86262954  0.86126112  0.61737467  1
  O  O419  1  0.13026870  0.12670064  0.38159377  1
  O  O420  1  0.13275258  0.13868676  0.88515456  1
  O  O421  1  0.12339072  0.63072360  0.38513111  1
  O  O422  1  0.13754522  0.63274244  0.86921584  1
  O  O423  1  0.62367878  0.13419134  0.38133687  1
  O  O424  1  0.64430139  0.12326349  0.87645340  1
  O  O425  1  0.62969329  0.62583579  0.38047451  1
  O  O426  1  0.62499772  0.62005209  0.88905149  1
