# generated using pymatgen
data_V85Zn86O256
_symmetry_space_group_name_H-M   'P 1'
_cell_length_a   16.91600815
_cell_length_b   16.93088230
_cell_length_c   16.92787852
_cell_angle_alpha   90.02710516
_cell_angle_beta   89.98672201
_cell_angle_gamma   90.02336471
_symmetry_Int_Tables_number   1
_chemical_formula_structural   V85Zn86O256
_chemical_formula_sum   'V85 Zn86 O256'
_cell_volume   4848.19315036
_cell_formula_units_Z   1
loop_
 _symmetry_equiv_pos_site_id
 _symmetry_equiv_pos_as_xyz
  1  'x, y, z'
loop_
 _atom_site_type_symbol
 _atom_site_label
 _atom_site_symmetry_multiplicity
 _atom_site_fract_x
 _atom_site_fract_y
 _atom_site_fract_z
 _atom_site_occupancy
  V  V0  1  0.49892469  0.24581035  0.24971960  1
  V  V1  1  0.50014078  0.86816233  0.87670301  1
  V  V2  1  0.37006199  0.87415335  0.00534721  1
  V  V3  1  -0.00227043  0.11489717  0.61908025  1
  V  V4  1  0.12321467  0.24937277  0.87647946  1
  V  V5  1  0.12478294  0.49931648  0.62330569  1
  V  V6  1  0.12516828  0.51862886  0.12513852  1
  V  V7  1  0.74862339  0.49977518  0.74794781  1
  V  V8  1  0.88972357  0.00403126  0.37904907  1
  V  V9  1  0.24967903  -0.00177239  0.74528035  1
  V  V10  1  0.24953418  0.37814612  0.12596852  1
  V  V11  1  0.26520919  0.50657888  0.25541737  1
  V  V12  1  0.25063679  0.12169361  0.87323564  1
  V  V13  1  0.63766372  0.38049940  0.24235701  1
  V  V14  1  0.62197223  0.62870731  -0.00196010  1
  V  V15  1  0.00695086  0.50489827  0.00462599  1
  V  V16  1  0.62067647  0.37246179  0.74751039  1
  V  V17  1  0.00030578  0.62544240  0.62225656  1
  V  V18  1  0.75591938  0.01193182  0.75037042  1
  V  V19  1  0.12719960  0.37987966  0.25195326  1
  V  V20  1  0.74169140  0.63008042  0.87164564  1
  V  V21  1  0.25355887  0.86145225  0.61624222  1
  V  V22  1  0.37755033  0.01303624  0.37910431  1
  V  V23  1  0.38279979  0.86320815  0.49966181  1
  V  V24  1  0.81410022  0.42319509  0.05772248  1
  V  V25  1  0.87214331  0.00981612  0.88341518  1
  V  V26  1  0.13658938  0.87532429  0.25041163  1
  V  V27  1  0.75116783  0.37265013  0.62199372  1
  V  V28  1  0.12015753  0.11753620  -0.00037657  1
  V  V29  1  0.37195141  0.36999132  0.50053974  1
  V  V30  1  0.75202309  0.75793266  -0.00165101  1
  V  V31  1  0.63255423  0.62903395  0.50040080  1
  V  V32  1  0.24863718  0.24999165  0.00079676  1
  V  V33  1  0.50084824  0.74903627  0.75064740  1
  V  V34  1  0.12372179  0.00035697  0.61024068  1
  V  V35  1  0.62382868  0.11831922  0.49606996  1
  V  V36  1  0.24781770  0.49848973  0.75119666  1
  V  V37  1  0.24705917  0.62499227  0.88233970  1
  V  V38  1  0.49656530  0.37897275  0.37093469  1
  V  V39  1  0.12989730  0.63158240  0.49665609  1
  V  V40  1  0.62355007  0.49914228  0.62196103  1
  V  V41  1  0.49540052  0.37400093  0.87538973  1
  V  V42  1  0.49384029  0.62894074  0.62249557  1
  V  V43  1  0.00163849  0.37463252  0.37562785  1
  V  V44  1  0.49419671  0.50276976  0.49334473  1
  V  V45  1  0.62951386  0.24902123  0.37372944  1
  V  V46  1  0.49538201  0.12209550  0.62227067  1
  V  V47  1  0.18228601  0.19279530  0.44022738  1
  V  V48  1  0.62176578  -0.00328297  0.62236053  1
  V  V49  1  0.26860197  0.62861365  0.37882435  1
  V  V50  1  0.00112677  0.11496135  0.12328884  1
  V  V51  1  0.24375407  0.75191400  0.00758463  1
  V  V52  1  0.75415029  0.23990909  -0.00523798  1
  V  V53  1  0.87405539  0.24198459  0.62375252  1
  V  V54  1  0.87298144  0.62518013  0.74740464  1
  V  V55  1  0.00440230  0.25351448  0.24394795  1
  V  V56  1  0.12182712  0.74685534  0.87925035  1
  V  V57  1  0.37395949  0.74772683  0.12927337  1
  V  V58  1  0.37121689  0.62929638  0.74769519  1
  V  V59  1  0.50016489  0.62208270  0.12840822  1
  V  V60  1  0.12468332  0.87421360  0.74894914  1
  V  V61  1  0.37403154  0.24882880  0.12945855  1
  V  V62  1  0.86942703  0.87567760  0.49771145  1
  V  V63  1  0.49950586  -0.00204091  -0.00077748  1
  V  V64  1  -0.01035190  0.87838996  0.88642036  1
  V  V65  1  0.50103845  0.74780073  0.25226624  1
  V  V66  1  0.62816357  0.87192537  0.75462230  1
  V  V67  1  0.87780816  0.62752095  0.24593716  1
  V  V68  1  -0.00466882  0.23925287  0.75233227  1
  V  V69  1  0.75521911  0.00415849  0.25256352  1
  V  V70  1  0.12250683  0.37264290  0.75221390  1
  V  V71  1  0.87417307  0.49249860  0.87262028  1
  V  V72  1  -0.00271961  0.75141706  0.74932284  1
  V  V73  1  0.62595031  0.00095180  0.12504002  1
  V  V74  1  0.87225237  0.24929947  0.11968850  1
  V  V75  1  0.49513867  0.12215589  0.12562397  1
  V  V76  1  0.86692208  0.74835984  0.61611248  1
  V  V77  1  0.87027631  0.49871981  0.37157284  1
  V  V78  1  0.00299686  0.74869799  0.24550285  1
  V  V79  1  0.13675834  -0.00613217  0.12539890  1
  V  V80  1  0.63358338  0.75439133  0.37903871  1
  V  V81  1  0.00576374  0.87456010  0.38072163  1
  V  V82  1  0.62648979  0.24115778  0.87354709  1
  V  V83  1  0.74979653  0.62362779  0.36810011  1
  V  V84  1  0.62747708  0.87643215  0.24856999  1
  Zn  Zn85  1  0.13229611  0.74992538  0.37805581  1
  Zn  Zn86  1  0.37470369  0.12382358  0.74828865  1
  Zn  Zn87  1  0.49672899  0.24712470  0.74747198  1
  Zn  Zn88  1  0.49841807  0.49896548  0.00156340  1
  Zn  Zn89  1  0.37458711  0.37724590  -0.00036830  1
  Zn  Zn90  1  0.75961773  0.12619999  0.37954511  1
  Zn  Zn91  1  -0.00556781  0.37175657  0.88298315  1
  Zn  Zn92  1  0.88056780  0.12632394  0.25221132  1
  Zn  Zn93  1  0.23808691  0.36234953  0.61014103  1
  Zn  Zn94  1  0.75257975  0.24826594  0.49918615  1
  Zn  Zn95  1  0.36893818  0.24599227  0.62446046  1
  Zn  Zn96  1  0.37337892  0.49877125  0.87735778  1
  Zn  Zn97  1  0.76095224  0.88072774  0.11874962  1
  Zn  Zn98  1  0.88347892  0.75776624  0.11882927  1
  Zn  Zn99  1  0.00017648  0.49959390  0.49781559  1
  Zn  Zn100  1  0.50506730  0.88248794  0.38419801  1
  Zn  Zn101  1  0.26326304  0.01609882  0.25330729  1
  Zn  Zn102  1  0.37397357  -0.00273035  0.87400407  1
  Zn  Zn103  1  0.74898744  0.87207641  0.62309795  1
  Zn  Zn104  1  0.87645499  0.37416569  0.49965474  1
  Zn  Zn105  1  0.63727775  0.49979678  0.12439244  1
  Zn  Zn106  1  0.62568960  0.12230081  -0.00411903  1
  Zn  Zn107  1  0.18927628  0.18917493  0.18945256  1
  Zn  Zn108  1  0.18513373  0.18527354  0.68049219  1
  Zn  Zn109  1  0.19348876  0.69017316  0.19608533  1
  Zn  Zn110  1  0.18520326  0.68652957  0.69008909  1
  Zn  Zn111  1  0.68813311  0.18661612  0.18568004  1
  Zn  Zn112  1  0.68305467  0.18594148  0.68540465  1
  Zn  Zn113  1  0.68916822  0.68873898  0.18471214  1
  Zn  Zn114  1  0.68376517  0.68936846  0.68657206  1
  Zn  Zn115  1  0.31150291  0.30897151  0.31634829  1
  Zn  Zn116  1  0.31143032  0.30806703  0.80539786  1
  Zn  Zn117  1  0.31600519  0.81322401  0.31576970  1
  Zn  Zn118  1  0.31264716  0.81167095  0.81333670  1
  Zn  Zn119  1  0.81641110  0.31011739  0.30997397  1
  Zn  Zn120  1  0.80965439  0.30777658  0.80898088  1
  Zn  Zn121  1  0.81445427  0.81485100  0.31072458  1
  Zn  Zn122  1  0.81112815  0.81272012  0.81199284  1
  Zn  Zn123  1  0.18799148  0.44230456  0.43370925  1
  Zn  Zn124  1  0.18441780  0.43760234  0.94028794  1
  Zn  Zn125  1  0.19545179  0.93892217  0.43554294  1
  Zn  Zn126  1  0.18474535  0.93450100  0.93708025  1
  Zn  Zn127  1  0.68543227  0.43808956  0.43470486  1
  Zn  Zn128  1  0.67709055  0.44034646  0.93245730  1
  Zn  Zn129  1  0.69467985  0.93983374  0.43649294  1
  Zn  Zn130  1  0.68683270  0.94108236  0.93207176  1
  Zn  Zn131  1  0.31267437  0.06328924  0.06228138  1
  Zn  Zn132  1  0.30892725  0.05851778  0.55001350  1
  Zn  Zn133  1  0.31520266  0.56405626  0.06260575  1
  Zn  Zn134  1  0.31187262  0.55843829  0.56193205  1
  Zn  Zn135  1  0.81391783  0.06258441  0.06304661  1
  Zn  Zn136  1  0.81320246  0.06145361  0.56290263  1
  Zn  Zn137  1  0.82520260  0.58764033  0.05252937  1
  Zn  Zn138  1  0.81280410  0.56057219  0.55672241  1
  Zn  Zn139  1  0.44098201  0.43336479  0.18536445  1
  Zn  Zn140  1  0.43499311  0.44014059  0.68627565  1
  Zn  Zn141  1  0.43639421  0.93489903  0.19292314  1
  Zn  Zn142  1  0.43519356  0.93730736  0.68406729  1
  Zn  Zn143  1  0.94285595  0.44670811  0.19179310  1
  Zn  Zn144  1  0.93925853  0.43350412  0.68857932  1
  Zn  Zn145  1  0.94087765  0.93385305  0.19071875  1
  Zn  Zn146  1  0.93465061  0.93484075  0.68986558  1
  Zn  Zn147  1  0.10235598  0.08304509  0.30133178  1
  Zn  Zn148  1  0.06099478  0.05764582  0.81075064  1
  Zn  Zn149  1  0.06389108  0.56327636  0.31390587  1
  Zn  Zn150  1  0.05977256  0.56267937  0.81421621  1
  Zn  Zn151  1  0.55783383  0.06132790  0.31435619  1
  Zn  Zn152  1  0.56045350  0.05743778  0.80843390  1
  Zn  Zn153  1  0.56525800  0.56192784  0.31013889  1
  Zn  Zn154  1  0.56056124  0.55970646  0.81172395  1
  Zn  Zn155  1  0.44213025  0.18810252  0.43922943  1
  Zn  Zn156  1  0.43644617  0.18869112  0.93869456  1
  Zn  Zn157  1  0.44240170  0.69525037  0.43882281  1
  Zn  Zn158  1  0.43395501  0.68735090  0.93832330  1
  Zn  Zn159  1  0.98188922  0.16801009  0.41782092  1
  Zn  Zn160  1  0.93692222  0.18560187  0.93939865  1
  Zn  Zn161  1  0.94146848  0.68887330  0.43446380  1
  Zn  Zn162  1  0.93327488  0.68509680  0.93358566  1
  Zn  Zn163  1  0.06127117  0.31931807  0.06254825  1
  Zn  Zn164  1  0.05777835  0.30893507  0.56329837  1
  Zn  Zn165  1  0.06288607  0.81445717  0.06514578  1
  Zn  Zn166  1  0.06108516  0.81320858  0.56153207  1
  Zn  Zn167  1  0.56559481  0.31180307  0.06022539  1
  Zn  Zn168  1  0.55934448  0.30853679  0.55917881  1
  Zn  Zn169  1  0.56668668  0.81053978  0.06327072  1
  Zn  Zn170  1  0.56227828  0.81015353  0.56562796  1
  O  O171  1  0.11924579  0.11903723  0.11521762  1
  O  O172  1  0.10991257  0.11281872  0.63124203  1
  O  O173  1  0.13049339  0.61684560  0.13000277  1
  O  O174  1  0.12230964  0.61787710  0.62030765  1
  O  O175  1  0.61295468  0.11985669  0.12289393  1
  O  O176  1  0.61750451  0.11623281  0.61785350  1
  O  O177  1  0.61976605  0.62165247  0.11777352  1
  O  O178  1  0.61906101  0.62094892  0.61638719  1
  O  O179  1  0.38903940  0.37059643  0.38198930  1
  O  O180  1  0.38231318  0.37342164  0.87469441  1
  O  O181  1  0.38170001  0.86965887  0.39042924  1
  O  O182  1  0.38093725  0.87377644  0.88690206  1
  O  O183  1  0.87978152  0.38333024  0.37395696  1
  O  O184  1  0.87235268  0.38877574  0.86617581  1
  O  O185  1  0.88266452  0.87981033  0.38125039  1
  O  O186  1  0.88617434  0.87839315  0.87145677  1
  O  O187  1  0.27018382  -0.00688826  0.37170356  1
  O  O188  1  0.24857802  0.00476022  0.86681806  1
  O  O189  1  0.25162677  0.50950081  0.36165532  1
  O  O190  1  0.24500433  0.51001916  0.87003321  1
  O  O191  1  0.76342410  0.00443408  0.36793641  1
  O  O192  1  0.76058980  -0.00388542  0.86265816  1
  O  O193  1  0.75637790  0.51024512  0.37756687  1
  O  O194  1  0.75324191  0.50547661  0.86730757  1
  O  O195  1  0.24331006  0.50121605  0.13439482  1
  O  O196  1  0.23732909  0.49632173  0.63202245  1
  O  O197  1  0.24060412  1.00624037  0.13214752  1
  O  O198  1  0.24140485  0.99383600  0.62979968  1
  O  O199  1  0.76169850  0.49327290  0.10899790  1
  O  O200  1  0.74495763  0.49364535  0.62827292  1
  O  O201  1  0.74415399  1.00120726  0.13287531  1
  O  O202  1  0.74228841  0.99679638  0.63585613  1
  O  O203  1  0.00830049  0.37387282  0.25275242  1
  O  O204  1  0.01028907  0.36618544  0.75282178  1
  O  O205  1  0.00844300  0.86670570  0.26280074  1
  O  O206  1  0.00487379  0.86674318  0.75634000  1
  O  O207  1  0.50698701  0.36524080  0.25472627  1
  O  O208  1  0.50532997  0.37422538  0.75429109  1
  O  O209  1  0.51514716  0.86528068  0.24949545  1
  O  O210  1  0.50124427  0.86680969  0.75496054  1
  O  O211  1  0.50602166  0.13879706  0.24221420  1
  O  O212  1  0.49736372  0.12255727  0.73802550  1
  O  O213  1  0.50948960  0.63843823  0.24339978  1
  O  O214  1  0.49333295  0.62954074  0.74469136  1
  O  O215  1  1.00662160  0.13805895  0.23922642  1
  O  O216  1  1.00336090  0.13550466  0.74617332  1
  O  O217  1  0.99144553  0.63614348  0.26117746  1
  O  O218  1  0.99295508  0.63104856  0.74414272  1
  O  O219  1  0.36735690  0.25008120  0.01238625  1
  O  O220  1  0.38361326  0.26679351  0.50099721  1
  O  O221  1  0.36575313  0.75552311  0.00664559  1
  O  O222  1  0.37704799  0.76288007  0.50487349  1
  O  O223  1  0.86777572  0.25198829  0.00411193  1
  O  O224  1  0.87317070  0.25312954  0.51757414  1
  O  O225  1  0.85763189  0.73954446  0.00131973  1
  O  O226  1  0.88087643  0.75667861  0.50755355  1
  O  O227  1  0.13803520  0.25998067  0.50242224  1
  O  O228  1  0.12934660  0.24307763  0.99584867  1
  O  O229  1  0.12492128  0.73545343  0.50224422  1
  O  O230  1  0.13413649  0.75448164  0.99431453  1
  O  O231  1  0.62653387  0.24506646  0.48573162  1
  O  O232  1  0.63406566  0.24839873  0.99133839  1
  O  O233  1  0.62034052  0.74112379  0.49216168  1
  O  O234  1  0.63431323  0.73733987  1.00070563  1
  O  O235  1  0.49414898  0.24394782  0.12915107  1
  O  O236  1  0.49889892  0.23646468  0.62539013  1
  O  O237  1  0.49782887  0.74114014  0.13133522  1
  O  O238  1  0.50166374  0.73595100  0.63322059  1
  O  O239  1  0.99031875  0.24682032  0.12489563  1
  O  O240  1  0.99395572  0.23882052  0.63274797  1
  O  O241  1  1.00252494  0.75217410  0.14030588  1
  O  O242  1  0.99207189  0.74406908  0.63048298  1
  O  O243  1  -0.00804374  0.26734770  0.35894448  1
  O  O244  1  0.00356062  0.25100568  0.86926123  1
  O  O245  1  0.00732834  0.75825463  0.36799166  1
  O  O246  1  0.00269276  0.75562333  0.87149305  1
  O  O247  1  0.50834296  0.25577850  0.36629794  1
  O  O248  1  0.50609662  0.25886989  0.87460095  1
  O  O249  1  0.51443336  0.75262149  0.36711585  1
  O  O250  1  0.49596211  0.76020244  0.86867918  1
  O  O251  1  0.23781835  0.12722087  0.49479728  1
  O  O252  1  0.24026819  0.12898370  0.99391033  1
  O  O253  1  0.24609867  0.61527685  0.48630445  1
  O  O254  1  0.25393276  0.63479313  0.98820677  1
  O  O255  1  0.73837532  0.12782828  0.50078893  1
  O  O256  1  0.74658644  0.13613752  1.00099657  1
  O  O257  1  0.73765128  0.62208308  0.49153501  1
  O  O258  1  0.74150728  0.63208995  0.98917281  1
  O  O259  1  0.24834676  0.36728355  0.00812214  1
  O  O260  1  0.26880828  0.38814387  0.49590480  1
  O  O261  1  0.25845639  0.86450103  -0.00365259  1
  O  O262  1  0.25634742  0.87080051  0.51157053  1
  O  O263  1  0.74830138  0.36968738  0.00000429  1
  O  O264  1  0.74834814  0.37395124  0.51154091  1
  O  O265  1  0.74189291  0.86014049  -0.00536197  1
  O  O266  1  0.76427948  0.87361740  0.50193448  1
  O  O267  1  0.13236065  0.49864181  0.24029258  1
  O  O268  1  0.12614898  0.49352422  0.74493218  1
  O  O269  1  0.11889010  0.98609264  0.24049761  1
  O  O270  1  0.13412873  0.99123855  0.74572736  1
  O  O271  1  0.62546685  0.48552116  0.24638885  1
  O  O272  1  0.62956461  0.49387064  0.74167982  1
  O  O273  1  0.63146831  0.99435939  0.24725648  1
  O  O274  1  0.63505878  0.99126106  0.74537178  1
  O  O275  1  0.37595768  -0.00680361  0.26685457  1
  O  O276  1  0.36148577  0.00074240  0.75088415  1
  O  O277  1  0.36300989  0.49655032  0.24451335  1
  O  O278  1  0.36691614  0.50998506  0.75308347  1
  O  O279  1  0.86984765  0.00259518  0.25857130  1
  O  O280  1  0.85980893  -0.00609101  0.75508971  1
  O  O281  1  0.87857237  0.51113990  0.26162846  1
  O  O282  1  0.87002325  0.50581899  0.75417999  1
  O  O283  1  0.11752402  0.38582407  0.36070139  1
  O  O284  1  0.12164702  0.36810738  0.86903453  1
  O  O285  1  0.12143601  0.87349946  0.37080815  1
  O  O286  1  0.11511115  0.86581266  0.86971588  1
  O  O287  1  0.61758002  0.36810514  0.36650338  1
  O  O288  1  0.61676798  0.36643813  0.86652612  1
  O  O289  1  0.62625072  0.87033662  0.37040524  1
  O  O290  1  0.61567055  0.87793287  0.86233858  1
  O  O291  1  0.38630472  0.13091845  0.12395713  1
  O  O292  1  0.38813384  0.11660441  0.61615076  1
  O  O293  1  0.38485335  0.63891583  0.12109752  1
  O  O294  1  0.38175925  0.61882950  0.63348178  1
  O  O295  1  0.88497045  0.13188729  0.12580501  1
  O  O296  1  0.88392671  0.12833850  0.62988959  1
  O  O297  1  0.87336034  0.63372789  0.14226539  1
  O  O298  1  0.87881508  0.62970712  0.62607846  1
  O  O299  1  0.25711190  0.25416138  0.12340416  1
  O  O300  1  0.25503346  0.25373389  0.63129213  1
  O  O301  1  0.25935442  0.74447600  0.11789179  1
  O  O302  1  0.24826033  0.76386915  0.63208292  1
  O  O303  1  0.76381662  0.24585905  0.11725855  1
  O  O304  1  0.75541227  0.25620446  0.62701579  1
  O  O305  1  0.74946997  0.75166351  0.10854082  1
  O  O306  1  0.76279309  0.74939070  0.62819889  1
  O  O307  1  0.23852806  0.24767243  0.37483801  1
  O  O308  1  0.24272617  0.24014140  0.87845143  1
  O  O309  1  0.25092191  0.73218360  0.36920121  1
  O  O310  1  0.24067116  0.74526281  0.88155803  1
  O  O311  1  0.74405381  0.24658255  0.37548403  1
  O  O312  1  0.74049257  0.25414921  0.88218521  1
  O  O313  1  0.73974948  0.74441115  0.37252340  1
  O  O314  1  0.75263107  0.74013933  0.88221503  1
  O  O315  1  0.01267159  0.12817002  0.00684971  1
  O  O316  1  -0.00625512  0.12091459  0.52123695  1
  O  O317  1  -0.01924429  0.60449454  -0.00158938  1
  O  O318  1  0.00940436  0.62173785  0.50512962  1
  O  O319  1  0.49984917  0.11641418  0.00707237  1
  O  O320  1  0.51578103  0.12733719  0.50621202  1
  O  O321  1  0.50678812  0.62726480  0.00672537  1
  O  O322  1  0.50675719  0.62081526  0.50508600  1
  O  O323  1  0.49645203  0.38334247  0.49103431  1
  O  O324  1  0.49946781  0.37601548  0.99028121  1
  O  O325  1  0.48768055  0.87321605  0.50591004  1
  O  O326  1  0.49624891  0.87621860  0.99310411  1
  O  O327  1  0.99859881  0.37661693  0.48938563  1
  O  O328  1  1.00167098  0.39360393  0.99839486  1
  O  O329  1  0.99282839  0.86994293  0.48718773  1
  O  O330  1  1.00178667  0.87118793  0.98435611  1
  O  O331  1  0.50660999  0.49187402  0.38109058  1
  O  O332  1  0.49943121  0.48582890  0.87472289  1
  O  O333  1  0.48780402  0.99591636  0.37352904  1
  O  O334  1  0.49628147  0.98690909  0.87860607  1
  O  O335  1  0.99288665  0.48961173  0.37356181  1
  O  O336  1  0.98982750  0.49857802  0.88061380  1
  O  O337  1  0.99167716  0.99080646  0.36919894  1
  O  O338  1  0.98723968  0.98691556  0.86801419  1
  O  O339  1  0.00719103  0.01232913  0.13009310  1
  O  O340  1  0.00607474  0.00802472  0.63598206  1
  O  O341  1  0.01704199  0.50153528  0.12186166  1
  O  O342  1  0.00938498  0.50590122  0.62578517  1
  O  O343  1  0.50370559  0.00598986  0.12250612  1
  O  O344  1  0.51463647  0.00377659  0.63131086  1
  O  O345  1  0.49942824  0.51431280  0.12731732  1
  O  O346  1  0.50579269  0.51062068  0.61881301  1
  O  O347  1  0.24507564  0.38668937  0.24826054  1
  O  O348  1  0.23541533  0.38126318  0.75301223  1
  O  O349  1  0.23839358  0.87348142  0.25394277  1
  O  O350  1  0.24686972  0.87970608  0.74250737  1
  O  O351  1  0.73577906  0.37015010  0.25127677  1
  O  O352  1  0.74178157  0.37910910  0.73823018  1
  O  O353  1  0.74134236  0.88667275  0.25196801  1
  O  O354  1  0.74007214  0.87725246  0.74739561  1
  O  O355  1  0.20917247  0.11528041  0.26659519  1
  O  O356  1  0.24708761  0.11460270  0.75778266  1
  O  O357  1  0.25285118  0.61438681  0.26216628  1
  O  O358  1  0.25482296  0.62194790  0.75871675  1
  O  O359  1  0.75286451  0.11428831  0.25209527  1
  O  O360  1  0.74535999  0.11031691  0.74811217  1
  O  O361  1  0.75704184  0.63103674  0.26112526  1
  O  O362  1  0.75128281  0.62095477  0.75444154  1
  O  O363  1  0.37980870  0.11326468  0.38187629  1
  O  O364  1  0.36039535  0.12152140  0.87763580  1
  O  O365  1  0.36780739  0.62636545  0.38204763  1
  O  O366  1  0.36453358  0.62445777  0.86746363  1
  O  O367  1  0.88412454  0.11846803  0.37389955  1
  O  O368  1  0.88254416  0.10878486  0.87309605  1
  O  O369  1  0.86710118  0.62056620  0.37100546  1
  O  O370  1  0.86231484  0.61338299  0.86776276  1
  O  O371  1  0.13262581  0.38552680  0.13403331  1
  O  O372  1  0.12141829  0.38304654  0.63266509  1
  O  O373  1  0.12220186  0.88447119  0.13388365  1
  O  O374  1  0.13400152  0.87840787  0.62891524  1
  O  O375  1  0.62218943  0.37727726  0.13768373  1
  O  O376  1  0.62917959  0.37772688  0.62751617  1
  O  O377  1  0.63017363  0.88234463  0.13289168  1
  O  O378  1  0.62564226  0.87964923  0.63447626  1
  O  O379  1  0.11188033  0.26660122  0.23663203  1
  O  O380  1  0.11692075  0.25562869  0.75616597  1
  O  O381  1  0.12059584  0.75766698  0.25333883  1
  O  O382  1  0.11800131  0.75467514  0.75843358  1
  O  O383  1  0.62035472  0.25681844  0.25620816  1
  O  O384  1  0.62252918  0.25580079  0.75607055  1
  O  O385  1  0.62408267  0.75880060  0.25564000  1
  O  O386  1  0.61080813  0.75596498  0.74734858  1
  O  O387  1  0.38296904  0.25482934  0.23898459  1
  O  O388  1  0.37930431  0.24125390  0.74504320  1
  O  O389  1  0.38833557  0.75875054  0.24142501  1
  O  O390  1  0.38401565  0.73813262  0.75401550  1
  O  O391  1  0.88558927  0.24978267  0.23815734  1
  O  O392  1  0.88477199  0.25668041  0.73909185  1
  O  O393  1  0.88542734  0.74380364  0.25510082  1
  O  O394  1  0.87879949  0.74328617  0.74279775  1
  O  O395  1  0.38992313  0.49341168  0.50244239  1
  O  O396  1  0.37833693  0.49696563  0.99604515  1
  O  O397  1  0.37222039  0.98553375  0.48698896  1
  O  O398  1  0.37959474  0.99008636  1.00063753  1
  O  O399  1  0.87845260  0.49797499  0.48622157  1
  O  O400  1  0.87129236  0.49054274  0.99633993  1
  O  O401  1  0.87318826  0.99074709  0.49121162  1
  O  O402  1  0.86618558  0.99923509  0.98298362  1
  O  O403  1  0.12968381  0.00643030  0.00907666  1
  O  O404  1  0.12458389  -0.00982491  0.51142015  1
  O  O405  1  0.12273219  0.50404461  0.01479793  1
  O  O406  1  0.12394133  0.50732037  0.50895066  1
  O  O407  1  0.61878635  0.00048193  0.00522975  1
  O  O408  1  0.63181515  0.00513544  0.50937728  1
  O  O409  1  0.62160677  0.51254575  0.00394964  1
  O  O410  1  0.61554612  0.50737789  0.50321487  1
  O  O411  1  0.36875778  0.36627100  0.12315427  1
  O  O412  1  0.37733798  0.37657697  0.60888714  1
  O  O413  1  0.38483557  0.86319857  0.11297382  1
  O  O414  1  0.36146611  0.88071505  0.61541662  1
  O  O415  1  0.87475976  0.37242498  0.12497997  1
  O  O416  1  0.86591323  0.37016855  0.62444019  1
  O  O417  1  0.87321632  0.87061282  0.12965731  1
  O  O418  1  0.87638913  0.86585504  0.61597530  1
  O  O419  1  0.09696819  0.14244751  0.39721557  1
  O  O420  1  0.13148050  0.12533083  0.88105155  1
  O  O421  1  0.13430356  0.62370383  0.38409148  1
  O  O422  1  0.12988647  0.63866080  0.87033522  1
  O  O423  1  0.62672961  0.13150722  0.38014359  1
  O  O424  1  0.61605721  0.13761237  0.87394471  1
  O  O425  1  0.63224468  0.63149178  0.37965839  1
  O  O426  1  0.63373072  0.62008132  0.87951567  1
