# generated using pymatgen
data_V85Zn86O256
_symmetry_space_group_name_H-M   'P 1'
_cell_length_a   16.94445546
_cell_length_b   16.93568931
_cell_length_c   16.93690407
_cell_angle_alpha   90.01613812
_cell_angle_beta   89.92180974
_cell_angle_gamma   89.95117241
_symmetry_Int_Tables_number   1
_chemical_formula_structural   V85Zn86O256
_chemical_formula_sum   'V85 Zn86 O256'
_cell_volume   4860.30969233
_cell_formula_units_Z   1
loop_
 _symmetry_equiv_pos_site_id
 _symmetry_equiv_pos_as_xyz
  1  'x, y, z'
loop_
 _atom_site_type_symbol
 _atom_site_label
 _atom_site_symmetry_multiplicity
 _atom_site_fract_x
 _atom_site_fract_y
 _atom_site_fract_z
 _atom_site_occupancy
  V  V0  1  0.62672223  0.75492088  0.36821206  1
  V  V1  1  -0.00206786  0.50011156  -0.01168073  1
  V  V2  1  0.24898705  0.37431781  0.12532172  1
  V  V3  1  0.11760325  0.25520701  0.87491945  1
  V  V4  1  0.24703669  0.49961025  0.74909181  1
  V  V5  1  0.87232590  0.23244655  0.61999855  1
  V  V6  1  0.12302608  0.50238829  0.11796511  1
  V  V7  1  0.24712694  0.49863287  0.25044088  1
  V  V8  1  0.49433037  -0.00423560  0.00090531  1
  V  V9  1  0.37962052  0.62594221  0.74337269  1
  V  V10  1  0.25058816  0.76718294  0.00413514  1
  V  V11  1  0.87002260  0.87532783  0.00511928  1
  V  V12  1  0.24515094  0.00201666  0.74520295  1
  V  V13  1  0.12737447  0.87544165  0.24190758  1
  V  V14  1  0.24932518  0.62378542  0.88501750  1
  V  V15  1  0.49594027  0.25225122  0.74905785  1
  V  V16  1  0.24753356  0.87775164  0.62323472  1
  V  V17  1  0.50864800  0.25831022  0.25406086  1
  V  V18  1  0.75899640  0.37082827  0.61271197  1
  V  V19  1  0.25348925  -0.00293717  0.24458240  1
  V  V20  1  0.11924444  0.24758783  0.38110950  1
  V  V21  1  0.87971782  0.74492297  0.62188829  1
  V  V22  1  0.00359501  0.74577767  0.74381046  1
  V  V23  1  0.87901731  0.25094505  0.12260886  1
  V  V24  1  0.74939100  0.75353706  0.00447941  1
  V  V25  1  0.24730788  0.24554711  0.50100083  1
  V  V26  1  0.62125669  0.37637186  0.75135598  1
  V  V27  1  0.50220160  0.49803497  -0.00327376  1
  V  V28  1  0.37383575  0.37483938  0.50152657  1
  V  V29  1  0.12103504  0.75666942  0.37455907  1
  V  V30  1  0.11707608  0.37546186  0.25410086  1
  V  V31  1  0.75441384  0.62225709  0.37803982  1
  V  V32  1  0.11296435  0.62578218  0.50245435  1
  V  V33  1  0.50272445  0.87834908  0.36711013  1
  V  V34  1  0.62388787  -0.00035843  0.62547714  1
  V  V35  1  0.11806262  0.50265015  0.62452270  1
  V  V36  1  0.62374214  0.62904009  0.50516818  1
  V  V37  1  0.37570546  0.87767816  0.49409024  1
  V  V38  1  0.38151689  0.37235644  -0.00293297  1
  V  V39  1  -0.00035191  0.62366316  0.12012093  1
  V  V40  1  0.37398804  -0.00415957  0.87329530  1
  V  V41  1  0.75452912  0.12644151  0.86645367  1
  V  V42  1  0.37599313  0.12337560  0.25716049  1
  V  V43  1  0.37384965  0.50192919  0.37457742  1
  V  V44  1  0.62225261  0.50101637  0.62554439  1
  V  V45  1  0.61822865  0.25283335  0.87471982  1
  V  V46  1  0.87744181  0.62285259  0.75408559  1
  V  V47  1  -0.00020699  0.24805383  0.25504751  1
  V  V48  1  0.75815742  0.87653118  0.62498166  1
  V  V49  1  0.11254532  0.37495016  0.75166090  1
  V  V50  1  0.49581107  0.00175048  0.49615985  1
  V  V51  1  0.50696129  0.12027640  0.12842437  1
  V  V52  1  0.12521686  0.74605063  0.87864577  1
  V  V53  1  0.62661444  0.62240979  0.00621609  1
  V  V54  1  0.63245453  0.25845894  0.38135167  1
  V  V55  1  0.37247959  0.76164550  0.12454187  1
  V  V56  1  0.24735809  0.62493994  0.37437431  1
  V  V57  1  0.62609938  0.11617843  -0.00221891  1
  V  V58  1  0.87438012  -0.01420077  0.37847572  1
  V  V59  1  0.62582335  0.74999079  0.87358673  1
  V  V60  1  0.75118974  0.25159621  -0.00309867  1
  V  V61  1  0.74530982  0.37285742  0.12597188  1
  V  V62  1  0.49687138  0.86946522  0.87304230  1
  V  V63  1  0.25055950  0.74958272  0.50047004  1
  V  V64  1  0.87490874  0.61882442  0.25217101  1
  V  V65  1  0.01027772  -0.00769680  0.49596103  1
  V  V66  1  0.75459897  0.49864807  0.75416140  1
  V  V67  1  0.37587357  0.24917183  0.12735825  1
  V  V68  1  -0.00010593  0.75301775  0.25149844  1
  V  V69  1  0.74188220  0.49566846  0.25060528  1
  V  V70  1  0.49838823  0.50705246  0.50138646  1
  V  V71  1  0.75217789  0.00134415  0.75039852  1
  V  V72  1  0.00020569  0.87297386  0.87295925  1
  V  V73  1  0.75429843  0.75555690  0.50029890  1
  V  V74  1  0.02238635  0.11638326  0.62370049  1
  V  V75  1  0.87739226  0.47824297  0.37620219  1
  V  V76  1  0.00107087  -0.00122402  0.00110453  1
  V  V77  1  -0.00500131  0.48452863  0.49728689  1
  V  V78  1  0.37761532  0.49511862  0.87325412  1
  V  V79  1  0.12672605  0.12465103  -0.00037829  1
  V  V80  1  0.87831268  0.38031214  -0.01523652  1
  V  V81  1  0.87656057  0.00340687  0.86651311  1
  V  V82  1  0.25027509  0.24933501  -0.00151673  1
  V  V83  1  0.24805067  0.11997719  0.37709835  1
  V  V84  1  0.63178819  0.12864788  0.49922777  1
  Zn  Zn85  1  0.00243434  0.12412727  0.12666685  1
  Zn  Zn86  1  0.25275209  0.12528344  0.87261005  1
  Zn  Zn87  1  0.62482360  0.87259857  0.74945378  1
  Zn  Zn88  1  0.12514286  0.87573393  0.74435925  1
  Zn  Zn89  1  0.61955695  0.49406681  0.13037732  1
  Zn  Zn90  1  0.24560328  0.37251194  0.62595990  1
  Zn  Zn91  1  0.75253309  0.62167824  0.87647606  1
  Zn  Zn92  1  0.75293946  0.12229273  0.37033850  1
  Zn  Zn93  1  0.87569303  0.11735630  0.25642390  1
  Zn  Zn94  1  0.38337783  0.74646000  0.61870635  1
  Zn  Zn95  1  0.37683977  0.12240602  0.74759766  1
  Zn  Zn96  1  0.37486068  0.24867553  0.62452561  1
  Zn  Zn97  1  -0.00915632  0.24001591  0.75196525  1
  Zn  Zn98  1  0.50141799  0.38080777  0.37205682  1
  Zn  Zn99  1  0.50212724  0.74945563  0.24551511  1
  Zn  Zn100  1  0.37560705  0.62682114  0.24686127  1
  Zn  Zn101  1  0.50593859  0.74420189  0.74075341  1
  Zn  Zn102  1  0.49908597  0.12664997  0.62453075  1
  Zn  Zn103  1  0.49339509  0.62302439  0.12632220  1
  Zn  Zn104  1  0.12943857  -0.00475058  0.12110305  1
  Zn  Zn105  1  0.72005664  0.96098051  0.25350253  1
  Zn  Zn106  1  0.87069931  0.75330800  0.13029422  1
  Zn  Zn107  1  0.18622336  0.18574671  0.18752900  1
  Zn  Zn108  1  0.18927580  0.18908662  0.68935177  1
  Zn  Zn109  1  0.18769729  0.68635035  0.18405281  1
  Zn  Zn110  1  0.19213285  0.68689349  0.68675837  1
  Zn  Zn111  1  0.69563975  0.10893967  0.18724927  1
  Zn  Zn112  1  0.68767815  0.18987311  0.68452714  1
  Zn  Zn113  1  0.68584740  0.79671837  0.18296784  1
  Zn  Zn114  1  0.69018263  0.68596787  0.68715799  1
  Zn  Zn115  1  0.31108917  0.31139125  0.31530528  1
  Zn  Zn116  1  0.30563538  0.31478312  0.81263598  1
  Zn  Zn117  1  0.31316178  0.81468938  0.31207819  1
  Zn  Zn118  1  0.31274751  0.81266787  0.81205301  1
  Zn  Zn119  1  0.80224936  0.29614418  0.30093511  1
  Zn  Zn120  1  0.81088195  0.31068852  0.80349676  1
  Zn  Zn121  1  0.81977778  0.81037169  0.31772516  1
  Zn  Zn122  1  0.81204413  0.81341387  0.81401997  1
  Zn  Zn123  1  0.18436916  0.43344551  0.43834752  1
  Zn  Zn124  1  0.18773666  0.43559808  0.93707679  1
  Zn  Zn125  1  0.18619621  0.93817069  0.43324955  1
  Zn  Zn126  1  0.18541195  0.93735177  0.93020520  1
  Zn  Zn127  1  0.68636801  0.43831171  0.43569297  1
  Zn  Zn128  1  0.68885931  0.43520338  0.93559507  1
  Zn  Zn129  1  0.68876727  0.93892294  0.43880144  1
  Zn  Zn130  1  0.68705350  0.94135029  1.07032651  1
  Zn  Zn131  1  0.31567395  0.06245007  0.06452096  1
  Zn  Zn132  1  0.31411666  0.06466866  0.56517751  1
  Zn  Zn133  1  0.31420045  0.56374517  0.06363626  1
  Zn  Zn134  1  0.30512953  0.56089071  0.56217499  1
  Zn  Zn135  1  0.81875958  0.06738218  0.05649216  1
  Zn  Zn136  1  0.81586854  0.05825430  0.55354885  1
  Zn  Zn137  1  0.81159270  0.56217417  0.06422984  1
  Zn  Zn138  1  0.81393698  0.56140580  0.56567678  1
  Zn  Zn139  1  0.43483005  0.43925939  0.18516986  1
  Zn  Zn140  1  0.43893964  0.43754076  0.68528123  1
  Zn  Zn141  1  0.43797006  0.93867179  0.18726451  1
  Zn  Zn142  1  0.43527300  0.93337065  0.68590771  1
  Zn  Zn143  1  0.93479980  0.43455202  0.18392527  1
  Zn  Zn144  1  0.93745410  0.43860410  0.68456677  1
  Zn  Zn145  1  0.93608700  0.93666752  0.19016117  1
  Zn  Zn146  1  0.94164904  0.93638937  0.68205564  1
  Zn  Zn147  1  0.06021497  0.06204807  0.31630967  1
  Zn  Zn148  1  0.06422251  0.06509835  0.81129091  1
  Zn  Zn149  1  0.05956290  0.56213378  0.31455703  1
  Zn  Zn150  1  0.06336902  0.56812172  0.80977028  1
  Zn  Zn151  1  0.56260066  0.06648370  0.31785096  1
  Zn  Zn152  1  0.56278889  0.06287791  0.81180339  1
  Zn  Zn153  1  0.56195682  0.57058916  0.31409038  1
  Zn  Zn154  1  0.56254008  0.56200295  0.81712731  1
  Zn  Zn155  1  0.43821599  0.18740133  0.43815975  1
  Zn  Zn156  1  0.43799947  0.18288885  0.93438009  1
  Zn  Zn157  1  0.43850014  0.68942106  0.43516980  1
  Zn  Zn158  1  0.43397266  0.68546421  0.93906632  1
  Zn  Zn159  1  0.93458718  0.18092428  0.44388875  1
  Zn  Zn160  1  0.93875932  0.18688066  0.93745072  1
  Zn  Zn161  1  0.93693199  0.68574122  0.43601868  1
  Zn  Zn162  1  0.93662260  0.68624160  0.93656099  1
  Zn  Zn163  1  0.06025979  0.31611021  0.06168109  1
  Zn  Zn164  1  0.05849961  0.30587498  0.56699034  1
  Zn  Zn165  1  0.06232261  0.80932731  0.06171131  1
  Zn  Zn166  1  0.06281130  0.81513307  0.56159397  1
  Zn  Zn167  1  0.56350521  0.30756238  0.06332015  1
  Zn  Zn168  1  0.56134907  0.31768149  0.56295454  1
  Zn  Zn169  1  0.55341263  0.80909754  0.05447816  1
  Zn  Zn170  1  0.56236117  0.81436293  0.56326607  1
  O  O171  1  0.12353189  0.12460788  0.11090996  1
  O  O172  1  0.12073678  0.12448786  0.62188963  1
  O  O173  1  0.11486607  0.61263893  0.13082479  1
  O  O174  1  0.13155484  0.61642707  0.61404196  1
  O  O175  1  0.61213603  0.13932222  0.11057539  1
  O  O176  1  0.62379009  0.11555695  0.61913794  1
  O  O177  1  0.61930124  0.61729576  0.10819433  1
  O  O178  1  0.63174458  0.61700552  0.61277157  1
  O  O179  1  0.37390334  0.38384160  0.38581387  1
  O  O180  1  0.36742736  0.38713957  0.88234972  1
  O  O181  1  0.38308831  0.87101925  0.38683899  1
  O  O182  1  0.38126001  0.88551508  0.87150097  1
  O  O183  1  0.86638891  0.38060766  0.36833559  1
  O  O184  1  0.86928126  0.37054907  0.88640043  1
  O  O185  1  0.87893095  0.88588978  0.37844793  1
  O  O186  1  0.88134917  0.88170045  0.88343064  1
  O  O187  1  0.24450050  0.01437250  0.36515972  1
  O  O188  1  0.25937954  -0.00037983  0.86827483  1
  O  O189  1  0.25147566  0.50667648  0.37229144  1
  O  O190  1  0.25416821  0.50662278  0.87042100  1
  O  O191  1  0.76021171  -0.00358443  0.36937230  1
  O  O192  1  0.76075180  0.01003463  0.86544260  1
  O  O193  1  0.75789458  0.50204063  0.37032323  1
  O  O194  1  0.74501486  0.49997035  0.85786324  1
  O  O195  1  0.24115773  0.49577073  0.12863593  1
  O  O196  1  0.23533088  0.49679608  0.62908021  1
  O  O197  1  0.24748742  1.00670010  0.13931350  1
  O  O198  1  0.25560335  0.99167614  0.63332348  1
  O  O199  1  0.74974088  0.49176322  0.13416654  1
  O  O200  1  0.74048776  0.49322422  0.63158169  1
  O  O201  1  0.74815927  1.01770152  0.12749766  1
  O  O202  1  0.74746461  0.99323608  0.62839497  1
  O  O203  1  0.01248384  0.37101448  0.24545940  1
  O  O204  1  0.01005520  0.37500106  0.74774686  1
  O  O205  1  0.00702864  0.85874829  0.24533950  1
  O  O206  1  0.00175135  0.86343003  0.75427093  1
  O  O207  1  0.49415179  0.36201133  0.24942998  1
  O  O208  1  0.51324713  0.37102624  0.74567865  1
  O  O209  1  0.49389645  0.87178187  0.26350653  1
  O  O210  1  0.50220070  0.87344324  0.76123771  1
  O  O211  1  0.49267455  0.13462187  0.24527839  1
  O  O212  1  0.50105107  0.13787818  0.74840976  1
  O  O213  1  0.49480979  0.63044654  0.24655618  1
  O  O214  1  0.48255599  0.62098984  0.75606823  1
  O  O215  1  0.99838126  0.13463006  0.24564036  1
  O  O216  1  1.00532652  0.12135658  0.73213443  1
  O  O217  1  0.99321714  0.62825685  0.24293065  1
  O  O218  1  0.99389236  0.63724195  0.74932273  1
  O  O219  1  0.37272461  0.25549667  0.00273119  1
  O  O220  1  0.36883526  0.26001390  0.49862036  1
  O  O221  1  0.35945928  0.74717068  0.00743494  1
  O  O222  1  0.36705474  0.75658489  0.49768777  1
  O  O223  1  0.87470009  0.26103120  0.00254319  1
  O  O224  1  0.88142169  0.25173455  0.52078075  1
  O  O225  1  0.86710131  0.75877885  -0.00355527  1
  O  O226  1  0.86637100  0.74262328  0.50798457  1
  O  O227  1  0.13319200  0.25591683  0.49151629  1
  O  O228  1  0.12796429  0.24609090  0.99432623  1
  O  O229  1  0.12805228  0.74336905  0.49282961  1
  O  O230  1  0.13826755  0.75141955  0.99285799  1
  O  O231  1  0.61217307  0.24361638  0.48891083  1
  O  O232  1  0.62925303  0.24393712  0.98961644  1
  O  O233  1  0.63326800  0.74355829  0.49530499  1
  O  O234  1  0.63044410  0.74039089  0.99279532  1
  O  O235  1  0.49679688  0.24493041  0.13743614  1
  O  O236  1  0.49875138  0.25181576  0.63510791  1
  O  O237  1  0.48254660  0.74660575  0.12145800  1
  O  O238  1  0.49631972  0.75321926  0.62771149  1
  O  O239  1  0.99549270  0.25157999  0.13170760  1
  O  O240  1  0.99322565  0.23191032  0.62703757  1
  O  O241  1  0.99900419  0.73870901  0.13114158  1
  O  O242  1  0.99197209  0.75403299  0.63121586  1
  O  O243  1  0.00781210  0.24376201  0.36890663  1
  O  O244  1  0.01291699  0.24336487  0.87056648  1
  O  O245  1  0.00990792  0.74096526  0.36485156  1
  O  O246  1  0.00882069  0.75127598  0.86939757  1
  O  O247  1  0.50048321  0.25421468  0.36478537  1
  O  O248  1  0.51200473  0.24642043  0.86915741  1
  O  O249  1  0.51045043  0.75872072  0.37602511  1
  O  O250  1  0.50274379  0.75460174  0.87427865  1
  O  O251  1  0.25793489  0.13626346  0.49077887  1
  O  O252  1  0.24437350  0.13141388  0.99929488  1
  O  O253  1  0.24014969  0.62736125  0.48935708  1
  O  O254  1  0.25114431  0.62568257  0.98708839  1
  O  O255  1  0.73416862  0.11921645  0.49696623  1
  O  O256  1  0.74304567  0.13190768  0.98733178  1
  O  O257  1  0.74429310  0.63186442  0.49771945  1
  O  O258  1  0.74362792  0.62714307  0.99510498  1
  O  O259  1  0.26030572  0.36974114  0.00538114  1
  O  O260  1  0.25662365  0.36507843  0.49945053  1
  O  O261  1  0.24853336  0.86555306  -0.00208977  1
  O  O262  1  0.25724874  0.87271306  0.50111371  1
  O  O263  1  0.76142657  0.37298981  0.00301236  1
  O  O264  1  0.74469718  0.38061119  0.51527844  1
  O  O265  1  0.75906960  0.86786403  0.00094191  1
  O  O266  1  0.74651945  0.86288108  0.50852223  1
  O  O267  1  0.12743889  0.49234453  0.24476127  1
  O  O268  1  0.12510738  0.49677459  0.74169209  1
  O  O269  1  0.12917218  0.99104343  0.24880050  1
  O  O270  1  0.14107259  0.99408505  0.75968661  1
  O  O271  1  0.63867739  0.50528885  0.25215695  1
  O  O272  1  0.62801923  0.49571193  0.74303009  1
  O  O273  1  0.63287911  1.02752191  0.24254425  1
  O  O274  1  0.63141701  0.99864778  0.74089539  1
  O  O275  1  0.36786797  0.01131218  0.24713810  1
  O  O276  1  0.36684157  -0.00127220  0.75650832  1
  O  O277  1  0.36473170  0.49982072  0.25634267  1
  O  O278  1  0.37023104  0.50376453  0.75598382  1
  O  O279  1  0.88672596  0.00075085  0.26784159  1
  O  O280  1  0.87401770  -0.00756597  0.76161653  1
  O  O281  1  0.87376218  0.50194209  0.25849489  1
  O  O282  1  0.86723344  0.50948914  0.74150091  1
  O  O283  1  0.13085563  0.36212489  0.36413869  1
  O  O284  1  0.12780587  0.36650757  0.86710394  1
  O  O285  1  0.12802296  0.86100481  0.36564524  1
  O  O286  1  0.11911879  0.86177575  0.87059658  1
  O  O287  1  0.61872846  0.36345402  0.38045473  1
  O  O288  1  0.63060979  0.36438660  0.86462313  1
  O  O289  1  0.61714336  0.86634817  0.38091272  1
  O  O290  1  0.61466825  0.85661966  0.87275749  1
  O  O291  1  0.38537705  0.13236719  0.13275812  1
  O  O292  1  0.38117079  0.13064804  0.62955878  1
  O  O293  1  0.37301944  0.63529242  0.12698689  1
  O  O294  1  0.36688720  0.62077857  0.64058632  1
  O  O295  1  0.88148655  0.14261982  0.11984247  1
  O  O296  1  0.86477145  0.13201946  0.62701391  1
  O  O297  1  0.88328083  0.62259906  0.13540504  1
  O  O298  1  0.86919097  0.63812895  0.63546589  1
  O  O299  1  0.25534060  0.25425117  0.11937227  1
  O  O300  1  0.25207425  0.25247135  0.61501331  1
  O  O301  1  0.25453581  0.74740882  0.11117442  1
  O  O302  1  0.25703939  0.75533464  0.61625115  1
  O  O303  1  0.76180929  0.25942710  0.11134010  1
  O  O304  1  0.75822400  0.26150241  0.62668522  1
  O  O305  1  0.75453569  0.73810451  0.10772240  1
  O  O306  1  0.75591808  0.75697454  0.61926971  1
  O  O307  1  0.24319587  0.24158863  0.38097745  1
  O  O308  1  0.23958562  0.24802639  0.88215217  1
  O  O309  1  0.24241471  0.74223542  0.37921584  1
  O  O310  1  0.24665915  0.74547999  0.88505162  1
  O  O311  1  0.73373729  0.25687922  0.38382878  1
  O  O312  1  0.74241229  0.24454125  0.87566466  1
  O  O313  1  0.74660916  0.74457458  0.38459832  1
  O  O314  1  0.74203061  0.74849544  0.88383285  1
  O  O315  1  0.00836196  0.11548884  -0.00045633  1
  O  O316  1  -0.00297807  0.11404508  0.51756429  1
  O  O317  1  -0.00842327  0.61725603  0.01223645  1
  O  O318  1  0.01106615  0.61801430  0.49655122  1
  O  O319  1  0.50638130  0.11968009  0.00652867  1
  O  O320  1  0.50754372  0.11674337  0.50006184  1
  O  O321  1  0.50545038  0.61388550  -0.00176760  1
  O  O322  1  0.50736729  0.61526799  0.49574648  1
  O  O323  1  0.49143917  0.38892672  0.49892693  1
  O  O324  1  0.48781139  0.37708426  1.00359692  1
  O  O325  1  0.49385461  0.88221427  0.49217081  1
  O  O326  1  0.50054143  0.88506566  0.98487266  1
  O  O327  1  1.00343302  0.38631783  0.50154156  1
  O  O328  1  0.98663683  0.38362632  1.00081073  1
  O  O329  1  1.00027605  0.89226424  0.50919178  1
  O  O330  1  0.99758323  0.88073354  0.99179619  1
  O  O331  1  0.49326917  0.50065695  0.38225540  1
  O  O332  1  0.49050174  0.49846273  0.88551383  1
  O  O333  1  0.50553655  0.99206328  0.38475263  1
  O  O334  1  0.49477263  0.99402042  0.88024376  1
  O  O335  1  0.99345640  0.49912174  0.38746396  1
  O  O336  1  1.00827371  0.50874195  0.88957052  1
  O  O337  1  0.99300914  1.00373520  0.38838303  1
  O  O338  1  0.99617240  0.99609385  0.88199536  1
  O  O339  1  0.00196461  -0.00010249  0.11070750  1
  O  O340  1  -0.00130212  0.00930515  0.61647985  1
  O  O341  1  0.00584677  0.50463544  0.11844453  1
  O  O342  1  0.00897556  0.49988443  0.61224615  1
  O  O343  1  0.49389290  0.01034373  0.11589377  1
  O  O344  1  0.50982154  -0.00262253  0.61800842  1
  O  O345  1  0.50054363  0.49857674  0.11163557  1
  O  O346  1  0.51374788  0.49775367  0.61778732  1
  O  O347  1  0.24141923  0.37857331  0.24449858  1
  O  O348  1  0.23862247  0.38433917  0.74800753  1
  O  O349  1  0.24195868  0.88631887  0.25682890  1
  O  O350  1  0.25250365  0.87999283  0.73926921  1
  O  O351  1  0.75482898  0.38225499  0.23760616  1
  O  O352  1  0.73915964  0.38139800  0.74051943  1
  O  O353  1  0.76056428  0.86078495  0.23868682  1
  O  O354  1  0.74740767  0.88114529  0.74237081  1
  O  O355  1  0.25758087  0.12241028  0.25603779  1
  O  O356  1  0.25334081  0.11662692  0.75184537  1
  O  O357  1  0.24584135  0.61851169  0.26179633  1
  O  O358  1  0.25858379  0.61841331  0.76010222  1
  O  O359  1  0.76684316  0.15851762  0.25820845  1
  O  O360  1  0.74390235  0.12183293  0.76035942  1
  O  O361  1  0.76670698  0.61215095  0.25714837  1
  O  O362  1  0.75779912  0.61583699  0.75023526  1
  O  O363  1  0.36688469  0.13168981  0.36355305  1
  O  O364  1  0.37476435  0.11128709  0.87046223  1
  O  O365  1  0.36399886  0.61992985  0.37410304  1
  O  O366  1  0.36788676  0.61287625  0.86916463  1
  O  O367  1  0.87113865  0.11366290  0.37818588  1
  O  O368  1  0.86679621  0.11717209  0.87893849  1
  O  O369  1  0.87104519  0.61550765  0.36933008  1
  O  O370  1  0.87225254  0.63030538  0.85900872  1
  O  O371  1  0.13044069  0.38153531  0.13201107  1
  O  O372  1  0.12352045  0.38195981  0.63282926  1
  O  O373  1  0.12378005  0.87334976  0.13753606  1
  O  O374  1  0.14277080  0.86855297  0.62469879  1
  O  O375  1  0.64032960  0.37577448  0.11544960  1
  O  O376  1  0.63331148  0.38194665  0.63057133  1
  O  O377  1  0.62225822  0.86573069  0.12064720  1
  O  O378  1  0.63646978  0.88615533  0.62413983  1
  O  O379  1  0.11592172  0.25608781  0.25368863  1
  O  O380  1  0.12408047  0.25913251  0.75742810  1
  O  O381  1  0.12100481  0.75354160  0.25525653  1
  O  O382  1  0.11901488  0.74961582  0.75487792  1
  O  O383  1  0.60922286  0.24802265  0.26550426  1
  O  O384  1  0.61732682  0.25750849  0.75413143  1
  O  O385  1  0.62590934  0.74103326  0.26606080  1
  O  O386  1  0.62479315  0.74767401  0.75811543  1
  O  O387  1  0.38152698  0.24414431  0.24633698  1
  O  O388  1  0.38769606  0.25694655  0.75401333  1
  O  O389  1  0.36917244  0.74935740  0.23527210  1
  O  O390  1  0.37367261  0.73257601  0.75202432  1
  O  O391  1  0.89212388  0.25998798  0.23975662  1
  O  O392  1  0.87904976  0.26091058  0.72851451  1
  O  O393  1  0.88517866  0.73723876  0.25114718  1
  O  O394  1  0.88252359  0.74529972  0.74333288  1
  O  O395  1  0.38014856  0.49805296  0.49654382  1
  O  O396  1  0.38010921  0.49225230  0.99327728  1
  O  O397  1  0.38785536  0.99394940  0.50324114  1
  O  O398  1  0.38680623  1.00560878  0.99207255  1
  O  O399  1  0.88835060  0.50388841  0.49427674  1
  O  O400  1  0.88122878  0.48820359  1.00108755  1
  O  O401  1  0.88314843  0.99837834  0.48635062  1
  O  O402  1  0.88322235  0.99440606  0.98945870  1
  O  O403  1  0.11959344  0.00625701  -0.00159589  1
  O  O404  1  0.11121269  -0.00007554  0.49137000  1
  O  O405  1  0.11684425  0.49077603  0.01191805  1
  O  O406  1  0.11553007  0.50434622  0.50344529  1
  O  O407  1  0.61443664  0.01215891  -0.00137850  1
  O  O408  1  0.61734448  0.00657064  0.50665676  1
  O  O409  1  0.61658406  0.50328323  -0.00480083  1
  O  O410  1  0.61795898  0.50736764  0.50503310  1
  O  O411  1  0.36830772  0.36898122  0.11718792  1
  O  O412  1  0.37086689  0.37715567  0.61213468  1
  O  O413  1  0.37539903  0.86159374  0.12522781  1
  O  O414  1  0.36665974  0.87321461  0.61088880  1
  O  O415  1  0.86853347  0.36738209  0.11450810  1
  O  O416  1  0.85997264  0.37977146  0.62318600  1
  O  O417  1  0.88562348  0.87194693  0.10867089  1
  O  O418  1  0.86403365  0.86374606  0.63002035  1
  O  O419  1  0.13486257  0.13865255  0.36771411  1
  O  O420  1  0.12858202  0.13126693  0.88645648  1
  O  O421  1  0.13014065  0.63151720  0.38085697  1
  O  O422  1  0.13486877  0.63796026  0.86934261  1
  O  O423  1  0.62664942  0.13978712  0.38371934  1
  O  O424  1  0.63172481  0.13134175  0.88088377  1
  O  O425  1  0.63391311  0.63025521  0.38807377  1
  O  O426  1  0.62518376  0.63375488  0.88263736  1
