# generated using pymatgen
data_V85Zn86O256
_symmetry_space_group_name_H-M   'P 1'
_cell_length_a   16.94875148
_cell_length_b   16.94078663
_cell_length_c   16.93505579
_cell_angle_alpha   90.04235467
_cell_angle_beta   89.90787137
_cell_angle_gamma   89.95848761
_symmetry_Int_Tables_number   1
_chemical_formula_structural   V85Zn86O256
_chemical_formula_sum   'V85 Zn86 O256'
_cell_volume   4862.47209045
_cell_formula_units_Z   1
loop_
 _symmetry_equiv_pos_site_id
 _symmetry_equiv_pos_as_xyz
  1  'x, y, z'
loop_
 _atom_site_type_symbol
 _atom_site_label
 _atom_site_symmetry_multiplicity
 _atom_site_fract_x
 _atom_site_fract_y
 _atom_site_fract_z
 _atom_site_occupancy
  V  V0  1  0.75258419  0.49878473  0.25435128  1
  V  V1  1  0.00136979  0.24099240  0.74994686  1
  V  V2  1  0.62615872  0.62246217  -0.00019472  1
  V  V3  1  0.06686973  0.30747391  0.91834705  1
  V  V4  1  0.00336444  0.60828646  0.11571855  1
  V  V5  1  0.25135823  0.25100396  -0.00295160  1
  V  V6  1  0.49955347  0.00188856  0.50802950  1
  V  V7  1  0.87307419  0.24575677  0.63093475  1
  V  V8  1  0.36694593  0.87778789  0.50286936  1
  V  V9  1  0.74644524  0.11812525  0.37322251  1
  V  V10  1  0.87266427  0.24975550  0.12887184  1
  V  V11  1  0.37701848  0.37419788  -0.00479632  1
  V  V12  1  0.87275337  0.87273975  -0.00211955  1
  V  V13  1  0.50046004  0.00125285  0.00320487  1
  V  V14  1  0.00983044  0.24491074  0.25505412  1
  V  V15  1  0.63741903  0.49593754  0.62514361  1
  V  V16  1  0.62393086  0.37683807  0.25398033  1
  V  V17  1  0.74936969  0.74974469  0.00073548  1
  V  V18  1  0.37217575  -0.00014922  0.37458406  1
  V  V19  1  -0.00200841  -0.00187913  0.49834289  1
  V  V20  1  0.50246306  0.87668752  0.36923244  1
  V  V21  1  0.24916516  0.74576446  0.49670328  1
  V  V22  1  0.75197418  0.00988962  0.74811482  1
  V  V23  1  0.00985742  0.75002140  0.24198388  1
  V  V24  1  0.87505951  0.62007023  0.74962751  1
  V  V25  1  0.62297755  0.12637177  0.00226973  1
  V  V26  1  0.12471397  0.49528819  0.62261611  1
  V  V27  1  0.24048233  0.87025393  0.12771459  1
  V  V28  1  0.12393099  0.12321710  -0.00223842  1
  V  V29  1  0.13422027  0.75019879  0.87313036  1
  V  V30  1  0.87306649  0.87234681  0.49650469  1
  V  V31  1  0.74699188  0.25534302  0.00166172  1
  V  V32  1  0.62202074  0.49771329  0.12755277  1
  V  V33  1  0.74968437  0.87434868  0.62605308  1
  V  V34  1  0.49663660  0.62171637  0.12821781  1
  V  V35  1  0.37382678  0.87439709  0.00275571  1
  V  V36  1  0.62800728  0.75376515  0.37394076  1
  V  V37  1  0.50605704  0.74885242  0.24975644  1
  V  V38  1  0.75147613  0.61836225  0.87437933  1
  V  V39  1  0.75129592  0.12683180  0.87450860  1
  V  V40  1  0.89137037  0.49323693  0.88211155  1
  V  V41  1  0.50216927  0.49363474  -0.00618692  1
  V  V42  1  0.24723688  0.12783574  0.86955540  1
  V  V43  1  0.00701678  0.87296251  0.36636002  1
  V  V44  1  0.75136338  0.25288570  0.50587973  1
  V  V45  1  -0.00111823  0.36887311  0.37594993  1
  V  V46  1  0.50031949  0.74522245  0.74850303  1
  V  V47  1  0.74700157  0.87737019  0.13676573  1
  V  V48  1  0.86949045  0.11895800  0.24978946  1
  V  V49  1  0.12492868  -0.01319638  0.62805953  1
  V  V50  1  0.11964862  0.12805181  0.50024459  1
  V  V51  1  0.00104587  0.62195972  0.62074417  1
  V  V52  1  0.62583418  0.25580527  0.37909067  1
  V  V53  1  0.37428306  0.74781045  0.13096587  1
  V  V54  1  0.62702625  -0.00123883  0.14228838  1
  V  V55  1  0.25103827  0.25009615  0.50109849  1
  V  V56  1  0.50107011  0.87662231  0.87597293  1
  V  V57  1  0.00396124  0.75292163  0.74984008  1
  V  V58  1  0.48144921  0.38326665  0.37998069  1
  V  V59  1  -0.00391627  0.49971996  0.48961648  1
  V  V60  1  0.87238097  0.37651700  0.50236711  1
  V  V61  1  0.87366062  0.00002532  0.86996279  1
  V  V62  1  0.23974920  0.13043996  0.37253292  1
  V  V63  1  0.49599558  0.25299588  0.25728239  1
  V  V64  1  0.87901854  0.62124788  0.24769406  1
  V  V65  1  0.62701175  0.87695447  0.75121039  1
  V  V66  1  0.24009031  -0.00738450  0.25046458  1
  V  V67  1  0.62144638  0.12696249  0.51254417  1
  V  V68  1  0.00047393  -0.00338597  -0.00088099  1
  V  V69  1  0.37599866  0.51830909  0.86488494  1
  V  V70  1  0.75529450  0.62573947  0.37388938  1
  V  V71  1  0.36907088  0.75271946  0.63133139  1
  V  V72  1  0.38052385  0.12581636  0.73703302  1
  V  V73  1  0.37318322  0.00113832  0.87460429  1
  V  V74  1  0.62617100  0.74965531  0.87490915  1
  V  V75  1  0.49812657  0.12606924  0.12901602  1
  V  V76  1  0.37024364  0.12592343  0.25327499  1
  V  V77  1  0.48215355  0.50558179  0.50344526  1
  V  V78  1  0.12157317  0.36931775  0.74784430  1
  V  V79  1  0.12920989  0.61029767  -0.00539232  1
  V  V80  1  0.13046189  0.39305995  0.25387610  1
  V  V81  1  0.24474375  -0.01268148  0.74703785  1
  V  V82  1  0.25936115  0.36814535  0.62161456  1
  V  V83  1  0.61880305  0.25485803  0.85962013  1
  V  V84  1  0.31308130  0.56641143  0.31627542  1
  Zn  Zn85  1  0.12164780  -0.00568304  0.12563812  1
  Zn  Zn86  1  0.62154368  0.00462511  0.62901560  1
  Zn  Zn87  1  0.49804616  0.37066066  0.84751019  1
  Zn  Zn88  1  0.62748848  0.62436627  0.49878645  1
  Zn  Zn89  1  0.87587984  0.74741970  0.12157936  1
  Zn  Zn90  1  0.23790056  0.38597760  0.12101523  1
  Zn  Zn91  1  0.87480101  0.74756834  0.62463918  1
  Zn  Zn92  1  -0.00529304  0.11830057  0.63120562  1
  Zn  Zn93  1  0.25264005  0.74201169  -0.00282911  1
  Zn  Zn94  1  0.37237644  0.25241225  0.12622823  1
  Zn  Zn95  1  0.24750362  0.50887618  0.75439388  1
  Zn  Zn96  1  0.86876398  -0.00488672  0.36796852  1
  Zn  Zn97  1  0.13431549  0.74708488  0.36415171  1
  Zn  Zn98  1  0.89253587  0.37576287  0.00194053  1
  Zn  Zn99  1  0.75170821  0.37737947  0.12509482  1
  Zn  Zn100  1  0.74958740  0.48542661  0.74977392  1
  Zn  Zn101  1  0.50816519  0.63016105  0.62476381  1
  Zn  Zn102  1  0.44211826  0.27735091  0.67669593  1
  Zn  Zn103  1  0.74891709  0.74892591  0.50181597  1
  Zn  Zn104  1  0.00528886  0.87348842  0.87014460  1
  Zn  Zn105  1  0.14040245  0.61339169  0.49002606  1
  Zn  Zn106  1  -0.00046815  0.12046639  0.12689728  1
  Zn  Zn107  1  0.18830566  0.18772349  0.18114822  1
  Zn  Zn108  1  0.18390332  0.18237145  0.68500036  1
  Zn  Zn109  1  0.18795909  0.67534883  0.18297278  1
  Zn  Zn110  1  0.18757122  0.68645344  0.68528713  1
  Zn  Zn111  1  0.68507300  0.18788256  0.18975321  1
  Zn  Zn112  1  0.68699041  0.31375732  0.68961054  1
  Zn  Zn113  1  0.68658702  0.68788435  0.18762744  1
  Zn  Zn114  1  0.68822836  0.68477290  0.68682138  1
  Zn  Zn115  1  0.30670894  0.31037240  0.31744827  1
  Zn  Zn116  1  0.30905375  0.31467215  0.81166330  1
  Zn  Zn117  1  0.31655467  0.80776182  0.31259425  1
  Zn  Zn118  1  0.31323447  0.81013582  0.81441069  1
  Zn  Zn119  1  0.81446602  0.31091109  0.31679593  1
  Zn  Zn120  1  0.82112753  0.31111445  0.81750568  1
  Zn  Zn121  1  0.82042847  0.80656333  0.31060036  1
  Zn  Zn122  1  0.81408955  0.80932533  0.81092867  1
  Zn  Zn123  1  0.18920570  0.43626630  0.43361412  1
  Zn  Zn124  1  0.19847015  0.44323461  0.93457410  1
  Zn  Zn125  1  0.18421900  0.93688790  0.43776964  1
  Zn  Zn126  1  0.18849908  0.93373913  0.93544795  1
  Zn  Zn127  1  0.68834004  0.44103410  0.44136442  1
  Zn  Zn128  1  0.68780178  0.43291046  0.93160403  1
  Zn  Zn129  1  0.68467330  0.93712724  0.43768816  1
  Zn  Zn130  1  0.68677401  0.93934692  0.94277912  1
  Zn  Zn131  1  0.30981165  0.06154568  0.06531904  1
  Zn  Zn132  1  0.30554627  0.06048674  0.56246553  1
  Zn  Zn133  1  0.31185470  0.56146293  0.05757013  1
  Zn  Zn134  1  0.30636319  0.57493913  0.59660259  1
  Zn  Zn135  1  0.80945855  0.06149950  0.06282940  1
  Zn  Zn136  1  0.81142489  0.06391842  0.56108957  1
  Zn  Zn137  1  0.81442019  0.55850456  0.06350638  1
  Zn  Zn138  1  0.81411337  0.56297288  0.55945028  1
  Zn  Zn139  1  0.39427979  0.45983640  0.17306343  1
  Zn  Zn140  1  0.44394325  0.44546743  0.68470511  1
  Zn  Zn141  1  0.43453994  0.93741931  0.18941507  1
  Zn  Zn142  1  0.43469937  0.93661019  0.68932753  1
  Zn  Zn143  1  0.93744251  0.43427832  0.19123949  1
  Zn  Zn144  1  0.93778856  0.43150803  0.68907995  1
  Zn  Zn145  1  0.93465976  0.93518795  0.18446446  1
  Zn  Zn146  1  0.93633525  0.93530558  0.68558974  1
  Zn  Zn147  1  0.05903169  0.05966896  0.31311859  1
  Zn  Zn148  1  0.06463540  0.06075260  0.81385092  1
  Zn  Zn149  1  0.06432542  0.56759758  0.31586166  1
  Zn  Zn150  1  0.06599460  0.56415875  0.80921916  1
  Zn  Zn151  1  0.55871306  0.06778921  0.32128619  1
  Zn  Zn152  1  0.56332090  0.06670481  0.81168800  1
  Zn  Zn153  1  0.55694292  0.56344365  0.31527845  1
  Zn  Zn154  1  0.56468870  0.55948434  0.80886278  1
  Zn  Zn155  1  0.45603392  0.21086267  0.48255058  1
  Zn  Zn156  1  0.43599472  0.18645496  0.93279065  1
  Zn  Zn157  1  0.43487013  0.68668505  0.43940761  1
  Zn  Zn158  1  0.44166437  0.68934712  0.94170679  1
  Zn  Zn159  1  0.93417388  0.18587201  0.43614883  1
  Zn  Zn160  1  0.93047439  0.18189508  0.94277551  1
  Zn  Zn161  1  0.94158650  0.68795775  0.43230170  1
  Zn  Zn162  1  0.94096998  0.68518347  0.93582345  1
  Zn  Zn163  1  0.06375734  0.30903677  0.08345144  1
  Zn  Zn164  1  0.06050156  0.30924501  0.56395988  1
  Zn  Zn165  1  0.06136232  0.80439554  0.05581184  1
  Zn  Zn166  1  0.06038010  0.81094673  0.56104617  1
  Zn  Zn167  1  0.55996344  0.31241908  0.06534625  1
  Zn  Zn168  1  0.56224177  0.32421487  0.56016236  1
  Zn  Zn169  1  0.56513755  0.81459606  0.06523219  1
  Zn  Zn170  1  0.56332132  0.81632587  0.55887738  1
  O  O171  1  0.12392160  0.12100959  0.10929093  1
  O  O172  1  0.11848346  0.11241326  0.61482545  1
  O  O173  1  0.11254761  0.62508782  0.10985296  1
  O  O174  1  0.11393604  0.61496788  0.61475211  1
  O  O175  1  0.61887816  0.11891269  0.12168606  1
  O  O176  1  0.62663800  0.12283436  0.61113698  1
  O  O177  1  0.61619142  0.61871391  0.11935524  1
  O  O178  1  0.62492209  0.61816721  0.61945300  1
  O  O179  1  0.38381236  0.37216882  0.37697313  1
  O  O180  1  0.38122259  0.37455185  0.88259364  1
  O  O181  1  0.38287756  0.87984980  0.38195768  1
  O  O182  1  0.37977812  0.87971997  0.88456312  1
  O  O183  1  0.88793169  0.36988295  0.38519467  1
  O  O184  1  0.87863737  0.38886392  0.88115627  1
  O  O185  1  0.88099815  0.87677092  0.38092616  1
  O  O186  1  0.87320512  0.88115870  0.88444066  1
  O  O187  1  0.25264440  0.00343200  0.36761023  1
  O  O188  1  0.25409552  0.00616822  0.87008472  1
  O  O189  1  0.25145283  0.51092865  0.37781194  1
  O  O190  1  0.27046491  0.50210741  0.86987444  1
  O  O191  1  0.74773925  0.01384874  0.37836041  1
  O  O192  1  0.75524955  0.00531045  0.87206003  1
  O  O193  1  0.74395665  0.50996810  0.36182852  1
  O  O194  1  0.75321780  0.50986357  0.87388240  1
  O  O195  1  0.28804081  0.48512808  0.13208904  1
  O  O196  1  0.23217435  0.48247798  0.61087574  1
  O  O197  1  0.24848374  0.98864516  0.13251780  1
  O  O198  1  0.23816317  1.00065731  0.63438044  1
  O  O199  1  0.74291635  0.49910419  0.13647321  1
  O  O200  1  0.74115515  0.50514020  0.62764664  1
  O  O201  1  0.73876227  0.99113482  0.12013462  1
  O  O202  1  0.75111800  0.99420809  0.63388076  1
  O  O203  1  0.00547518  0.36674907  0.25743898  1
  O  O204  1  0.01247745  0.36322101  0.75044897  1
  O  O205  1  -0.00724656  0.86441688  0.25398230  1
  O  O206  1  -0.00762551  0.85675112  0.74971125  1
  O  O207  1  0.50712843  0.36962611  0.26960010  1
  O  O208  1  0.49470050  0.35991265  0.73487235  1
  O  O209  1  0.49551624  0.86913794  0.26203045  1
  O  O210  1  0.50806565  0.87230966  0.75777537  1
  O  O211  1  0.48848138  0.13219198  0.25167244  1
  O  O212  1  0.47999121  0.11756627  0.75323794  1
  O  O213  1  0.50583629  0.63425991  0.23855322  1
  O  O214  1  0.50637591  0.64268833  0.75106439  1
  O  O215  1  0.99111925  0.12979440  0.25051346  1
  O  O216  1  1.00488657  0.13571462  0.75114268  1
  O  O217  1  0.99532278  0.62781175  0.23725778  1
  O  O218  1  0.99495966  0.62900455  0.73855075  1
  O  O219  1  0.36722254  0.25450123  -0.00170928  1
  O  O220  1  0.34940924  0.24291021  0.48930968  1
  O  O221  1  0.37583982  0.75803925  0.00926733  1
  O  O222  1  0.36790782  0.76059107  0.50574037  1
  O  O223  1  0.86582703  0.25109415  0.00973723  1
  O  O224  1  0.86901352  0.25520891  0.50503331  1
  O  O225  1  0.86981217  0.75717338  -0.00213934  1
  O  O226  1  0.87543256  0.76268498  0.50033198  1
  O  O227  1  0.12346880  0.23217552  0.50249290  1
  O  O228  1  0.12680300  0.24586261  0.99408700  1
  O  O229  1  0.14566147  0.75648920  0.50703444  1
  O  O230  1  0.12740134  0.73970874  0.98607296  1
  O  O231  1  0.63426711  0.24703456  0.49453900  1
  O  O232  1  0.63128252  0.24335719  0.99876963  1
  O  O233  1  0.62728664  0.74787756  0.48874332  1
  O  O234  1  0.62825000  0.74354685  0.99367055  1
  O  O235  1  0.49959531  0.24106357  0.13639660  1
  O  O236  1  0.49450682  0.24118942  0.58623634  1
  O  O237  1  0.49790578  0.74485792  0.13109713  1
  O  O238  1  0.49832448  0.75763544  0.63495803  1
  O  O239  1  0.98820728  0.24131196  0.13557931  1
  O  O240  1  0.99271670  0.24369728  0.63350399  1
  O  O241  1  0.99663891  0.74242539  0.12857414  1
  O  O242  1  0.99878254  0.73933160  0.62956327  1
  O  O243  1  -0.00413215  0.25512254  0.36675967  1
  O  O244  1  -0.00256567  0.24430095  0.87014952  1
  O  O245  1  -0.00424705  0.75894243  0.36012030  1
  O  O246  1  0.00953541  0.74838462  0.86606811  1
  O  O247  1  0.50749298  0.26514767  0.38300533  1
  O  O248  1  0.51634376  0.24575352  0.87620543  1
  O  O249  1  0.50618980  0.75538839  0.36811339  1
  O  O250  1  0.50492183  0.75822618  0.86987724  1
  O  O251  1  0.23777385  0.12472228  0.49158726  1
  O  O252  1  0.24370569  0.13078341  0.99508264  1
  O  O253  1  0.25342353  0.64309603  0.50894486  1
  O  O254  1  0.23406924  0.62532761  1.00458534  1
  O  O255  1  0.74245857  0.13250027  0.49291636  1
  O  O256  1  0.74364014  0.13395407  0.99503177  1
  O  O257  1  0.75293770  0.62844768  0.48718655  1
  O  O258  1  0.74543623  0.62861024  0.99504604  1
  O  O259  1  0.25892428  0.36778841  -0.00120186  1
  O  O260  1  0.23549401  0.36014165  0.50721865  1
  O  O261  1  0.26186887  0.87241055  0.00632927  1
  O  O262  1  0.26307201  0.87460488  0.49762311  1
  O  O263  1  0.74868944  0.36237668  0.00173850  1
  O  O264  1  0.76274484  0.36661109  0.49040522  1
  O  O265  1  0.75607645  0.86842860  0.00386865  1
  O  O266  1  0.75648024  0.87556395  0.50709915  1
  O  O267  1  0.12245738  0.49172151  0.25325163  1
  O  O268  1  0.12561917  0.49177952  0.74095571  1
  O  O269  1  0.13589622  1.00228386  0.24565774  1
  O  O270  1  0.13190508  1.00196615  0.74190627  1
  O  O271  1  0.62970780  0.49661426  0.24606962  1
  O  O272  1  0.62663750  0.50431445  0.73104172  1
  O  O273  1  0.61886531  1.00787243  0.24119478  1
  O  O274  1  0.63353576  0.99517180  0.75036798  1
  O  O275  1  0.36364060  0.00662282  0.25330676  1
  O  O276  1  0.36579702  0.00639132  0.75520775  1
  O  O277  1  0.38773235  0.50843162  0.27318562  1
  O  O278  1  0.38111087  0.50191738  0.76292030  1
  O  O279  1  0.87790845  0.01465011  0.24757242  1
  O  O280  1  0.86934359  -0.00673405  0.76296848  1
  O  O281  1  0.86701821  0.51065768  0.24543841  1
  O  O282  1  0.87603275  0.50666839  0.75967738  1
  O  O283  1  0.11071652  0.37677949  0.36511295  1
  O  O284  1  0.13070647  0.37470093  0.86775487  1
  O  O285  1  0.11044644  0.86958884  0.37771768  1
  O  O286  1  0.12337236  0.85595132  0.87906155  1
  O  O287  1  0.62749532  0.36590416  0.37369554  1
  O  O288  1  0.62125529  0.35872216  0.87383248  1
  O  O289  1  0.61802552  0.86399988  0.37700559  1
  O  O290  1  0.62163691  0.86955562  0.87312159  1
  O  O291  1  0.37713471  0.12574346  0.13784554  1
  O  O292  1  0.37011930  0.11860896  0.63767178  1
  O  O293  1  0.38988313  0.63580777  0.11239924  1
  O  O294  1  0.39279147  0.65259849  0.61571923  1
  O  O295  1  0.87229532  0.13326611  0.13086351  1
  O  O296  1  0.87628885  0.13965758  0.61829298  1
  O  O297  1  0.88643349  0.62457956  0.12705243  1
  O  O298  1  0.88004525  0.62419485  0.63475053  1
  O  O299  1  0.25047846  0.25527377  0.11005235  1
  O  O300  1  0.24058325  0.25600122  0.61489398  1
  O  O301  1  0.25942972  0.75344113  0.12389300  1
  O  O302  1  0.26473633  0.75754908  0.61851385  1
  O  O303  1  0.75485920  0.25146053  0.11937157  1
  O  O304  1  0.75567153  0.25231568  0.61278476  1
  O  O305  1  0.74960572  0.75669744  0.11691102  1
  O  O306  1  0.75328979  0.75984029  0.62465667  1
  O  O307  1  0.24082842  0.23480758  0.37737516  1
  O  O308  1  0.25145682  0.24056383  0.88582509  1
  O  O309  1  0.24934973  0.75898107  0.39118236  1
  O  O310  1  0.23910532  0.74641698  0.87440582  1
  O  O311  1  0.74400741  0.24286744  0.38433960  1
  O  O312  1  0.74392959  0.24230614  0.88303581  1
  O  O313  1  0.74357891  0.74499901  0.37274042  1
  O  O314  1  0.74721150  0.73791060  0.87975926  1
  O  O315  1  0.00690996  0.11489857  -0.00102812  1
  O  O316  1  0.00185746  0.11059308  0.49602845  1
  O  O317  1  0.00745137  0.62543767  0.00978724  1
  O  O318  1  -0.01409971  0.61493690  0.51099328  1
  O  O319  1  0.50212046  0.12123064  0.00808427  1
  O  O320  1  0.51106379  0.11010612  0.48311619  1
  O  O321  1  0.50859650  0.61394857  0.00373537  1
  O  O322  1  0.50531441  0.61349391  0.49403202  1
  O  O323  1  0.49834642  0.39242263  0.48917530  1
  O  O324  1  0.50006074  0.38562822  0.99532203  1
  O  O325  1  0.49386099  0.88321713  0.48798827  1
  O  O326  1  0.49074540  0.87954805  0.99832744  1
  O  O327  1  0.99542010  0.37825793  0.49335572  1
  O  O328  1  1.01076910  0.35764284  0.99291186  1
  O  O329  1  0.99274220  0.88098046  0.49240096  1
  O  O330  1  0.99113220  0.88005998  0.99622786  1
  O  O331  1  0.50449129  0.49061210  0.38792551  1
  O  O332  1  0.49515516  0.49605220  0.87788061  1
  O  O333  1  0.49242989  0.99185637  0.37867448  1
  O  O334  1  0.49492736  0.99553307  0.88248046  1
  O  O335  1  0.99759886  0.49295638  0.38584691  1
  O  O336  1  0.98891220  0.50487021  0.87355251  1
  O  O337  1  0.99454376  0.99011410  0.38040540  1
  O  O338  1  0.99220588  0.99615638  0.88152776  1
  O  O339  1  0.00031477  -0.00038827  0.11194471  1
  O  O340  1  0.00180810  -0.00019183  0.61640511  1
  O  O341  1  -0.00337620  0.51003636  0.12486563  1
  O  O342  1  0.00719624  0.50247452  0.61943184  1
  O  O343  1  0.50495128  0.00531062  0.12275226  1
  O  O344  1  0.50103943  -0.00593914  0.61180091  1
  O  O345  1  0.49863253  0.50720445  0.11610499  1
  O  O346  1  0.51034411  0.50596428  0.61237974  1
  O  O347  1  0.23129791  0.36969616  0.25619519  1
  O  O348  1  0.23818114  0.37590033  0.74046537  1
  O  O349  1  0.25638630  0.88087493  0.24088443  1
  O  O350  1  0.25352753  0.88846798  0.75670892  1
  O  O351  1  0.74557081  0.38289286  0.25194009  1
  O  O352  1  0.75352138  0.37338834  0.75548091  1
  O  O353  1  0.76057285  0.87077870  0.23537058  1
  O  O354  1  0.74689025  0.88149539  0.74459436  1
  O  O355  1  0.25128531  0.11884305  0.25356420  1
  O  O356  1  0.25343713  0.11686621  0.75739307  1
  O  O357  1  0.25882361  0.61975343  0.24732219  1
  O  O358  1  0.26241400  0.60734425  0.70128365  1
  O  O359  1  0.75704330  0.13326352  0.26079787  1
  O  O360  1  0.74883960  0.11078192  0.76071649  1
  O  O361  1  0.75817880  0.61969758  0.25187070  1
  O  O362  1  0.75979042  0.62324227  0.75905405  1
  O  O363  1  0.36116698  0.11693824  0.36206503  1
  O  O364  1  0.36302182  0.11746848  0.87182179  1
  O  O365  1  0.36474380  0.63628954  0.36940409  1
  O  O366  1  0.38145566  0.61692610  0.87685904  1
  O  O367  1  0.86382531  0.12270072  0.36770625  1
  O  O368  1  0.85979325  0.11532222  0.88118000  1
  O  O369  1  0.86435421  0.63002795  0.36333188  1
  O  O370  1  0.86980556  0.61546108  0.87093104  1
  O  O371  1  0.12427083  0.37678962  0.14641797  1
  O  O372  1  0.12434462  0.37884088  0.63208693  1
  O  O373  1  0.13815134  0.87175535  0.11494851  1
  O  O374  1  0.11779475  0.88735302  0.62321824  1
  O  O375  1  0.62483946  0.38133394  0.13509728  1
  O  O376  1  0.63239243  0.38865990  0.61922369  1
  O  O377  1  0.63400621  0.88603204  0.12215432  1
  O  O378  1  0.63683186  0.87956211  0.62860732  1
  O  O379  1  0.11123208  0.24606407  0.24519101  1
  O  O380  1  0.11709380  0.25567418  0.74880066  1
  O  O381  1  0.11377567  0.74384449  0.24493827  1
  O  O382  1  0.11895628  0.73808690  0.76217268  1
  O  O383  1  0.61712754  0.25465560  0.26042812  1
  O  O384  1  0.62956434  0.24103979  0.76204533  1
  O  O385  1  0.61375649  0.75065395  0.25437105  1
  O  O386  1  0.62113733  0.75750391  0.75644994  1
  O  O387  1  0.37714266  0.24308399  0.25096982  1
  O  O388  1  0.36617796  0.23142529  0.75111601  1
  O  O389  1  0.38826661  0.75521939  0.23701549  1
  O  O390  1  0.38421185  0.76135754  0.73872538  1
  O  O391  1  0.88010720  0.24179386  0.24456500  1
  O  O392  1  0.88662131  0.25247161  0.74235016  1
  O  O393  1  0.88329278  0.73508042  0.24274698  1
  O  O394  1  0.88346855  0.73531571  0.75197080  1
  O  O395  1  0.38521436  0.51133753  0.51720370  1
  O  O396  1  0.38523127  0.49391830  0.98502007  1
  O  O397  1  0.37959997  0.99636645  0.49518714  1
  O  O398  1  0.37959154  0.99379819  0.99726642  1
  O  O399  1  0.88259237  0.48599519  0.50756152  1
  O  O400  1  0.87372175  0.49594131  0.98737084  1
  O  O401  1  0.88082918  0.98954799  0.49818713  1
  O  O402  1  0.87946734  0.99428035  0.99055865  1
  O  O403  1  0.11672380  0.00418452  -0.00143348  1
  O  O404  1  0.11524152  0.00288786  0.50601167  1
  O  O405  1  0.12652364  0.51078366  -0.00691270  1
  O  O406  1  0.11231390  0.49772957  0.50479729  1
  O  O407  1  0.61687355  0.00851005  0.00605681  1
  O  O408  1  0.61677667  0.00793126  0.50033521  1
  O  O409  1  0.61988067  0.50125941  0.00440255  1
  O  O410  1  0.62468261  0.50421810  0.51152454  1
  O  O411  1  0.38973362  0.36688575  0.10295381  1
  O  O412  1  0.35987685  0.37474950  0.63017921  1
  O  O413  1  0.36988093  0.86816127  0.11853919  1
  O  O414  1  0.38327594  0.86602445  0.61358917  1
  O  O415  1  0.87449372  0.36323358  0.12275965  1
  O  O416  1  0.88322347  0.36078017  0.61318854  1
  O  O417  1  0.86649970  0.87537976  0.11048548  1
  O  O418  1  0.86447879  0.87324795  0.61747502  1
  O  O419  1  0.13048284  0.11234604  0.38566143  1
  O  O420  1  0.13664099  0.11914013  0.88600691  1
  O  O421  1  0.10492042  0.63986517  0.38794738  1
  O  O422  1  0.11957245  0.63160985  0.88682875  1
  O  O423  1  0.63043921  0.13892581  0.37963654  1
  O  O424  1  0.63383815  0.13086564  0.88173572  1
  O  O425  1  0.63606716  0.63712821  0.37090084  1
  O  O426  1  0.63320793  0.62820101  0.87887978  1
