# generated using pymatgen
data_V85Zn86O256
_symmetry_space_group_name_H-M   'P 1'
_cell_length_a   16.94725761
_cell_length_b   16.95131182
_cell_length_c   16.93265288
_cell_angle_alpha   90.04066151
_cell_angle_beta   90.07794579
_cell_angle_gamma   89.92976468
_symmetry_Int_Tables_number   1
_chemical_formula_structural   V85Zn86O256
_chemical_formula_sum   'V85 Zn86 O256'
_cell_volume   4864.37347980
_cell_formula_units_Z   1
loop_
 _symmetry_equiv_pos_site_id
 _symmetry_equiv_pos_as_xyz
  1  'x, y, z'
loop_
 _atom_site_type_symbol
 _atom_site_label
 _atom_site_symmetry_multiplicity
 _atom_site_fract_x
 _atom_site_fract_y
 _atom_site_fract_z
 _atom_site_occupancy
  V  V0  1  0.90803564  0.08786409  0.26705972  1
  V  V1  1  0.37582459  0.62765701  0.25347394  1
  V  V2  1  0.35799814  0.62747462  0.74994904  1
  V  V3  1  0.50141865  0.88084186  0.38237348  1
  V  V4  1  0.37439457  0.12340656  0.25457249  1
  V  V5  1  0.74828754  0.36961227  0.62695648  1
  V  V6  1  0.12193818  0.50051438  0.12401224  1
  V  V7  1  0.25017437  0.38209564  0.62837924  1
  V  V8  1  0.23812417  0.87960658  0.62007607  1
  V  V9  1  0.87342519  0.62494124  0.24981251  1
  V  V10  1  0.12411944  0.50355241  0.63376698  1
  V  V11  1  0.62352086  0.62839453  0.50026948  1
  V  V12  1  0.88134025  0.24765327  0.62577911  1
  V  V13  1  0.87411201  0.87666434  0.00126782  1
  V  V14  1  0.62498001  0.37231819  0.75077697  1
  V  V15  1  0.37563124  0.00213390  0.37892659  1
  V  V16  1  0.23751158  0.87748836  0.12831019  1
  V  V17  1  0.13520089  0.75108592  0.36750146  1
  V  V18  1  0.62619770  0.88053797  0.23416407  1
  V  V19  1  -0.00204526  0.62494623  0.12556814  1
  V  V20  1  -0.01062282  0.37017359  0.87702474  1
  V  V21  1  0.10740743  0.75630664  0.87256425  1
  V  V22  1  0.87912330  0.37293028  0.50131748  1
  V  V23  1  0.00256471  0.50363170  0.50534966  1
  V  V24  1  0.50043719  0.50286750  0.50006051  1
  V  V25  1  0.50411477  0.37791481  0.36788550  1
  V  V26  1  0.24164494  0.12766448  0.87454276  1
  V  V27  1  0.62086166  0.47967709  0.12965353  1
  V  V28  1  0.74995531  0.24574826  0.49729364  1
  V  V29  1  0.24905141  0.50710627  0.25388572  1
  V  V30  1  0.12518347  0.12066874  0.00750938  1
  V  V31  1  0.37287986  0.12532324  0.75177693  1
  V  V32  1  0.00552208  0.75466386  0.25582384  1
  V  V33  1  0.37246694  0.50553119  0.37659240  1
  V  V34  1  0.62660358  0.75416353  0.37701263  1
  V  V35  1  0.00284728  0.25555382  0.25179069  1
  V  V36  1  0.74639324  0.48765017  0.24678155  1
  V  V37  1  0.87405286  0.50080094  0.37788706  1
  V  V38  1  0.13221355  0.37361369  0.76375838  1
  V  V39  1  0.37392460  -0.00047065  0.87487963  1
  V  V40  1  0.74854493  0.75417793  0.00643717  1
  V  V41  1  0.37503313  0.37735532  0.50073251  1
  V  V42  1  0.87465382  0.25304512  0.13336865  1
  V  V43  1  0.87359113  0.75780207  0.12911078  1
  V  V44  1  0.61698850  0.11881750  0.49849510  1
  V  V45  1  0.37508351  0.25175114  0.62522138  1
  V  V46  1  0.61687859  0.62584995  0.01388634  1
  V  V47  1  0.62658826  0.87145617  0.74729389  1
  V  V48  1  0.74038625  0.00686023  0.23489549  1
  V  V49  1  0.74959207  0.63071900  0.37096721  1
  V  V50  1  0.24877229  0.24135621  0.49891030  1
  V  V51  1  0.62650248  0.11639147  0.00454683  1
  V  V52  1  0.24899715  0.74949869  -0.00707985  1
  V  V53  1  0.75053328  -0.00235592  0.74931852  1
  V  V54  1  0.75163016  0.25212812  0.00717199  1
  V  V55  1  0.49985468  0.37600206  0.87783390  1
  V  V56  1  0.50350830  0.63547600  0.63976837  1
  V  V57  1  0.50039232  0.11503282  0.12546459  1
  V  V58  1  0.25421888  0.74815512  0.49885634  1
  V  V59  1  0.80434464  0.70365958  0.54778841  1
  V  V60  1  0.13184754  0.62139754  0.49215126  1
  V  V61  1  0.75857421  0.87658046  0.61770192  1
  V  V62  1  0.62601377  0.50114865  0.62817799  1
  V  V63  1  0.50108598  0.74742542  0.24673110  1
  V  V64  1  0.37428808  0.37733391  0.00066088  1
  V  V65  1  0.13232074  0.24727831  0.37896436  1
  V  V66  1  0.50016519  0.24770062  0.74950501  1
  V  V67  1  0.24148331  0.25081640  -0.00204486  1
  V  V68  1  0.37713217  0.74593014  0.12327256  1
  V  V69  1  0.00364060  -0.00432537  0.00980265  1
  V  V70  1  0.87495315  0.89553398  0.48403030  1
  V  V71  1  0.23831118  -0.00144952  0.74580105  1
  V  V72  1  0.24954439  0.37621307  0.12617738  1
  V  V73  1  0.88277359  -0.00625597  0.87613715  1
  V  V74  1  0.62632246  0.25375797  0.36815992  1
  V  V75  1  0.62209753  0.74751177  0.87541662  1
  V  V76  1  0.37512931  0.87431097  -0.00002329  1
  V  V77  1  0.37427501  0.24831351  0.12685962  1
  V  V78  1  0.75258090  0.61574502  0.87969990  1
  V  V79  1  0.24181933  0.00079926  0.24953196  1
  V  V80  1  0.75113303  0.12369195  0.87824997  1
  V  V81  1  0.88006750  0.12309013  0.75021685  1
  V  V82  1  0.49903664  0.87268345  0.86661168  1
  V  V83  1  0.01080653  0.11288523  0.61053015  1
  V  V84  1  -0.01041856  0.50086072  -0.00519138  1
  Zn  Zn85  1  0.49594597  0.11716274  0.62055230  1
  Zn  Zn86  1  0.50444861  -0.00353303  0.00087964  1
  Zn  Zn87  1  0.12431597  0.62559845  -0.00206655  1
  Zn  Zn88  1  0.24168316  0.61880239  0.87069363  1
  Zn  Zn89  1  0.62563642  0.24718284  0.87678549  1
  Zn  Zn90  1  0.37846427  0.75676096  0.63025571  1
  Zn  Zn91  1  0.01064238  0.91188132  0.37925550  1
  Zn  Zn92  1  0.00538495  0.12549805  0.12770769  1
  Zn  Zn93  1  0.50290133  0.25297371  0.24698814  1
  Zn  Zn94  1  0.75774431  0.49115857  0.76428999  1
  Zn  Zn95  1  0.75354027  0.11570391  0.37203734  1
  Zn  Zn96  1  0.37653476  0.88203234  0.50424592  1
  Zn  Zn97  1  0.88315786  0.62268561  0.75924539  1
  Zn  Zn98  1  0.12738696  0.37843655  0.25307990  1
  Zn  Zn99  1  0.00581430  0.37796519  0.37717558  1
  Zn  Zn100  1  0.61813950  -0.00545845  0.61754082  1
  Zn  Zn101  1  0.86693193  0.37869520  0.00428585  1
  Zn  Zn102  1  0.36698061  0.49788750  0.86465903  1
  Zn  Zn103  1  0.49577749  0.50583118  0.00557047  1
  Zn  Zn104  1  0.10769071  0.87735415  0.75162357  1
  Zn  Zn105  1  0.00771865  0.24564737  0.75473712  1
  Zn  Zn106  1  -0.02473931  0.74904049  0.71707130  1
  Zn  Zn107  1  0.18768808  0.18661619  0.19236251  1
  Zn  Zn108  1  0.18627547  0.19186209  0.68593431  1
  Zn  Zn109  1  0.19034842  0.68564587  0.18183542  1
  Zn  Zn110  1  0.14498821  0.70852206  0.66669715  1
  Zn  Zn111  1  0.68453105  0.18873444  0.18541343  1
  Zn  Zn112  1  0.68815947  0.18403583  0.68626585  1
  Zn  Zn113  1  0.68832233  0.68931721  0.18961084  1
  Zn  Zn114  1  0.69312105  0.68766517  0.69618050  1
  Zn  Zn115  1  0.31407064  0.31681661  0.31293474  1
  Zn  Zn116  1  0.31158988  0.31286928  0.81509613  1
  Zn  Zn117  1  0.31165142  0.81681776  0.31374355  1
  Zn  Zn118  1  0.30874176  0.81046629  0.80383765  1
  Zn  Zn119  1  0.81572613  0.31077327  0.31605917  1
  Zn  Zn120  1  0.81417253  0.30784532  0.81440643  1
  Zn  Zn121  1  0.80998219  0.82065996  0.31023594  1
  Zn  Zn122  1  0.81727516  0.80790263  0.81227801  1
  Zn  Zn123  1  0.18948680  0.43415307  0.43769203  1
  Zn  Zn124  1  0.18514350  0.44227882  0.93852187  1
  Zn  Zn125  1  0.18455800  0.93939467  0.43364251  1
  Zn  Zn126  1  0.18652008  0.93619120  0.93697377  1
  Zn  Zn127  1  0.68913705  0.43853924  0.43911324  1
  Zn  Zn128  1  0.68147719  0.43544132  0.94444216  1
  Zn  Zn129  1  0.69434899  0.93886254  0.42970989  1
  Zn  Zn130  1  0.69171694  0.93632129  0.93919689  1
  Zn  Zn131  1  0.31250635  0.06063666  0.06391992  1
  Zn  Zn132  1  0.31207880  0.06298566  0.56508413  1
  Zn  Zn133  1  0.31126314  0.56427788  0.06197709  1
  Zn  Zn134  1  0.31246942  0.56694939  0.56863360  1
  Zn  Zn135  1  0.81714414  0.06517288  0.07585968  1
  Zn  Zn136  1  0.81164865  0.06302845  0.56364086  1
  Zn  Zn137  1  0.80681377  0.56326977  0.06686313  1
  Zn  Zn138  1  0.83841716  0.53350355  0.60259302  1
  Zn  Zn139  1  0.43806282  0.44009106  0.18653504  1
  Zn  Zn140  1  0.43855511  0.44223319  0.68914924  1
  Zn  Zn141  1  0.43525570  0.93413874  0.19059978  1
  Zn  Zn142  1  0.43357401  0.93830354  0.68467679  1
  Zn  Zn143  1  0.93432175  0.43475572  0.18807813  1
  Zn  Zn144  1  0.94386614  0.43732202  0.69493979  1
  Zn  Zn145  1  0.94478263  0.93665589  0.19583538  1
  Zn  Zn146  1  0.93986883  0.93465997  0.68257713  1
  Zn  Zn147  1  0.07630190  0.05801080  0.33319519  1
  Zn  Zn148  1  0.06065487  0.06325928  0.81787663  1
  Zn  Zn149  1  0.06087729  0.56502322  0.31443269  1
  Zn  Zn150  1  0.06006713  0.56785761  0.81251985  1
  Zn  Zn151  1  0.56324200  0.06288927  0.31315400  1
  Zn  Zn152  1  0.56351734  0.05939993  0.81142671  1
  Zn  Zn153  1  0.56251777  0.56338190  0.30768487  1
  Zn  Zn154  1  0.56487754  0.55883321  0.81754292  1
  Zn  Zn155  1  0.43701292  0.19069019  0.43482387  1
  Zn  Zn156  1  0.43562434  0.18815282  0.93911523  1
  Zn  Zn157  1  0.43884676  0.69032450  0.43823283  1
  Zn  Zn158  1  0.43665519  0.68690376  0.93120577  1
  Zn  Zn159  1  0.94200984  0.18684101  0.43382323  1
  Zn  Zn160  1  0.93835947  0.18708325  0.94085808  1
  Zn  Zn161  1  0.94668866  0.68557172  0.43844625  1
  Zn  Zn162  1  0.93499179  0.68636070  0.93836688  1
  Zn  Zn163  1  0.06095048  0.31391834  0.06325370  1
  Zn  Zn164  1  0.06487025  0.31322959  0.56477906  1
  Zn  Zn165  1  0.05952634  0.81150696  0.05899705  1
  Zn  Zn166  1  0.05737589  0.82188198  0.55513193  1
  Zn  Zn167  1  0.56056867  0.30312226  0.06001716  1
  Zn  Zn168  1  0.56140122  0.31029903  0.55930874  1
  Zn  Zn169  1  0.55585570  0.81049465  0.05851655  1
  Zn  Zn170  1  0.56593575  0.81350258  0.56127284  1
  O  O171  1  0.12787747  0.12826127  0.11141064  1
  O  O172  1  0.10888367  0.13067407  0.63046674  1
  O  O173  1  0.11671973  0.61730840  0.12183908  1
  O  O174  1  0.13898712  0.60512575  0.61368596  1
  O  O175  1  0.61158588  0.13074475  0.11630171  1
  O  O176  1  0.62553928  0.12658239  0.60863630  1
  O  O177  1  0.62583239  0.62625364  0.11527782  1
  O  O178  1  0.62290525  0.61948428  0.62316913  1
  O  O179  1  0.38345698  0.38372651  0.38206759  1
  O  O180  1  0.38118764  0.37640589  0.88362838  1
  O  O181  1  0.38490430  0.88369055  0.37466886  1
  O  O182  1  0.38118425  0.87988859  0.87538992  1
  O  O183  1  0.87607473  0.38283874  0.38661134  1
  O  O184  1  0.88558326  0.37650806  0.87684142  1
  O  O185  1  0.87550125  0.88105873  0.38118425  1
  O  O186  1  0.86513544  0.88476515  0.88598698  1
  O  O187  1  0.26084536  -0.00958146  0.35598761  1
  O  O188  1  0.25626295  0.00688387  0.87049154  1
  O  O189  1  0.25937058  0.49549796  0.36484958  1
  O  O190  1  0.25574753  0.50698219  0.88579687  1
  O  O191  1  0.74165988  0.00225637  0.35072019  1
  O  O192  1  0.76016117  0.00941705  0.87285707  1
  O  O193  1  0.75267218  0.51232785  0.37166437  1
  O  O194  1  0.74329407  0.51096972  0.88207947  1
  O  O195  1  0.24091798  0.49701020  0.12974155  1
  O  O196  1  0.24587468  0.48691552  0.62271763  1
  O  O197  1  0.25736824  0.98515795  0.13230132  1
  O  O198  1  0.25362416  0.99551387  0.63599923  1
  O  O199  1  0.73505139  0.50138908  0.13401056  1
  O  O200  1  0.73366789  0.48764930  0.61871777  1
  O  O201  1  0.73538301  1.00704370  0.13300155  1
  O  O202  1  0.74470985  0.99290142  0.63086153  1
  O  O203  1  0.00350637  0.36749085  0.25295336  1
  O  O204  1  0.00725252  0.37269001  0.76418516  1
  O  O205  1  -0.00030415  0.85630619  0.25865015  1
  O  O206  1  -0.00449215  0.86164122  0.74248040  1
  O  O207  1  0.49350983  0.37397731  0.26418001  1
  O  O208  1  0.50255921  0.36558099  0.75648445  1
  O  O209  1  0.50821655  0.86649195  0.25684707  1
  O  O210  1  0.50833771  0.87632033  0.76047492  1
  O  O211  1  0.49335323  0.12774299  0.24180853  1
  O  O212  1  0.49525470  0.13770104  0.75600227  1
  O  O213  1  0.49424257  0.63961642  0.25246844  1
  O  O214  1  0.50827863  0.62395515  0.74086435  1
  O  O215  1  1.00735408  0.14287160  0.25006452  1
  O  O216  1  0.98969011  0.12668464  0.75059075  1
  O  O217  1  0.99093662  0.62928864  0.24420024  1
  O  O218  1  0.99524984  0.63655101  0.75505029  1
  O  O219  1  0.36623700  0.25917962  0.00618330  1
  O  O220  1  0.37015452  0.25753990  0.50475272  1
  O  O221  1  0.37010586  0.75297654  0.00612821  1
  O  O222  1  0.36283258  0.75220334  0.49941851  1
  O  O223  1  0.86760043  0.24454015  0.01262426  1
  O  O224  1  0.86897155  0.25156830  0.50477822  1
  O  O225  1  0.86782745  0.75669722  0.00706707  1
  O  O226  1  0.86740060  0.75603141  0.48786271  1
  O  O227  1  0.13426230  0.25942229  0.48885809  1
  O  O228  1  0.13686668  0.24507390  1.00357985  1
  O  O229  1  0.13466807  0.74071404  0.48456259  1
  O  O230  1  0.13197713  0.75067112  0.99142546  1
  O  O231  1  0.63332923  0.24361134  0.49291656  1
  O  O232  1  0.63375042  0.23667383  0.99794314  1
  O  O233  1  0.62221453  0.74505048  0.48418205  1
  O  O234  1  0.63007411  0.74319631  0.99809089  1
  O  O235  1  0.48930145  0.24095256  0.12649066  1
  O  O236  1  0.49354757  0.24857132  0.63395427  1
  O  O237  1  0.48925780  0.75410992  0.13347419  1
  O  O238  1  0.50026223  0.73921786  0.61883149  1
  O  O239  1  0.99525043  0.24921128  0.13313944  1
  O  O240  1  0.98940669  0.24657476  0.62720828  1
  O  O241  1  0.99449714  0.74376924  0.13210831  1
  O  O242  1  1.04168566  0.73794926  0.62421992  1
  O  O243  1  0.01305297  0.25473946  0.37043925  1
  O  O244  1  -0.00266001  0.26503632  0.87657368  1
  O  O245  1  0.01800501  0.73688702  0.36663938  1
  O  O246  1  0.00795036  0.75319465  0.88266178  1
  O  O247  1  0.50832370  0.26114224  0.37496932  1
  O  O248  1  0.49914665  0.25960080  0.86872819  1
  O  O249  1  0.50736446  0.75730672  0.36693141  1
  O  O250  1  0.51414137  0.75753817  0.88009612  1
  O  O251  1  0.25330647  0.14218829  0.50650409  1
  O  O252  1  0.24597707  0.13007564  0.99490329  1
  O  O253  1  0.24515675  0.63480233  0.50335341  1
  O  O254  1  0.24663134  0.63825204  1.00401984  1
  O  O255  1  0.74482385  0.13455808  0.49612941  1
  O  O256  1  0.74626799  0.12872037  0.99621764  1
  O  O257  1  0.74437070  0.63484820  0.49171244  1
  O  O258  1  0.73872807  0.63026235  0.99539275  1
  O  O259  1  0.25452344  0.36773479  0.00560454  1
  O  O260  1  0.25871731  0.37100999  0.51050295  1
  O  O261  1  0.25627442  0.87091632  0.01004645  1
  O  O262  1  0.24922281  0.87157861  0.50256761  1
  O  O263  1  0.75002126  0.35634791  -0.00779728  1
  O  O264  1  0.75517364  0.36270851  0.50595779  1
  O  O265  1  0.75928573  0.86605343  0.00157864  1
  O  O266  1  0.76041675  0.87782247  0.50293832  1
  O  O267  1  0.13191629  0.50335227  0.24151290  1
  O  O268  1  0.11923530  0.48689029  0.74387692  1
  O  O269  1  0.14418716  1.00733622  0.24759147  1
  O  O270  1  0.13522790  0.99675216  0.76166574  1
  O  O271  1  0.63025805  0.50165797  0.23742337  1
  O  O272  1  0.62802376  0.49066282  0.74355980  1
  O  O273  1  0.62312893  0.98697875  0.24603728  1
  O  O274  1  0.63442755  0.98582501  0.75541749  1
  O  O275  1  0.37140466  0.00720812  0.25598803  1
  O  O276  1  0.36495031  0.00575896  0.76115458  1
  O  O277  1  0.37033526  0.51038934  0.25228448  1
  O  O278  1  0.38224958  0.51973300  0.74863526  1
  O  O279  1  0.84951242  -0.00204429  0.23193741  1
  O  O280  1  0.87075194  0.00516379  0.75829492  1
  O  O281  1  0.86683985  0.50549755  0.25485867  1
  O  O282  1  0.86273000  0.51337551  0.71827548  1
  O  O283  1  0.12447322  0.36896999  0.37083812  1
  O  O284  1  0.11905630  0.37664414  0.86643555  1
  O  O285  1  0.12721063  0.85064218  0.36709219  1
  O  O286  1  0.12695148  0.86074200  0.87730731  1
  O  O287  1  0.61576926  0.36753540  0.38467473  1
  O  O288  1  0.61658693  0.37027909  0.87102405  1
  O  O289  1  0.61911696  0.86835394  0.36793451  1
  O  O290  1  0.62043483  0.86794035  0.87118710  1
  O  O291  1  0.38004702  0.13039643  0.13072800  1
  O  O292  1  0.37582146  0.13332848  0.63457790  1
  O  O293  1  0.37047891  0.63805397  0.13517328  1
  O  O294  1  0.38562756  0.62870084  0.63559186  1
  O  O295  1  0.88448025  0.12982252  0.15046641  1
  O  O296  1  0.88048760  0.13056671  0.63288990  1
  O  O297  1  0.87828542  0.63552313  0.12958681  1
  O  O298  1  0.86509412  0.64430922  0.59996935  1
  O  O299  1  0.25653559  0.25516858  0.11980631  1
  O  O300  1  0.25531313  0.26159982  0.62000525  1
  O  O301  1  0.25567901  0.76044358  0.11851824  1
  O  O302  1  0.24367092  0.76097154  0.61275111  1
  O  O303  1  0.76002799  0.24210916  0.11854061  1
  O  O304  1  0.76048737  0.25066537  0.61862829  1
  O  O305  1  0.75800568  0.74442385  0.11516114  1
  O  O306  1  0.74378834  0.75646726  0.61545819  1
  O  O307  1  0.24259857  0.26160428  0.38501743  1
  O  O308  1  0.25664755  0.23958961  0.88594272  1
  O  O309  1  0.24357847  0.74834700  0.37804752  1
  O  O310  1  0.25441751  0.74997952  0.88830992  1
  O  O311  1  0.74398225  0.24712023  0.38247701  1
  O  O312  1  0.75302676  0.23536126  0.88243119  1
  O  O313  1  0.74105309  0.73936302  0.36232795  1
  O  O314  1  0.73936911  0.74230886  0.88925502  1
  O  O315  1  0.00924010  0.11791799  0.00205567  1
  O  O316  1  -0.00155794  0.12837864  0.51158896  1
  O  O317  1  -0.00097116  0.61644185  0.00711448  1
  O  O318  1  0.01189668  0.61029703  0.49791926  1
  O  O319  1  0.50742149  0.12384335  0.00546043  1
  O  O320  1  0.51380353  0.13251780  0.50067987  1
  O  O321  1  0.51257259  0.62403122  -0.00525148  1
  O  O322  1  0.50633976  0.62006471  0.50658444  1
  O  O323  1  0.49391094  0.38271387  0.49394657  1
  O  O324  1  0.49117846  0.37112365  0.99334877  1
  O  O325  1  0.49890468  0.87181940  0.48660377  1
  O  O326  1  0.49347116  0.87703970  0.98698909  1
  O  O327  1  0.99588231  0.38393279  0.50041323  1
  O  O328  1  0.99763450  0.37988441  0.99012280  1
  O  O329  1  0.97940833  0.87358175  0.49232843  1
  O  O330  1  0.98508202  0.88125632  1.00394406  1
  O  O331  1  0.49578929  0.49632997  0.37910628  1
  O  O332  1  0.49817015  0.48609814  0.88035596  1
  O  O333  1  0.49122969  0.99113333  0.36794173  1
  O  O334  1  0.49049899  0.99261054  0.87480064  1
  O  O335  1  0.99112793  0.49956328  0.38291737  1
  O  O336  1  1.00551207  0.48825948  0.88650641  1
  O  O337  1  0.97625175  1.00755333  0.29810852  1
  O  O338  1  0.98669125  1.00520821  0.88726982  1
  O  O339  1  -0.00297242  0.00205732  0.11349214  1
  O  O340  1  -0.00352908  0.01475436  0.62484348  1
  O  O341  1  0.00561601  0.50401409  0.12310125  1
  O  O342  1  0.01230954  0.49307417  0.61731144  1
  O  O343  1  0.48975642  0.01098315  0.12068667  1
  O  O344  1  0.50668488  0.00544165  0.63543152  1
  O  O345  1  0.51552588  0.49794121  0.12543461  1
  O  O346  1  0.51236552  0.50629371  0.62062633  1
  O  O347  1  0.25377277  0.38994881  0.24206672  1
  O  O348  1  0.23971621  0.37319396  0.74692993  1
  O  O349  1  0.25535456  0.88355881  0.23563474  1
  O  O350  1  0.24701332  0.88481042  0.74036313  1
  O  O351  1  0.75186104  0.38928185  0.26080163  1
  O  O352  1  0.74456638  0.37294939  0.74624116  1
  O  O353  1  0.73179656  0.88106829  0.24688958  1
  O  O354  1  0.74621909  0.87902814  0.74078755  1
  O  O355  1  0.26161597  0.11030790  0.23976201  1
  O  O356  1  0.25147778  0.12121064  0.75728026  1
  O  O357  1  0.25919467  0.61431420  0.24487575  1
  O  O358  1  0.25916546  0.62719686  0.74684578  1
  O  O359  1  0.73856038  0.11237394  0.25080281  1
  O  O360  1  0.75935290  0.12010593  0.75711580  1
  O  O361  1  0.75410831  0.61766714  0.25592874  1
  O  O362  1  0.74338029  0.61875665  0.77235514  1
  O  O363  1  0.38093986  0.12009321  0.36243188  1
  O  O364  1  0.36616716  0.11792654  0.87242662  1
  O  O365  1  0.38084376  0.62164608  0.36184566  1
  O  O366  1  0.37399996  0.62425506  0.86022017  1
  O  O367  1  0.87479688  0.12911854  0.35636168  1
  O  O368  1  0.87026828  0.11891577  0.86921432  1
  O  O369  1  0.86694770  0.62075350  0.37192505  1
  O  O370  1  0.85560505  0.62399485  0.88329395  1
  O  O371  1  0.13101342  0.38385919  0.12815874  1
  O  O372  1  0.13308245  0.38252420  0.63384847  1
  O  O373  1  0.13900385  0.87037225  0.12220759  1
  O  O374  1  0.13511070  0.88334966  0.62232513  1
  O  O375  1  0.62260404  0.38104125  0.12165078  1
  O  O376  1  0.62683121  0.37918319  0.63000792  1
  O  O377  1  0.61683986  0.87003867  0.13621916  1
  O  O378  1  0.63513245  0.87416631  0.63124171  1
  O  O379  1  0.12372614  0.25666478  0.25875884  1
  O  O380  1  0.12327036  0.26920357  0.74659748  1
  O  O381  1  0.12056803  0.73317558  0.26005182  1
  O  O382  1  0.13525681  0.75680797  0.77119387  1
  O  O383  1  0.62398469  0.24929136  0.26404886  1
  O  O384  1  0.61740139  0.25305895  0.75133263  1
  O  O385  1  0.61861773  0.75760074  0.25555564  1
  O  O386  1  0.63276961  0.76278210  0.76132384  1
  O  O387  1  0.37369368  0.24140853  0.24489952  1
  O  O388  1  0.38118411  0.24597100  0.74677368  1
  O  O389  1  0.38049922  0.74621906  0.24527474  1
  O  O390  1  0.37524159  0.73524595  0.74714418  1
  O  O391  1  0.88721168  0.25527776  0.24697786  1
  O  O392  1  0.87705937  0.24021585  0.74198132  1
  O  O393  1  0.87991753  0.74624080  0.24555135  1
  O  O394  1  0.86283656  0.73593513  0.74364172  1
  O  O395  1  0.38078783  0.49915093  0.49710585  1
  O  O396  1  0.37792634  0.48594073  1.00802409  1
  O  O397  1  0.36786996  1.00371728  0.48325787  1
  O  O398  1  0.37389310  0.99428513  0.98754574  1
  O  O399  1  0.88427582  0.49379920  0.50259828  1
  O  O400  1  0.88524464  0.49666076  1.01221405  1
  O  O401  1  0.87071360  0.99489908  0.49241396  1
  O  O402  1  0.87765030  0.99431660  0.99799470  1
  O  O403  1  0.11559330  0.00712314  -0.00536895  1
  O  O404  1  0.08658053  -0.01079771  0.42266259  1
  O  O405  1  0.11306013  0.49952405  0.01301430  1
  O  O406  1  0.12118892  0.50279905  0.50500486  1
  O  O407  1  0.62413058  0.01213656  -0.00656730  1
  O  O408  1  0.63093450  0.01642726  0.49570683  1
  O  O409  1  0.62322627  0.50748705  0.01550164  1
  O  O410  1  0.62014248  0.50814461  0.50615020  1
  O  O411  1  0.37106309  0.36832187  0.12012258  1
  O  O412  1  0.36994813  0.37210416  0.62325555  1
  O  O413  1  0.37090252  0.86392692  0.11928899  1
  O  O414  1  0.36270379  0.87318074  0.62176338  1
  O  O415  1  0.87678247  0.35877003  0.12276883  1
  O  O416  1  0.87096804  0.36506350  0.62196483  1
  O  O417  1  0.87934708  0.86239669  0.12236491  1
  O  O418  1  0.86317569  0.87979742  0.61036972  1
  O  O419  1  0.13505367  0.14885327  0.37023967  1
  O  O420  1  0.13638733  0.12430592  0.88510032  1
  O  O421  1  0.12994176  0.62374796  0.38675672  1
  O  O422  1  0.12610816  0.63993859  0.88014504  1
  O  O423  1  0.62383381  0.13509619  0.38480022  1
  O  O424  1  0.63558456  0.12521219  0.87979188  1
  O  O425  1  0.63166275  0.63136437  0.37713721  1
  O  O426  1  0.63020765  0.63074776  0.88626586  1
