# generated using pymatgen
data_V85Zn86O256
_symmetry_space_group_name_H-M   'P 1'
_cell_length_a   16.93439091
_cell_length_b   16.92410116
_cell_length_c   16.92398000
_cell_angle_alpha   89.93632282
_cell_angle_beta   90.02506984
_cell_angle_gamma   90.02406589
_symmetry_Int_Tables_number   1
_chemical_formula_structural   V85Zn86O256
_chemical_formula_sum   'V85 Zn86 O256'
_cell_volume   4850.39769239
_cell_formula_units_Z   1
loop_
 _symmetry_equiv_pos_site_id
 _symmetry_equiv_pos_as_xyz
  1  'x, y, z'
loop_
 _atom_site_type_symbol
 _atom_site_label
 _atom_site_symmetry_multiplicity
 _atom_site_fract_x
 _atom_site_fract_y
 _atom_site_fract_z
 _atom_site_occupancy
  V  V0  1  0.74767159  0.50483544  0.74290328  1
  V  V1  1  0.12562580  0.23457179  0.87920584  1
  V  V2  1  0.88005638  0.24736157  0.62206150  1
  V  V3  1  0.24262182  -0.00666781  0.25341935  1
  V  V4  1  0.38105207  0.12063379  0.24677774  1
  V  V5  1  0.46087129  0.02304704  -0.02146158  1
  V  V6  1  0.67335600  0.81606594  0.80196174  1
  V  V7  1  0.24342240  0.23972753  0.00030462  1
  V  V8  1  0.61957541  0.61294627  0.49810704  1
  V  V9  1  0.50106117  0.62497523  0.11526290  1
  V  V10  1  0.38171760  0.49928750  0.37753444  1
  V  V11  1  0.75017387  0.74925465  0.49638548  1
  V  V12  1  0.25042501  0.75229846  0.50006932  1
  V  V13  1  0.25334578  0.12170616  0.37790408  1
  V  V14  1  0.49628268  0.76065568  0.25095638  1
  V  V15  1  0.87867043  0.12964597  0.24813635  1
  V  V16  1  0.38133735  0.37946432  0.00336727  1
  V  V17  1  0.23943916  0.86927121  0.12837295  1
  V  V18  1  0.87338271  0.51257250  0.86756574  1
  V  V19  1  0.35894322  0.86802517  -0.00861304  1
  V  V20  1  0.49383458  0.13612156  0.62878105  1
  V  V21  1  0.88144631  0.12296086  0.74385815  1
  V  V22  1  0.00144122  0.24793605  0.74599276  1
  V  V23  1  0.87565406  0.62509438  0.25738705  1
  V  V24  1  0.10984932  0.12190515  0.50459486  1
  V  V25  1  0.25347166  0.24463066  0.50554647  1
  V  V26  1  0.75145319  0.50255287  0.25366131  1
  V  V27  1  0.12723640  0.63544026  -0.00278285  1
  V  V28  1  0.75227099  0.12427439  0.87093543  1
  V  V29  1  0.75025865  0.12528618  0.37473028  1
  V  V30  1  0.87213246  0.74976792  0.12129641  1
  V  V31  1  0.61923034  0.25095166  0.87052902  1
  V  V32  1  0.74814325  0.37827782  0.12266233  1
  V  V33  1  0.11529885  -0.00083124  0.62574878  1
  V  V34  1  0.24643743  0.63573510  0.87783584  1
  V  V35  1  0.01366988  0.74814902  0.75336189  1
  V  V36  1  0.24787754  0.88028202  0.62798243  1
  V  V37  1  0.62887726  0.10908462  0.00381583  1
  V  V38  1  0.87245789  0.37823324  -0.00471695  1
  V  V39  1  0.25290990  0.00812944  0.76012065  1
  V  V40  1  0.36774837  0.74804986  0.12280920  1
  V  V41  1  0.00756009  0.88611075  0.37128860  1
  V  V42  1  0.38159301  0.24532397  0.12568393  1
  V  V43  1  0.12627826  0.37130598  0.75317053  1
  V  V44  1  0.38991527  -0.00472875  0.37689515  1
  V  V45  1  0.49790641  0.74963775  0.75287084  1
  V  V46  1  0.37988406  0.50132430  0.88020599  1
  V  V47  1  0.50136815  0.61343689  0.62279444  1
  V  V48  1  0.12327691  0.49554612  0.12579467  1
  V  V49  1  0.74540986  0.87349153  0.12878772  1
  V  V50  1  0.74786848  0.24915512  0.50143661  1
  V  V51  1  0.87524182  0.87866684  0.00116327  1
  V  V52  1  0.74878367  0.00237309  0.24762812  1
  V  V53  1  0.74787832  0.87501482  0.62372026  1
  V  V54  1  0.38973616  0.87800323  0.49717277  1
  V  V55  1  0.12525399  0.75344001  0.36688043  1
  V  V56  1  0.74566405  0.00234230  0.75023499  1
  V  V57  1  0.62342508  0.37823679  0.24810429  1
  V  V58  1  0.24868896  0.37408648  0.12827170  1
  V  V59  1  0.12502321  0.25732132  0.37157934  1
  V  V60  1  0.00910392  0.12697542  0.11788982  1
  V  V61  1  -0.00120718  0.62600911  0.12470374  1
  V  V62  1  0.74904028  0.24945806  -0.00227589  1
  V  V63  1  0.12546959  0.62525924  0.50067715  1
  V  V64  1  0.00080957  0.37531584  0.87269408  1
  V  V65  1  0.62358426  0.25010265  0.37428830  1
  V  V66  1  -0.00274839  0.62246288  0.62768198  1
  V  V67  1  0.37548690  0.74939307  0.62360060  1
  V  V68  1  0.61266532  -0.00527010  0.62176882  1
  V  V69  1  0.01340741  0.87290151  0.87335070  1
  V  V70  1  0.25149740  0.37237087  0.62896276  1
  V  V71  1  0.49231507  0.87566500  0.87267898  1
  V  V72  1  0.00058951  0.50104941  -0.00272199  1
  V  V73  1  0.24954313  0.49820433  0.75451819  1
  V  V74  1  0.87728626  0.74752763  0.62758544  1
  V  V75  1  0.37822157  0.37302457  0.50422240  1
  V  V76  1  0.62165277  0.50503950  0.11089235  1
  V  V77  1  0.49943638  0.37424185  0.37732211  1
  V  V78  1  0.62009285  0.37478714  0.74093052  1
  V  V79  1  0.61954232  0.75759503  0.37515500  1
  V  V80  1  -0.00247751  0.50123158  0.49230458  1
  V  V81  1  0.88145815  0.88305080  0.49898767  1
  V  V82  1  0.87608269  0.37851781  0.49285590  1
  V  V83  1  0.24649947  0.49634269  0.25286419  1
  V  V84  1  0.25176312  0.62435255  0.37616529  1
  Zn  Zn85  1  0.37581528  0.24702039  0.65747874  1
  Zn  Zn86  1  0.87823366  -0.00093214  0.87342694  1
  Zn  Zn87  1  0.37846403  0.62377561  0.24929717  1
  Zn  Zn88  1  0.87661856  0.25143634  0.12349924  1
  Zn  Zn89  1  0.12322180  -0.00214643  0.12462967  1
  Zn  Zn90  1  0.00089469  0.38327261  0.36417161  1
  Zn  Zn91  1  0.00728545  0.00602022  -0.00606969  1
  Zn  Zn92  1  0.38605693  0.11688040  0.79303114  1
  Zn  Zn93  1  0.74709448  0.37913377  0.62144048  1
  Zn  Zn94  1  0.61857254  0.11882096  0.49876591  1
  Zn  Zn95  1  0.00647538  0.25800618  0.24464071  1
  Zn  Zn96  1  0.37525624  0.62304075  0.75068366  1
  Zn  Zn97  1  0.12440053  0.49739563  0.62539517  1
  Zn  Zn98  1  0.74258508  0.62930964  0.87618426  1
  Zn  Zn99  1  0.75152339  0.62269451  0.37602906  1
  Zn  Zn100  1  0.00171159  0.75652360  0.24785521  1
  Zn  Zn101  1  0.87933988  0.00479071  0.37936440  1
  Zn  Zn102  1  0.50180071  0.24617894  0.24644649  1
  Zn  Zn103  1  0.61782430  0.88314121  0.25498161  1
  Zn  Zn104  1  0.63459810  0.67543079  -0.01465130  1
  Zn  Zn105  1  0.59923359  0.00494496  0.12751745  1
  Zn  Zn106  1  0.50156351  0.37877601  0.87446945  1
  Zn  Zn107  1  0.19406219  0.18463105  0.19064011  1
  Zn  Zn108  1  0.18938063  0.18198478  0.68899159  1
  Zn  Zn109  1  0.18825542  0.68132196  0.18842598  1
  Zn  Zn110  1  0.18825700  0.68507959  0.68739586  1
  Zn  Zn111  1  0.68878270  0.18929359  0.18505562  1
  Zn  Zn112  1  0.68390067  0.18612995  0.68435622  1
  Zn  Zn113  1  0.68453594  0.68945383  0.18678184  1
  Zn  Zn114  1  0.68980429  0.67667728  0.67867725  1
  Zn  Zn115  1  0.31140594  0.31003664  0.31273611  1
  Zn  Zn116  1  0.31445728  0.30778654  0.82036722  1
  Zn  Zn117  1  0.31513328  0.81398306  0.31284285  1
  Zn  Zn118  1  0.30819884  0.81410190  0.80600015  1
  Zn  Zn119  1  0.81327591  0.31403931  0.31191226  1
  Zn  Zn120  1  0.80845929  0.31547491  0.80900160  1
  Zn  Zn121  1  0.81557335  0.81365914  0.31258687  1
  Zn  Zn122  1  0.83779186  0.81202108  0.80984061  1
  Zn  Zn123  1  0.18998288  0.43730971  0.44298268  1
  Zn  Zn124  1  0.19007623  0.43582667  0.93996903  1
  Zn  Zn125  1  0.19136639  0.93894623  0.44212486  1
  Zn  Zn126  1  0.18248535  0.93847868  0.94309931  1
  Zn  Zn127  1  0.69021160  0.43603563  0.43439588  1
  Zn  Zn128  1  0.68737142  0.44088415  0.93013454  1
  Zn  Zn129  1  0.68885500  0.93754159  0.43834136  1
  Zn  Zn130  1  0.66387923  0.89091395  0.96850544  1
  Zn  Zn131  1  0.30379564  0.05967560  0.06542644  1
  Zn  Zn132  1  0.31660495  0.05927285  0.56423942  1
  Zn  Zn133  1  0.31093315  0.56375666  0.06081457  1
  Zn  Zn134  1  0.31433585  0.55961632  0.56304923  1
  Zn  Zn135  1  0.81806992  0.06006191  0.06304563  1
  Zn  Zn136  1  0.80929234  0.06318359  0.56410232  1
  Zn  Zn137  1  0.80464036  0.56919796  0.05857852  1
  Zn  Zn138  1  0.81344521  0.56273444  0.56040526  1
  Zn  Zn139  1  0.43797603  0.43957756  0.18887620  1
  Zn  Zn140  1  0.43580051  0.43608956  0.69131684  1
  Zn  Zn141  1  0.43055046  0.94271666  0.17259503  1
  Zn  Zn142  1  0.43109371  0.93957158  0.69121077  1
  Zn  Zn143  1  0.93524264  0.43739702  0.18787630  1
  Zn  Zn144  1  0.93408045  0.43582246  0.68354827  1
  Zn  Zn145  1  0.93675272  0.94267280  0.19097138  1
  Zn  Zn146  1  0.93856313  0.93380372  0.68891873  1
  Zn  Zn147  1  0.06407452  0.06953108  0.31241504  1
  Zn  Zn148  1  0.06414009  0.05712050  0.80601396  1
  Zn  Zn149  1  0.06438581  0.56520770  0.31050748  1
  Zn  Zn150  1  0.06461925  0.56388090  0.81115399  1
  Zn  Zn151  1  0.56319443  0.06499789  0.31223711  1
  Zn  Zn152  1  0.56599788  0.05976670  0.81061750  1
  Zn  Zn153  1  0.56273587  0.56896230  0.30649529  1
  Zn  Zn154  1  0.56614680  0.56614066  0.81661346  1
  Zn  Zn155  1  0.43982352  0.18330548  0.44214806  1
  Zn  Zn156  1  0.43922539  0.19663681  0.94309801  1
  Zn  Zn157  1  0.43996321  0.68923854  0.43710433  1
  Zn  Zn158  1  0.43623963  0.68867228  0.93656252  1
  Zn  Zn159  1  0.93763314  0.19090635  0.43455814  1
  Zn  Zn160  1  0.93672899  0.18833466  0.93418963  1
  Zn  Zn161  1  0.94043475  0.69316992  0.43767146  1
  Zn  Zn162  1  0.93571928  0.68985682  0.93954258  1
  Zn  Zn163  1  0.06154515  0.31321475  0.06342307  1
  Zn  Zn164  1  0.06322189  0.31304781  0.56126727  1
  Zn  Zn165  1  0.05934931  0.81366740  0.06084716  1
  Zn  Zn166  1  0.06331086  0.81449387  0.55946970  1
  Zn  Zn167  1  0.56449462  0.31138719  0.05985791  1
  Zn  Zn168  1  0.56018284  0.31070066  0.56216320  1
  Zn  Zn169  1  0.54604145  0.82388068  0.06914915  1
  Zn  Zn170  1  0.56543116  0.80833654  0.56690761  1
  O  O171  1  0.11130489  0.12946717  0.13177676  1
  O  O172  1  0.12752481  0.11617206  0.61247985  1
  O  O173  1  0.12214293  0.61391916  0.11840472  1
  O  O174  1  0.11473866  0.62412281  0.61863831  1
  O  O175  1  0.63468257  0.12108904  0.10828996  1
  O  O176  1  0.61439452  0.11392150  0.62459575  1
  O  O177  1  0.61773309  0.61977421  0.12263491  1
  O  O178  1  0.61604827  0.62605943  0.60822230  1
  O  O179  1  0.38095890  0.37882351  0.38045521  1
  O  O180  1  0.37493347  0.38338661  0.88624560  1
  O  O181  1  0.37250399  0.88283544  0.38511790  1
  O  O182  1  0.37423453  0.86818520  0.88421657  1
  O  O183  1  0.87916521  0.36847909  0.38890907  1
  O  O184  1  0.87836167  0.38064753  0.88223807  1
  O  O185  1  0.88696072  0.87677113  0.38240604  1
  O  O186  1  0.88317362  0.87804734  0.88659025  1
  O  O187  1  0.25706477  0.00354630  0.36975053  1
  O  O188  1  0.23872236  -0.01180097  0.85648269  1
  O  O189  1  0.25686626  0.50041968  0.36962565  1
  O  O190  1  0.25734527  0.50439175  0.86954316  1
  O  O191  1  0.75040480  0.00634266  0.36460783  1
  O  O192  1  0.75378540  0.00616844  0.85760140  1
  O  O193  1  0.74737167  0.50227621  0.35877657  1
  O  O194  1  0.75945367  0.49895861  0.86245821  1
  O  O195  1  0.24447834  0.49474793  0.13239328  1
  O  O196  1  0.25033973  0.49286020  0.63591104  1
  O  O197  1  0.24743835  0.98752228  0.13567421  1
  O  O198  1  0.24387489  0.99468084  0.62902631  1
  O  O199  1  0.74122159  0.49581942  0.13105255  1
  O  O200  1  0.75568570  0.49904017  0.63805540  1
  O  O201  1  0.75765191  0.99275923  0.13880765  1
  O  O202  1  0.74623041  0.99317544  0.63419015  1
  O  O203  1  -0.00426949  0.37100460  0.25192379  1
  O  O204  1  0.00579835  0.36955301  0.75325769  1
  O  O205  1  -0.00364533  0.87510960  0.26665308  1
  O  O206  1  -0.00545984  0.86186473  0.76217851  1
  O  O207  1  0.50285030  0.37205107  0.26126011  1
  O  O208  1  0.51560665  0.37994885  0.75241151  1
  O  O209  1  0.49710714  0.86537340  0.23768313  1
  O  O210  1  0.48888612  0.86880814  0.76294167  1
  O  O211  1  0.48622047  0.12624644  0.25000764  1
  O  O212  1  0.49679173  0.11158275  0.73455220  1
  O  O213  1  0.49808371  0.63835492  0.23826438  1
  O  O214  1  0.49824707  0.63247271  0.74090179  1
  O  O215  1  0.99364379  0.13355774  0.24432943  1
  O  O216  1  0.98758254  0.12933339  0.75116180  1
  O  O217  1  0.99241548  0.62524883  0.24206502  1
  O  O218  1  1.00467303  0.63609898  0.74210135  1
  O  O219  1  0.36309242  0.25766727  0.00759919  1
  O  O220  1  0.36693593  0.26072617  0.49543846  1
  O  O221  1  0.37464608  0.75949735  0.00770752  1
  O  O222  1  0.36976798  0.75499303  0.50526572  1
  O  O223  1  0.86336691  0.25831341  -0.00388796  1
  O  O224  1  0.86912031  0.25403547  0.50494332  1
  O  O225  1  0.87849843  0.75824383  0.01390658  1
  O  O226  1  0.86929939  0.75691104  0.50715817  1
  O  O227  1  0.13267391  0.23904627  0.49778776  1
  O  O228  1  0.13573052  0.25622058  0.99490164  1
  O  O229  1  0.13117015  0.74424588  0.49165463  1
  O  O230  1  0.12054306  0.73424865  1.00459517  1
  O  O231  1  0.63334389  0.25030170  0.49354883  1
  O  O232  1  0.63644828  0.24328632  0.99362206  1
  O  O233  1  0.63328554  0.74429397  0.49471392  1
  O  O234  1  0.62465445  0.78678132  1.00070676  1
  O  O235  1  0.48550455  0.25320361  0.12436528  1
  O  O236  1  0.49862458  0.23967818  0.63105346  1
  O  O237  1  0.48564313  0.74722121  0.13165411  1
  O  O238  1  0.49261639  0.74497868  0.63425595  1
  O  O239  1  0.99706514  0.24167850  0.12527114  1
  O  O240  1  0.99155975  0.25391212  0.63163424  1
  O  O241  1  0.99247019  0.74418956  0.12887914  1
  O  O242  1  0.99697690  0.74578292  0.63112182  1
  O  O243  1  0.01738419  0.25107633  0.37651507  1
  O  O244  1  0.00585957  0.25724626  0.86858605  1
  O  O245  1  0.01009481  0.75963888  0.37227884  1
  O  O246  1  -0.00670809  0.75447406  0.86064828  1
  O  O247  1  0.50633959  0.25635832  0.37344964  1
  O  O248  1  0.51624391  0.25380364  0.88123524  1
  O  O249  1  0.50695076  0.74753054  0.36442603  1
  O  O250  1  0.49387046  0.75546133  0.86028196  1
  O  O251  1  0.25141136  0.13458861  0.49793242  1
  O  O252  1  0.24801435  0.14113789  1.00674104  1
  O  O253  1  0.24595101  0.63000027  0.49598088  1
  O  O254  1  0.24227204  0.62152757  0.98662728  1
  O  O255  1  0.74793898  0.13316983  0.49276844  1
  O  O256  1  0.74799356  0.13095494  0.99334728  1
  O  O257  1  0.74109587  0.63132801  0.49847403  1
  O  O258  1  0.74168343  0.63001020  0.99227281  1
  O  O259  1  0.25814407  0.37072537  0.01309008  1
  O  O260  1  0.25548927  0.36400589  0.50876903  1
  O  O261  1  0.25439477  0.86889005  0.00684714  1
  O  O262  1  0.25811147  0.86903392  0.50978112  1
  O  O263  1  0.75485585  0.36940284  -0.00053017  1
  O  O264  1  0.75682546  0.36897483  0.50062397  1
  O  O265  1  0.76772644  0.88522722  0.01491262  1
  O  O266  1  0.75847016  0.86542949  0.50315364  1
  O  O267  1  0.13800652  0.50446198  0.24277381  1
  O  O268  1  0.13548283  0.49242412  0.75009118  1
  O  O269  1  0.13937002  1.00671842  0.24993542  1
  O  O270  1  0.13405021  1.00415694  0.73176655  1
  O  O271  1  0.63143557  0.49638649  0.24222946  1
  O  O272  1  0.63765303  0.48759967  0.75464093  1
  O  O273  1  0.63163328  1.00316671  0.24411281  1
  O  O274  1  0.63488988  1.00177434  0.73556915  1
  O  O275  1  0.36876260  0.00419336  0.25416238  1
  O  O276  1  0.35956731  0.00537796  0.75129903  1
  O  O277  1  0.36414591  0.50032077  0.25862440  1
  O  O278  1  0.36297833  0.50049289  0.75774642  1
  O  O279  1  0.86867850  0.01415462  0.25531930  1
  O  O280  1  0.86884424  0.00807875  0.74511489  1
  O  O281  1  0.86341991  0.51310569  0.23902782  1
  O  O282  1  0.86228301  0.49158541  0.75672053  1
  O  O283  1  0.12676483  0.35988643  0.38452195  1
  O  O284  1  0.11997851  0.37011864  0.86918444  1
  O  O285  1  0.11489699  0.86980307  0.38343330  1
  O  O286  1  0.11153846  0.86691599  0.87916923  1
  O  O287  1  0.61695463  0.37135903  0.36989361  1
  O  O288  1  0.62421492  0.36763258  0.86579306  1
  O  O289  1  0.62833231  0.86259290  0.37500851  1
  O  O290  1  0.61559562  0.87700248  0.86218858  1
  O  O291  1  0.36565242  0.13389005  0.13354383  1
  O  O292  1  0.38856510  0.12826795  0.62154037  1
  O  O293  1  0.38021139  0.63125528  0.12387480  1
  O  O294  1  0.37997286  0.63612875  0.62223007  1
  O  O295  1  0.88354192  0.12872615  0.13252445  1
  O  O296  1  0.87085761  0.13775337  0.62908589  1
  O  O297  1  0.87806120  0.63334551  0.12920423  1
  O  O298  1  0.88931109  0.63263207  0.61599377  1
  O  O299  1  0.25366832  0.25751595  0.11939189  1
  O  O300  1  0.25544019  0.25224370  0.62088079  1
  O  O301  1  0.26027320  0.75220682  0.13357102  1
  O  O302  1  0.25681172  0.75525859  0.62169600  1
  O  O303  1  0.75161714  0.25953583  0.11410231  1
  O  O304  1  0.75433073  0.25010685  0.61223693  1
  O  O305  1  0.75664431  0.76574873  0.13427897  1
  O  O306  1  0.75777054  0.75221672  0.61652064  1
  O  O307  1  0.24251353  0.24509268  0.38507773  1
  O  O308  1  0.23964219  0.25422084  0.89273319  1
  O  O309  1  0.24471979  0.74644255  0.38009579  1
  O  O310  1  0.25098152  0.73400232  0.86667362  1
  O  O311  1  0.74427243  0.24751760  0.38369408  1
  O  O312  1  0.74329443  0.24532968  0.88020109  1
  O  O313  1  0.74571425  0.74819460  0.38447311  1
  O  O314  1  0.74157232  0.76150474  0.85472106  1
  O  O315  1  -0.00589479  0.12777519  0.01439026  1
  O  O316  1  0.01161170  0.12650442  0.49857860  1
  O  O317  1  0.00555995  0.61892584  0.00367988  1
  O  O318  1  0.00476576  0.62015463  0.50552677  1
  O  O319  1  0.52456794  0.12144656  -0.00447519  1
  O  O320  1  0.50354016  0.12628181  0.51847284  1
  O  O321  1  0.50609313  0.63893860  0.01300948  1
  O  O322  1  0.51218873  0.62891721  0.50548592  1
  O  O323  1  0.49307306  0.37135791  0.48812304  1
  O  O324  1  0.48541823  0.37030020  0.99935009  1
  O  O325  1  0.48843104  0.86628050  0.50468535  1
  O  O326  1  0.47868800  0.88276696  0.98630869  1
  O  O327  1  0.99448575  0.38493280  0.49912507  1
  O  O328  1  0.99154082  0.38059035  0.99394098  1
  O  O329  1  0.99134250  0.86973019  0.48724789  1
  O  O330  1  0.99265336  0.87166983  0.98740613  1
  O  O331  1  0.48765806  0.49459089  0.36769790  1
  O  O332  1  0.48343064  0.50123792  0.86792101  1
  O  O333  1  0.48953448  1.00089664  0.37211145  1
  O  O334  1  0.50850428  0.98867336  0.88442191  1
  O  O335  1  1.00693096  0.50169391  0.38796604  1
  O  O336  1  0.99251926  0.49537200  0.87555738  1
  O  O337  1  1.00248613  0.98986083  0.37385019  1
  O  O338  1  1.00051378  0.98405564  0.86935025  1
  O  O339  1  0.00184342  0.01657730  0.13060749  1
  O  O340  1  0.01582539  -0.00631979  0.62776577  1
  O  O341  1  0.00738669  0.50529857  0.11897597  1
  O  O342  1  0.00125815  0.50779245  0.61840243  1
  O  O343  1  0.48762170  0.00381781  0.09047840  1
  O  O344  1  0.51111609  -0.00480262  0.62643763  1
  O  O345  1  0.50812622  0.51230678  0.13103630  1
  O  O346  1  0.48843851  0.51454169  0.62629558  1
  O  O347  1  0.25420455  0.38032925  0.23779383  1
  O  O348  1  0.24679248  0.37900194  0.74953672  1
  O  O349  1  0.25519540  0.88265491  0.24235551  1
  O  O350  1  0.25278263  0.88257385  0.73372200  1
  O  O351  1  0.74659790  0.38309266  0.24329438  1
  O  O352  1  0.74028963  0.38328747  0.74513317  1
  O  O353  1  0.74985947  0.88527761  0.24663308  1
  O  O354  1  0.74628836  0.87688905  0.74789626  1
  O  O355  1  0.26090167  0.11656868  0.25801847  1
  O  O356  1  0.25011866  0.11126050  0.75473702  1
  O  O357  1  0.25456675  0.61465158  0.25892118  1
  O  O358  1  0.24927002  0.61561731  0.75950828  1
  O  O359  1  0.75586461  0.12113399  0.25367017  1
  O  O360  1  0.75872094  0.11958565  0.74913464  1
  O  O361  1  0.75637846  0.61990066  0.24995794  1
  O  O362  1  0.74679940  0.60978388  0.75173637  1
  O  O363  1  0.37108856  0.11742976  0.37039137  1
  O  O364  1  0.40139371  0.09593617  0.91312491  1
  O  O365  1  0.37018793  0.61483310  0.37818408  1
  O  O366  1  0.36333689  0.61906631  0.87621613  1
  O  O367  1  0.86915712  0.12550624  0.36879285  1
  O  O368  1  0.86973126  0.12397485  0.86354331  1
  O  O369  1  0.87525787  0.63262480  0.36126430  1
  O  O370  1  0.87274887  0.61510075  0.87582385  1
  O  O371  1  0.13210842  0.38766704  0.12030089  1
  O  O372  1  0.13336384  0.37361396  0.63429929  1
  O  O373  1  0.13607281  0.86782151  0.12698962  1
  O  O374  1  0.13359077  0.88999596  0.61268503  1
  O  O375  1  0.62792235  0.38076015  0.13014677  1
  O  O376  1  0.62573073  0.37127466  0.63662941  1
  O  O377  1  0.63297778  0.88715339  0.13130374  1
  O  O378  1  0.63264427  0.88440377  0.62257244  1
  O  O379  1  0.13138540  0.24480831  0.26922099  1
  O  O380  1  0.12224791  0.25202056  0.75769483  1
  O  O381  1  0.12525496  0.74399390  0.26364707  1
  O  O382  1  0.11229640  0.75169981  0.74405778  1
  O  O383  1  0.62430567  0.25779925  0.25478380  1
  O  O384  1  0.63344589  0.26317656  0.75700151  1
  O  O385  1  0.61592455  0.75377339  0.25809585  1
  O  O386  1  0.61903085  0.75372238  0.73890091  1
  O  O387  1  0.37339720  0.24120727  0.24212234  1
  O  O388  1  0.37321605  0.22913469  0.76979877  1
  O  O389  1  0.38035812  0.74687071  0.24401130  1
  O  O390  1  0.38043435  0.74605153  0.73991080  1
  O  O391  1  0.87208098  0.23935356  0.24726036  1
  O  O392  1  0.87828058  0.24498046  0.74143333  1
  O  O393  1  0.87625368  0.74314684  0.23951613  1
  O  O394  1  0.88629546  0.74710131  0.73253427  1
  O  O395  1  0.36710324  0.48272907  0.49176010  1
  O  O396  1  0.36974035  0.49161028  0.99350335  1
  O  O397  1  0.37220679  0.98964721  0.49006082  1
  O  O398  1  0.36121293  0.98108981  1.00216173  1
  O  O399  1  0.88396269  0.49133123  0.50357703  1
  O  O400  1  0.87918577  0.49473348  0.99111335  1
  O  O401  1  0.86841964  0.98716557  0.49961966  1
  O  O402  1  0.88656567  0.99332191  0.99712816  1
  O  O403  1  0.11852333  -0.00297713  0.01046139  1
  O  O404  1  0.13080605  0.01513520  0.50832714  1
  O  O405  1  0.11906392  0.50469673  0.00667630  1
  O  O406  1  0.11938934  0.50686381  0.50413549  1
  O  O407  1  0.63831964  0.00714718  0.00096925  1
  O  O408  1  0.63397800  0.00121760  0.51728392  1
  O  O409  1  0.62483314  0.49109472  0.01177995  1
  O  O410  1  0.62827816  0.51431489  0.49201480  1
  O  O411  1  0.36856256  0.36979072  0.12185300  1
  O  O412  1  0.37223306  0.36717465  0.62077600  1
  O  O413  1  0.36333162  0.86519368  0.11384472  1
  O  O414  1  0.36987201  0.86626143  0.61854756  1
  O  O415  1  0.86791189  0.37693459  0.10858253  1
  O  O416  1  0.87194167  0.36282608  0.61405242  1
  O  O417  1  0.87317366  0.86965996  0.12211529  1
  O  O418  1  0.87048120  0.86786971  0.61774440  1
  O  O419  1  0.13217131  0.13126830  0.38867310  1
  O  O420  1  0.11471522  0.13580751  0.87390953  1
  O  O421  1  0.13178734  0.63282381  0.38107303  1
  O  O422  1  0.13766156  0.61890217  0.88241714  1
  O  O423  1  0.63085718  0.13300326  0.37705016  1
  O  O424  1  0.63411037  0.13036491  0.88020794  1
  O  O425  1  0.62508238  0.63557850  0.38415771  1
  O  O426  1  0.62691840  0.63338105  0.87783275  1
