# generated using pymatgen
data_V85Zn86O256
_symmetry_space_group_name_H-M   'P 1'
_cell_length_a   16.93519552
_cell_length_b   16.94116160
_cell_length_c   16.94376528
_cell_angle_alpha   90.06739618
_cell_angle_beta   89.99171606
_cell_angle_gamma   89.97182869
_symmetry_Int_Tables_number   1
_chemical_formula_structural   V85Zn86O256
_chemical_formula_sum   'V85 Zn86 O256'
_cell_volume   4861.19417760
_cell_formula_units_Z   1
loop_
 _symmetry_equiv_pos_site_id
 _symmetry_equiv_pos_as_xyz
  1  'x, y, z'
loop_
 _atom_site_type_symbol
 _atom_site_label
 _atom_site_symmetry_multiplicity
 _atom_site_fract_x
 _atom_site_fract_y
 _atom_site_fract_z
 _atom_site_occupancy
  V  V0  1  0.62387115  0.87422088  0.24827971  1
  V  V1  1  0.75064426  0.37130239  0.11578973  1
  V  V2  1  -0.00035509  0.12312951  0.12557737  1
  V  V3  1  0.50108283  0.12683713  0.62540000  1
  V  V4  1  0.12332920  0.25353044  0.37356829  1
  V  V5  1  0.24639865  0.49589544  0.23854067  1
  V  V6  1  0.49125069  -0.00052830  0.49761436  1
  V  V7  1  0.88671482  0.74838638  0.62299582  1
  V  V8  1  0.13990343  0.87435824  0.74820203  1
  V  V9  1  0.37248325  0.12490853  0.25050484  1
  V  V10  1  0.12000914  0.87388505  0.25298883  1
  V  V11  1  0.74723194  0.25174352  0.50118372  1
  V  V12  1  0.88520597  0.24096789  0.62052994  1
  V  V13  1  0.49896056  0.86619273  0.87251671  1
  V  V14  1  0.62536905  0.00378310  0.62406670  1
  V  V15  1  0.12891598  0.12209080  -0.00056540  1
  V  V16  1  0.74776714  0.12395324  0.37425418  1
  V  V17  1  0.50172642  0.37529140  0.37661961  1
  V  V18  1  -0.00228492  0.50568087  0.50820669  1
  V  V19  1  0.25084589  0.25419084  0.00251070  1
  V  V20  1  0.50010082  0.61056521  0.12318798  1
  V  V21  1  0.87411400  -0.00057029  0.87442151  1
  V  V22  1  0.62449907  0.00113185  0.12272866  1
  V  V23  1  0.13018077  0.74866290  0.88101044  1
  V  V24  1  0.63246430  0.13452675  -0.01590491  1
  V  V25  1  0.75150943  0.87383885  0.61959985  1
  V  V26  1  0.62255774  0.86823089  0.74971573  1
  V  V27  1  0.75409764  0.62583260  0.36893819  1
  V  V28  1  0.75141112  0.37525329  0.62565086  1
  V  V29  1  0.12362171  0.00598971  0.63922439  1
  V  V30  1  0.87288326  0.12610109  0.24701735  1
  V  V31  1  -0.00515627  0.74608576  0.25463639  1
  V  V32  1  0.62258557  0.49877130  0.62655648  1
  V  V33  1  0.00052530  0.49384147  0.00241745  1
  V  V34  1  0.50007026  0.12863565  0.12293650  1
  V  V35  1  0.11995495  0.37653712  0.75166606  1
  V  V36  1  0.75530858  0.00111987  0.75161292  1
  V  V37  1  0.37948205  0.62643757  0.75806196  1
  V  V38  1  0.12734777  0.37765806  0.23676500  1
  V  V39  1  0.87515511  0.49381816  0.87929538  1
  V  V40  1  0.63354094  0.62632595  0.00787370  1
  V  V41  1  0.75101926  0.50139453  0.74995068  1
  V  V42  1  -0.00227400  0.25284356  0.24772802  1
  V  V43  1  0.24799850  0.24599977  0.49888348  1
  V  V44  1  0.25157047  0.85577602  0.12428170  1
  V  V45  1  0.88745206  0.62537954  0.74667131  1
  V  V46  1  0.13001704  -0.00316341  0.12531513  1
  V  V47  1  0.10637825  0.11895749  0.50197125  1
  V  V48  1  0.37471126  0.37750692  0.50266679  1
  V  V49  1  0.88606871  -0.00337943  0.37681470  1
  V  V50  1  0.00064001  -0.00718395  0.00097929  1
  V  V51  1  0.50602237  0.25429312  0.76278950  1
  V  V52  1  0.25329369  0.61725926  0.88047654  1
  V  V53  1  0.00161396  0.61817648  0.12914771  1
  V  V54  1  0.74873609  0.50211609  0.24347484  1
  V  V55  1  0.75505056  0.63718592  0.87645888  1
  V  V56  1  0.37214427  0.86014689  0.00613477  1
  V  V57  1  0.12167674  0.24860382  0.87446233  1
  V  V58  1  0.62250318  0.75025743  0.37388997  1
  V  V59  1  0.37463143  0.24916130  0.62498766  1
  V  V60  1  0.48948199  0.87518212  0.37364793  1
  V  V61  1  0.87457285  0.86569809  -0.00004540  1
  V  V62  1  0.12080853  0.75398491  0.37954223  1
  V  V63  1  0.62450531  0.62716843  0.50048733  1
  V  V64  1  0.37840788  0.38237701  -0.01634739  1
  V  V65  1  0.24683746  0.38050190  0.62430563  1
  V  V66  1  0.49777904  -0.00152058  -0.00173081  1
  V  V67  1  0.37370601  0.26121111  0.12355407  1
  V  V68  1  0.75017392  0.75207015  0.49711535  1
  V  V69  1  0.24975600  0.62228366  0.37990003  1
  V  V70  1  0.74965016  -0.00058588  0.24928471  1
  V  V71  1  0.36816896  0.12086988  0.74962888  1
  V  V72  1  0.87289883  0.74181956  0.12643647  1
  V  V73  1  0.49450785  0.74940540  0.23963933  1
  V  V74  1  0.12332777  0.62841078  0.51201210  1
  V  V75  1  0.25975946  0.76304014  0.50481578  1
  V  V76  1  0.87698160  0.50316607  0.36848449  1
  V  V77  1  0.13008768  0.62197998  0.00610560  1
  V  V78  1  0.62431133  0.37807777  0.24388961  1
  V  V79  1  0.37217353  0.62725645  0.24487517  1
  V  V80  1  0.89153803  0.87812336  0.49565233  1
  V  V81  1  0.50009413  0.63250459  0.62972676  1
  V  V82  1  0.87178424  0.25233357  0.10892982  1
  V  V83  1  0.36741323  -0.00310457  0.87401828  1
  V  V84  1  0.74918358  0.86946067  0.11905277  1
  Zn  Zn85  1  0.36901216  0.00007923  0.37758086  1
  Zn  Zn86  1  0.25034927  -0.00188646  0.25219771  1
  Zn  Zn87  1  0.58917095  0.40290538  0.80538955  1
  Zn  Zn88  1  0.62600253  0.25162656  0.37311173  1
  Zn  Zn89  1  0.50083869  0.25159719  0.25017580  1
  Zn  Zn90  1  0.62422557  0.12533309  0.49804263  1
  Zn  Zn91  1  0.11799815  0.50586347  0.63072032  1
  Zn  Zn92  1  0.37374885  0.49977344  0.37612845  1
  Zn  Zn93  1  0.37010975  0.76250270  0.63488130  1
  Zn  Zn94  1  -0.00985328  0.37006896  0.87591671  1
  Zn  Zn95  1  0.49826994  0.50204205  0.50046796  1
  Zn  Zn96  1  0.50518746  0.49547233  -0.01879029  1
  Zn  Zn97  1  0.00791285  0.74960942  0.74762029  1
  Zn  Zn98  1  0.87588163  0.37841638  0.49498965  1
  Zn  Zn99  1  0.25058683  0.49939623  0.75410009  1
  Zn  Zn100  1  0.24846689  0.12316688  0.37425461  1
  Zn  Zn101  1  0.86279919  0.15955202  0.78640366  1
  Zn  Zn102  1  0.24469251  0.11853100  0.86946444  1
  Zn  Zn103  1  -0.00040257  0.38081473  0.37136138  1
  Zn  Zn104  1  0.00214416  0.86989443  0.87128143  1
  Zn  Zn105  1  0.62901769  0.75333099  0.88000099  1
  Zn  Zn106  1  0.00780917  0.23564521  0.73096801  1
  Zn  Zn107  1  0.18900441  0.18916802  0.18560300  1
  Zn  Zn108  1  0.18576603  0.18662805  0.68264663  1
  Zn  Zn109  1  0.18237468  0.68269857  0.19112238  1
  Zn  Zn110  1  0.19616325  0.69100027  0.69062193  1
  Zn  Zn111  1  0.68505349  0.19186855  0.18374976  1
  Zn  Zn112  1  0.70869322  0.20530751  0.72381268  1
  Zn  Zn113  1  0.68545256  0.68781783  0.18685052  1
  Zn  Zn114  1  0.69272290  0.68852807  0.68722190  1
  Zn  Zn115  1  0.31234191  0.31225235  0.31337779  1
  Zn  Zn116  1  0.30563896  0.30345376  0.80912279  1
  Zn  Zn117  1  0.30755027  0.80967538  0.31168428  1
  Zn  Zn118  1  0.31199876  0.80496143  0.81967468  1
  Zn  Zn119  1  0.81189065  0.31446523  0.31033743  1
  Zn  Zn120  1  0.76871079  0.32628599  0.84305204  1
  Zn  Zn121  1  0.81343857  0.81455743  0.31077144  1
  Zn  Zn122  1  0.81626075  0.81607079  0.80727360  1
  Zn  Zn123  1  0.18374277  0.43955491  0.43688714  1
  Zn  Zn124  1  0.18747890  0.43667665  0.94136577  1
  Zn  Zn125  1  0.18597356  0.94058940  0.43688556  1
  Zn  Zn126  1  0.19001127  0.93041846  0.94011605  1
  Zn  Zn127  1  0.68739194  0.43917818  0.43602157  1
  Zn  Zn128  1  0.68990050  0.45099775  0.94338855  1
  Zn  Zn129  1  0.68341728  0.93864964  0.43728109  1
  Zn  Zn130  1  0.68681421  0.94100157  0.93719482  1
  Zn  Zn131  1  0.31276139  0.06196999  0.06262243  1
  Zn  Zn132  1  0.30655754  0.05930262  0.56427256  1
  Zn  Zn133  1  0.31475945  0.56167770  0.06218664  1
  Zn  Zn134  1  0.31540454  0.56555450  0.56690260  1
  Zn  Zn135  1  0.81181843  0.06003811  0.05889163  1
  Zn  Zn136  1  0.81391084  0.06152390  0.55944569  1
  Zn  Zn137  1  0.81386857  0.56084755  0.06247799  1
  Zn  Zn138  1  0.81329230  0.56527069  0.56100630  1
  Zn  Zn139  1  0.43305004  0.43742794  0.18988816  1
  Zn  Zn140  1  0.42791923  0.44309656  0.80436722  1
  Zn  Zn141  1  0.43456102  0.93844644  0.18577601  1
  Zn  Zn142  1  0.43202175  0.93825979  0.69069244  1
  Zn  Zn143  1  0.93354068  0.43698065  0.18803393  1
  Zn  Zn144  1  0.93390313  0.43146985  0.68792712  1
  Zn  Zn145  1  0.93806170  0.93445608  0.18866873  1
  Zn  Zn146  1  0.94783221  0.93737550  0.68759836  1
  Zn  Zn147  1  0.06483596  0.06580829  0.31277079  1
  Zn  Zn148  1  0.05088817  0.06357833  0.81075071  1
  Zn  Zn149  1  0.06540418  0.56533654  0.31513021  1
  Zn  Zn150  1  0.06429664  0.56030365  0.81746001  1
  Zn  Zn151  1  0.56037958  0.06340781  0.31017149  1
  Zn  Zn152  1  0.55903723  0.05782472  0.80948515  1
  Zn  Zn153  1  0.56285725  0.55927985  0.31181685  1
  Zn  Zn154  1  0.56722605  0.57433383  0.81384276  1
  Zn  Zn155  1  0.43787528  0.18883870  0.43682129  1
  Zn  Zn156  1  0.43705996  0.18505293  0.93707347  1
  Zn  Zn157  1  0.43762161  0.68700091  0.43478917  1
  Zn  Zn158  1  0.44109133  0.68465285  0.93951029  1
  Zn  Zn159  1  0.93189372  0.19180513  0.43332650  1
  Zn  Zn160  1  0.94284056  0.18227717  0.93836580  1
  Zn  Zn161  1  0.93753985  0.68664625  0.43873505  1
  Zn  Zn162  1  0.94363040  0.68445427  0.93808384  1
  Zn  Zn163  1  0.06105481  0.31117313  0.06124217  1
  Zn  Zn164  1  0.06341374  0.32082500  0.55476566  1
  Zn  Zn165  1  0.06264212  0.80626737  0.06429904  1
  Zn  Zn166  1  0.07003124  0.82009033  0.56678807  1
  Zn  Zn167  1  0.56327237  0.31340570  0.05687354  1
  Zn  Zn168  1  0.56464719  0.31317760  0.56680118  1
  Zn  Zn169  1  0.56107183  0.80812894  0.06068169  1
  Zn  Zn170  1  0.52669713  0.83450029  0.58132489  1
  O  O171  1  0.12033245  0.11589827  0.12129609  1
  O  O172  1  0.12021166  0.11810351  0.61530584  1
  O  O173  1  0.11431877  0.62652777  0.11848074  1
  O  O174  1  0.13101780  0.62615549  0.61552643  1
  O  O175  1  0.61219385  0.12089773  0.12334726  1
  O  O176  1  0.61746238  0.11203606  0.62690957  1
  O  O177  1  0.61816972  0.62796073  0.11517361  1
  O  O178  1  0.62784788  0.61945452  0.61764903  1
  O  O179  1  0.38033613  0.37411668  0.38647211  1
  O  O180  1  0.37003948  0.37291016  0.87967665  1
  O  O181  1  0.38616854  0.87780046  0.36493713  1
  O  O182  1  0.38026917  0.87863645  0.88284367  1
  O  O183  1  0.87520071  0.38800256  0.37504670  1
  O  O184  1  0.86878032  0.39061014  0.87136518  1
  O  O185  1  0.86881157  0.88453057  0.38355002  1
  O  O186  1  0.87720018  0.87684300  0.88606604  1
  O  O187  1  0.25218000  0.00494130  0.37054475  1
  O  O188  1  0.26385798  -0.00004600  0.88362320  1
  O  O189  1  0.24812798  0.51292331  0.37169908  1
  O  O190  1  0.24609576  0.51266767  0.87520052  1
  O  O191  1  0.75288782  0.00719356  0.36772642  1
  O  O192  1  0.75893587  -0.01014266  0.86305389  1
  O  O193  1  0.75578414  0.50743768  0.36700790  1
  O  O194  1  0.75910298  0.51599596  0.86715961  1
  O  O195  1  0.24978087  0.50354728  0.14031965  1
  O  O196  1  0.24683772  0.48731657  0.62234055  1
  O  O197  1  0.23792650  0.99560731  0.12644671  1
  O  O198  1  0.22317574  0.99952085  0.61081662  1
  O  O199  1  0.75877595  0.49177553  0.13808785  1
  O  O200  1  0.74414617  0.49865701  0.62932835  1
  O  O201  1  0.74463931  0.99131503  0.13077256  1
  O  O202  1  0.74354421  0.98760308  0.62186290  1
  O  O203  1  0.00890321  0.37139005  0.25001082  1
  O  O204  1  0.01148291  0.37160930  0.75177497  1
  O  O205  1  0.01295936  0.86359757  0.24239365  1
  O  O206  1  0.01541956  0.86980145  0.75387241  1
  O  O207  1  0.50590194  0.37559417  0.25670481  1
  O  O208  1  0.49639687  0.36010247  0.74950028  1
  O  O209  1  0.50332891  0.86746379  0.25167787  1
  O  O210  1  0.51126844  0.88409741  0.76217108  1
  O  O211  1  0.49300872  0.12912371  0.24076315  1
  O  O212  1  0.49013132  0.12928391  0.74196312  1
  O  O213  1  0.49275283  0.62887037  0.24574331  1
  O  O214  1  0.48887802  0.62363954  0.74553466  1
  O  O215  1  0.99481100  0.13132443  0.24274325  1
  O  O216  1  0.97528138  0.13237179  0.76662308  1
  O  O217  1  1.00659678  0.63308241  0.24133765  1
  O  O218  1  0.99079568  0.62602086  0.75184194  1
  O  O219  1  0.36938783  0.25675526  0.00262601  1
  O  O220  1  0.36553170  0.25432911  0.50409017  1
  O  O221  1  0.38099469  0.76137232  0.00125536  1
  O  O222  1  0.36093631  0.74614614  0.49630882  1
  O  O223  1  0.87913206  0.24718225  0.00973326  1
  O  O224  1  0.86315971  0.25510819  0.50279652  1
  O  O225  1  0.88162330  0.75829023  0.00940345  1
  O  O226  1  0.86885469  0.75624009  0.50422419  1
  O  O227  1  0.12931110  0.24453508  0.49275476  1
  O  O228  1  0.13295959  0.24533552  0.99588249  1
  O  O229  1  0.13136984  0.74668348  0.49591034  1
  O  O230  1  0.12032329  0.73453111  0.99451546  1
  O  O231  1  0.63653530  0.24754999  0.49962475  1
  O  O232  1  0.62047535  0.23341633  0.99946495  1
  O  O233  1  0.63147572  0.73861124  0.49180401  1
  O  O234  1  0.62057753  0.73352044  0.99799224  1
  O  O235  1  0.49203178  0.24338005  0.12446056  1
  O  O236  1  0.49367249  0.23813473  0.62299912  1
  O  O237  1  0.50218926  0.74073845  0.13693845  1
  O  O238  1  0.51721493  0.73144799  0.62704987  1
  O  O239  1  0.99236000  0.24433358  0.12892056  1
  O  O240  1  0.98934834  0.25457962  0.61135483  1
  O  O241  1  0.99307556  0.73973303  0.13306608  1
  O  O242  1  0.98956322  0.75423789  0.62318250  1
  O  O243  1  0.00519403  0.25362057  0.36566366  1
  O  O244  1  0.01349774  0.25447391  0.88341422  1
  O  O245  1  0.00743717  0.74334039  0.36613521  1
  O  O246  1  0.01547332  0.74772937  0.87277000  1
  O  O247  1  0.50235105  0.26294371  0.37387901  1
  O  O248  1  0.49916716  0.24472210  0.86175297  1
  O  O249  1  0.50426926  0.75721871  0.36680815  1
  O  O250  1  0.50179992  0.76314011  0.87752592  1
  O  O251  1  0.24274512  0.13841169  0.50062237  1
  O  O252  1  0.24421190  0.13152746  0.99786272  1
  O  O253  1  0.24346215  0.62997168  0.49435593  1
  O  O254  1  0.24276963  0.61991880  0.99613206  1
  O  O255  1  0.74768953  0.13149875  0.49047935  1
  O  O256  1  0.72996377  0.11522849  1.00451988  1
  O  O257  1  0.74395207  0.63177946  0.49095783  1
  O  O258  1  0.74164682  0.62321730  0.99460373  1
  O  O259  1  0.26359699  0.36626276  -0.00367173  1
  O  O260  1  0.25218807  0.36669223  0.50326674  1
  O  O261  1  0.25984567  0.87473033  0.01208978  1
  O  O262  1  0.24846679  0.86080977  0.49199759  1
  O  O263  1  0.75389257  0.38791638  0.01897213  1
  O  O264  1  0.75030577  0.36820398  0.50448891  1
  O  O265  1  0.75579257  0.87772938  0.01225475  1
  O  O266  1  0.75112382  0.86901733  0.50449436  1
  O  O267  1  0.13720414  0.49267479  0.25606122  1
  O  O268  1  0.12770121  0.49167300  0.74829818  1
  O  O269  1  0.12318816  0.99104272  0.24320778  1
  O  O270  1  0.12510001  0.99489746  0.74668929  1
  O  O271  1  0.63363752  0.48799279  0.25291756  1
  O  O272  1  0.63556297  0.50310595  0.74232335  1
  O  O273  1  0.62812509  0.99436061  0.24146773  1
  O  O274  1  0.63355617  0.99121103  0.74308685  1
  O  O275  1  0.37397483  0.01422709  0.24801382  1
  O  O276  1  0.37869166  0.00790943  0.76066626  1
  O  O277  1  0.36185491  0.50475743  0.25459242  1
  O  O278  1  0.36783474  0.51846666  0.74585806  1
  O  O279  1  0.86827785  0.00458993  0.25293224  1
  O  O280  1  0.87031999  -0.01552708  0.76216458  1
  O  O281  1  0.86643524  0.50023457  0.26123888  1
  O  O282  1  0.87215302  0.50896846  0.75423605  1
  O  O283  1  0.12464819  0.36391171  0.36862383  1
  O  O284  1  0.12648440  0.36652821  0.86685328  1
  O  O285  1  0.12774899  0.86292096  0.36758893  1
  O  O286  1  0.12680610  0.86562081  0.87012122  1
  O  O287  1  0.61769682  0.37461072  0.36844539  1
  O  O288  1  0.66685739  0.36776139  0.87437936  1
  O  O289  1  0.61907511  0.87066407  0.36400320  1
  O  O290  1  0.61813827  0.87449119  0.86946381  1
  O  O291  1  0.38467192  0.13200223  0.12747968  1
  O  O292  1  0.38045378  0.12675312  0.63019961  1
  O  O293  1  0.38202531  0.62093842  0.13698977  1
  O  O294  1  0.38498511  0.63146257  0.63321884  1
  O  O295  1  0.87894782  0.12972948  0.12769533  1
  O  O296  1  0.87399058  0.14148018  0.61459043  1
  O  O297  1  0.88064058  0.63672987  0.12188486  1
  O  O298  1  0.86801914  0.63709191  0.63354795  1
  O  O299  1  0.25869255  0.24445227  0.11083566  1
  O  O300  1  0.25213442  0.25959139  0.61720032  1
  O  O301  1  0.24609725  0.75677660  0.13102122  1
  O  O302  1  0.25328031  0.75155581  0.60944220  1
  O  O303  1  0.75694276  0.26211683  0.12587266  1
  O  O304  1  0.75606531  0.25925046  0.62059858  1
  O  O305  1  0.75991536  0.75756592  0.13289815  1
  O  O306  1  0.75700280  0.76083239  0.61906796  1
  O  O307  1  0.24129848  0.24881939  0.38188762  1
  O  O308  1  0.23841945  0.24443614  0.88393503  1
  O  O309  1  0.24220325  0.74001204  0.38148474  1
  O  O310  1  0.23809302  0.73649624  0.87727333  1
  O  O311  1  0.75066983  0.24267434  0.38268043  1
  O  O312  1  0.77050623  0.21980304  0.81931346  1
  O  O313  1  0.74374742  0.74332750  0.37395334  1
  O  O314  1  0.75550898  0.74045665  0.87139636  1
  O  O315  1  0.00883341  0.11370890  0.00820357  1
  O  O316  1  0.00886151  0.13058280  0.49377727  1
  O  O317  1  0.00743402  0.61596877  0.00959986  1
  O  O318  1  0.01110834  0.61936880  0.49635434  1
  O  O319  1  0.50422228  0.11662010  0.00606654  1
  O  O320  1  0.50331390  0.12022360  0.50631972  1
  O  O321  1  0.50591870  0.61846655  0.00762289  1
  O  O322  1  0.50822729  0.62367815  0.50482402  1
  O  O323  1  0.49191024  0.37560580  0.49609478  1
  O  O324  1  0.48350131  0.37508370  0.99982143  1
  O  O325  1  0.51152254  0.88762798  0.48143156  1
  O  O326  1  0.49419661  0.88157753  0.99671087  1
  O  O327  1  0.99895786  0.39054844  0.49052059  1
  O  O328  1  1.00500896  0.38964675  1.00008711  1
  O  O329  1  0.99038943  0.86840709  0.49812497  1
  O  O330  1  0.99242360  0.87727310  1.00280931  1
  O  O331  1  0.49724603  0.48795924  0.37787727  1
  O  O332  1  0.51630332  0.48518713  0.86386414  1
  O  O333  1  0.49819990  0.99415057  0.38008977  1
  O  O334  1  0.49096569  0.99064002  0.88281549  1
  O  O335  1  0.99047230  0.50498351  0.37901608  1
  O  O336  1  0.99183968  0.49678668  0.88325616  1
  O  O337  1  0.98484463  1.00385955  0.36618058  1
  O  O338  1  0.99424729  0.99118574  0.88684675  1
  O  O339  1  0.01012414  0.00070066  0.12085483  1
  O  O340  1  0.02323814  -0.00906009  0.61879996  1
  O  O341  1  -0.00998813  0.51089824  0.12016325  1
  O  O342  1  -0.00307505  0.49744134  0.61190694  1
  O  O343  1  0.50321791  0.00678017  0.11729886  1
  O  O344  1  0.50569411  0.01017409  0.61867595  1
  O  O345  1  0.49847371  0.50939214  0.12756129  1
  O  O346  1  0.51853413  0.51205565  0.62183053  1
  O  O347  1  0.24531135  0.38888012  0.25552294  1
  O  O348  1  0.24017345  0.37373519  0.74093117  1
  O  O349  1  0.23763609  0.87451477  0.24314106  1
  O  O350  1  0.23938319  0.87443934  0.75958256  1
  O  O351  1  0.74228819  0.38269204  0.24450766  1
  O  O352  1  0.75945173  0.39504876  0.73836697  1
  O  O353  1  0.74453750  0.87945444  0.23953989  1
  O  O354  1  0.74570981  0.88061244  0.73701794  1
  O  O355  1  0.25893171  0.12412759  0.24940499  1
  O  O356  1  0.26334106  0.13166216  0.74935595  1
  O  O357  1  0.25371859  0.61679143  0.25667369  1
  O  O358  1  0.25850659  0.62252812  0.75961151  1
  O  O359  1  0.75321295  0.12127351  0.25373110  1
  O  O360  1  0.76027885  0.09952126  0.72719909  1
  O  O361  1  0.74112702  0.61529442  0.25736491  1
  O  O362  1  0.75996315  0.61920401  0.75610182  1
  O  O363  1  0.37430545  0.12695733  0.36287306  1
  O  O364  1  0.37394299  0.11486430  0.86742981  1
  O  O365  1  0.36733104  0.62266083  0.36478462  1
  O  O366  1  0.37032150  0.62799447  0.86801586  1
  O  O367  1  0.86351800  0.11881463  0.36902015  1
  O  O368  1  0.87409065  0.10167141  0.89358509  1
  O  O369  1  0.86042374  0.62211154  0.37687860  1
  O  O370  1  0.87243569  0.62119413  0.86713604  1
  O  O371  1  0.12692205  0.36748710  0.13756303  1
  O  O372  1  0.13106559  0.37645054  0.63185351  1
  O  O373  1  0.13131790  0.87863728  0.13004386  1
  O  O374  1  0.12997860  0.88194899  0.64235446  1
  O  O375  1  0.63752927  0.37030236  0.13017284  1
  O  O376  1  0.63870969  0.38535994  0.61940828  1
  O  O377  1  0.63108000  0.87770569  0.12737151  1
  O  O378  1  0.62656044  0.88488873  0.63059501  1
  O  O379  1  0.12113277  0.25570133  0.25593309  1
  O  O380  1  0.12263206  0.25361776  0.75684134  1
  O  O381  1  0.11706136  0.75435749  0.25942586  1
  O  O382  1  0.12888245  0.75951510  0.75609160  1
  O  O383  1  0.62333593  0.26384982  0.25166066  1
  O  O384  1  0.60360257  0.24589950  0.73933817  1
  O  O385  1  0.61500949  0.75392819  0.25484975  1
  O  O386  1  0.63462308  0.76515413  0.75249077  1
  O  O387  1  0.37421007  0.24344572  0.24000541  1
  O  O388  1  0.38317469  0.24264497  0.74273113  1
  O  O389  1  0.38212875  0.73944458  0.25535424  1
  O  O390  1  0.36853651  0.73421016  0.74875795  1
  O  O391  1  0.87975306  0.24277942  0.24465793  1
  O  O392  1  0.88633490  0.26167992  0.72210395  1
  O  O393  1  0.88731895  0.75564384  0.24305191  1
  O  O394  1  0.87878766  0.74416804  0.73979294  1
  O  O395  1  0.37577673  0.49144583  0.49885027  1
  O  O396  1  0.37709618  0.48460923  0.99989255  1
  O  O397  1  0.38729458  1.00671325  0.49867810  1
  O  O398  1  0.38489932  0.99513511  0.99572915  1
  O  O399  1  0.88107286  0.50540883  0.48814868  1
  O  O400  1  0.88577118  0.50931893  0.98933877  1
  O  O401  1  0.87099147  0.98974976  0.48943623  1
  O  O402  1  0.88041611  0.98418449  1.00018518  1
  O  O403  1  0.12080766  -0.00011616  0.00754341  1
  O  O404  1  0.12066169  0.01850057  0.49188085  1
  O  O405  1  0.11617360  0.51138037  -0.00363796  1
  O  O406  1  0.11634571  0.51098187  0.50119566  1
  O  O407  1  0.61215443  0.00215688  0.00523019  1
  O  O408  1  0.61604316  0.00350090  0.50770806  1
  O  O409  1  0.62055406  0.51970996  -0.00059191  1
  O  O410  1  0.62779971  0.51284410  0.50517880  1
  O  O411  1  0.37694901  0.36354080  0.11897510  1
  O  O412  1  0.36515488  0.36672236  0.61114261  1
  O  O413  1  0.36354709  0.87828615  0.11864388  1
  O  O414  1  0.41791653  0.86150145  0.61463832  1
  O  O415  1  0.86187458  0.36394295  0.13320533  1
  O  O416  1  0.86339404  0.37385046  0.61468396  1
  O  O417  1  0.86841116  0.86537725  0.12050032  1
  O  O418  1  0.86805198  0.87087767  0.61566631  1
  O  O419  1  0.12485444  0.13763683  0.38247839  1
  O  O420  1  0.12468181  0.12973756  0.88140525  1
  O  O421  1  0.13249110  0.63598337  0.38338289  1
  O  O422  1  0.13246484  0.62936446  0.88298233  1
  O  O423  1  0.63637646  0.12727859  0.37236646  1
  O  O424  1  0.61988087  0.11677820  0.88546841  1
  O  O425  1  0.63164737  0.62759363  0.38100064  1
  O  O426  1  0.63742337  0.63262854  0.88307355  1
