# generated using pymatgen
data_V85Zn86O256
_symmetry_space_group_name_H-M   'P 1'
_cell_length_a   16.92809386
_cell_length_b   16.92616151
_cell_length_c   16.93133572
_cell_angle_alpha   90.05732422
_cell_angle_beta   89.94347723
_cell_angle_gamma   89.92191780
_symmetry_Int_Tables_number   1
_chemical_formula_structural   V85Zn86O256
_chemical_formula_sum   'V85 Zn86 O256'
_cell_volume   4851.28654702
_cell_formula_units_Z   1
loop_
 _symmetry_equiv_pos_site_id
 _symmetry_equiv_pos_as_xyz
  1  'x, y, z'
loop_
 _atom_site_type_symbol
 _atom_site_label
 _atom_site_symmetry_multiplicity
 _atom_site_fract_x
 _atom_site_fract_y
 _atom_site_fract_z
 _atom_site_occupancy
  V  V0  1  -0.00284161  -0.00265963  0.49882905  1
  V  V1  1  -0.00700817  0.62095613  0.62833469  1
  V  V2  1  0.62431995  0.86891348  0.74813668  1
  V  V3  1  0.50526461  -0.00295433  0.49474508  1
  V  V4  1  -0.00414410  0.25549984  0.26608144  1
  V  V5  1  0.24888831  -0.00478891  0.75194334  1
  V  V6  1  0.48880243  0.87550194  0.37460235  1
  V  V7  1  0.49804303  0.61941032  0.12092759  1
  V  V8  1  0.12594993  0.49745273  0.63386553  1
  V  V9  1  0.12613990  0.87077222  0.74820545  1
  V  V10  1  0.87336946  0.12884773  0.25496668  1
  V  V11  1  0.12993355  0.62496873  0.50459198  1
  V  V12  1  0.87136139  0.62042804  0.26606870  1
  V  V13  1  0.26320644  0.49773156  0.75126982  1
  V  V14  1  0.36933850  0.37439773  0.49883458  1
  V  V15  1  0.25276560  0.63167259  0.37800186  1
  V  V16  1  0.75177963  0.51691160  0.74969021  1
  V  V17  1  -0.00078211  0.49738432  -0.00155370  1
  V  V18  1  0.87309809  0.00823246  0.87460850  1
  V  V19  1  0.62871863  0.00114683  0.62387054  1
  V  V20  1  0.63407073  0.62237561  -0.00240847  1
  V  V21  1  0.37171798  0.24471741  0.61799630  1
  V  V22  1  0.62992143  0.36909920  0.24774769  1
  V  V23  1  0.62251547  0.49626539  0.62444875  1
  V  V24  1  0.50119952  0.12169621  0.62440384  1
  V  V25  1  0.87478154  0.87613405  -0.00030618  1
  V  V26  1  -0.00122324  0.00259890  -0.00097619  1
  V  V27  1  0.25164890  0.49944614  0.25026440  1
  V  V28  1  0.49828789  0.74790007  0.24506982  1
  V  V29  1  0.87604794  -0.00546842  0.37532541  1
  V  V30  1  0.38206557  0.37916520  -0.01575855  1
  V  V31  1  0.35886862  0.76987832  0.61011330  1
  V  V32  1  0.63303513  0.49414280  0.12588651  1
  V  V33  1  -0.00217735  0.62340540  0.12626241  1
  V  V34  1  -0.00094446  0.75245010  0.25522192  1
  V  V35  1  0.88349234  0.37355280  0.49059999  1
  V  V36  1  0.87317304  0.14425100  0.75071254  1
  V  V37  1  0.12383013  0.75406733  0.38249702  1
  V  V38  1  -0.00337843  0.37369835  0.86004386  1
  V  V39  1  0.12799180  0.74685234  0.87556922  1
  V  V40  1  0.25087309  0.86631878  0.12416836  1
  V  V41  1  0.75468527  0.25389314  0.49663774  1
  V  V42  1  0.49750492  -0.00150817  -0.00007505  1
  V  V43  1  0.25187721  0.00908324  0.24617590  1
  V  V44  1  0.37392282  0.63034507  0.24562451  1
  V  V45  1  0.24628504  0.25503288  -0.00206808  1
  V  V46  1  0.12306698  0.12917106  -0.00192700  1
  V  V47  1  0.11906400  0.25650726  0.85799453  1
  V  V48  1  -0.00213452  0.13011375  0.12581909  1
  V  V49  1  0.37514829  0.12153249  0.74832502  1
  V  V50  1  0.75794865  0.37082975  0.63191671  1
  V  V51  1  0.37600607  0.86558947  0.00309937  1
  V  V52  1  0.75292779  0.74367246  0.49149073  1
  V  V53  1  0.75075445  0.87376615  0.12584678  1
  V  V54  1  0.63274337  0.74708434  0.87436321  1
  V  V55  1  0.12200409  0.00027012  0.12178918  1
  V  V56  1  0.62619966  0.62191561  0.49170876  1
  V  V57  1  0.49735908  0.12511140  0.12450686  1
  V  V58  1  0.12006448  0.87782198  0.25285036  1
  V  V59  1  0.75220830  0.00576437  0.75343144  1
  V  V60  1  0.62396223  0.00013236  0.12579605  1
  V  V61  1  0.12711141  0.62184611  0.00044941  1
  V  V62  1  0.62531490  0.87407840  0.25269893  1
  V  V63  1  -0.00005147  0.49700187  0.48937776  1
  V  V64  1  -0.00534454  0.13985162  0.62895171  1
  V  V65  1  0.50401720  0.37033517  0.37872450  1
  V  V66  1  0.87099238  0.37772870  0.00251218  1
  V  V67  1  0.13716756  0.12671206  0.50008327  1
  V  V68  1  0.37335990  0.25053936  0.12367356  1
  V  V69  1  0.75490028  0.87267508  0.62066419  1
  V  V70  1  -0.00733868  0.74446347  0.75064778  1
  V  V71  1  0.49911685  0.86985232  0.87121712  1
  V  V72  1  0.26266072  0.61985566  0.87405564  1
  V  V73  1  0.62791818  0.13406730  0.49132700  1
  V  V74  1  0.14247821  0.24678347  0.37887052  1
  V  V75  1  0.50569158  0.25284197  0.75472688  1
  V  V76  1  0.24580006  0.36994535  0.62663388  1
  V  V77  1  0.12132788  0.37641507  0.25584770  1
  V  V78  1  0.87039967  0.25910589  0.13096143  1
  V  V79  1  0.87136734  0.51358754  0.87054491  1
  V  V80  1  0.75198471  0.24645373  -0.00242129  1
  V  V81  1  0.49999955  0.24782546  0.25553357  1
  V  V82  1  0.11732059  -0.00320320  0.62834783  1
  V  V83  1  0.62935612  0.12303214  -0.00631870  1
  V  V84  1  0.24722123  0.12648796  0.87473391  1
  Zn  Zn85  1  0.12485654  0.49652495  0.12561457  1
  Zn  Zn86  1  0.87116288  0.74244710  0.62772353  1
  Zn  Zn87  1  0.25029105  0.37750259  0.12425667  1
  Zn  Zn88  1  0.74881158  0.00280476  0.25341110  1
  Zn  Zn89  1  0.58310846  0.41132910  0.80649079  1
  Zn  Zn90  1  0.63008365  0.24489691  0.87247330  1
  Zn  Zn91  1  0.88022995  0.86987748  0.49576341  1
  Zn  Zn92  1  0.75677599  0.74374461  -0.00452682  1
  Zn  Zn93  1  0.34176752  -0.00072495  0.40565971  1
  Zn  Zn94  1  0.62742939  0.74262153  0.37174893  1
  Zn  Zn95  1  0.50353105  0.49477526  -0.01999570  1
  Zn  Zn96  1  0.87446759  0.74933784  0.12625928  1
  Zn  Zn97  1  0.49713176  0.50280603  0.50117440  1
  Zn  Zn98  1  0.37688156  0.50156704  0.37695273  1
  Zn  Zn99  1  0.25551069  0.74292457  0.00402372  1
  Zn  Zn100  1  0.37350408  -0.00333160  0.87528124  1
  Zn  Zn101  1  0.36958035  0.12608076  0.26478978  1
  Zn  Zn102  1  0.00025465  0.87504180  0.87497019  1
  Zn  Zn103  1  0.38492121  0.63840128  0.74200943  1
  Zn  Zn104  1  0.74920307  0.13101592  0.37373257  1
  Zn  Zn105  1  0.74648590  0.51160260  0.26058191  1
  Zn  Zn106  1  0.49695270  0.64822753  0.62341270  1
  Zn  Zn107  1  0.18346945  0.19272865  0.18521548  1
  Zn  Zn108  1  0.18809727  0.18308531  0.68293062  1
  Zn  Zn109  1  0.18365651  0.68741953  0.18965570  1
  Zn  Zn110  1  0.19849285  0.68898943  0.68609426  1
  Zn  Zn111  1  0.68760839  0.19071152  0.18503884  1
  Zn  Zn112  1  0.69058973  0.18844221  0.68167334  1
  Zn  Zn113  1  0.68801864  0.68725934  0.18448805  1
  Zn  Zn114  1  0.68058441  0.68720014  0.67883433  1
  Zn  Zn115  1  0.31564307  0.31389795  0.31117025  1
  Zn  Zn116  1  0.31131950  0.30912223  0.80646482  1
  Zn  Zn117  1  0.30934787  0.81310473  0.31202933  1
  Zn  Zn118  1  0.31394177  0.80850728  0.80927598  1
  Zn  Zn119  1  0.79783749  0.34359255  0.32852124  1
  Zn  Zn120  1  0.79026318  0.32517829  0.82615073  1
  Zn  Zn121  1  0.81414164  0.81225468  0.31215277  1
  Zn  Zn122  1  0.81245380  0.81788072  0.81246079  1
  Zn  Zn123  1  0.18816080  0.43841430  0.43808388  1
  Zn  Zn124  1  0.18648206  0.43612576  0.93256330  1
  Zn  Zn125  1  0.17872694  0.93701587  0.43724579  1
  Zn  Zn126  1  0.18758268  0.93428861  0.93685813  1
  Zn  Zn127  1  0.68738535  0.43658946  0.43706747  1
  Zn  Zn128  1  0.69091565  0.43762175  0.93847803  1
  Zn  Zn129  1  0.69005177  0.93754315  0.43514972  1
  Zn  Zn130  1  0.68879828  0.93827633  0.93586198  1
  Zn  Zn131  1  0.31170659  0.06023148  0.06269906  1
  Zn  Zn132  1  0.30140012  0.02671757  0.56012787  1
  Zn  Zn133  1  0.31565659  0.55774775  0.06245913  1
  Zn  Zn134  1  0.31518804  0.56504536  0.56529550  1
  Zn  Zn135  1  0.81196383  0.06308058  0.06805377  1
  Zn  Zn136  1  0.81477280  0.06618923  0.56399388  1
  Zn  Zn137  1  0.81298397  0.55970881  0.06888708  1
  Zn  Zn138  1  0.81203942  0.55705974  0.55669013  1
  Zn  Zn139  1  0.43875102  0.43660738  0.18580521  1
  Zn  Zn140  1  0.43618177  0.43572014  0.68442250  1
  Zn  Zn141  1  0.43481621  0.93489150  0.18586256  1
  Zn  Zn142  1  0.43860736  0.92347046  0.68217822  1
  Zn  Zn143  1  0.93882199  0.43921857  0.19131942  1
  Zn  Zn144  1  0.93185321  0.44041794  0.68441042  1
  Zn  Zn145  1  0.93718085  0.94001986  0.18876535  1
  Zn  Zn146  1  0.93804568  0.93700426  0.68979529  1
  Zn  Zn147  1  0.06214680  0.06635890  0.31551099  1
  Zn  Zn148  1  0.05689209  0.06704123  0.81167268  1
  Zn  Zn149  1  0.06402175  0.56580117  0.31310484  1
  Zn  Zn150  1  0.06486609  0.56057995  0.81257630  1
  Zn  Zn151  1  0.55971190  0.06433615  0.31206684  1
  Zn  Zn152  1  0.56137382  0.05826133  0.81270127  1
  Zn  Zn153  1  0.55991783  0.55619817  0.31375023  1
  Zn  Zn154  1  0.55765156  0.57477994  0.80931962  1
  Zn  Zn155  1  0.43016488  0.17825349  0.43720296  1
  Zn  Zn156  1  0.43638597  0.18787336  0.93557788  1
  Zn  Zn157  1  0.43726352  0.69232832  0.44346352  1
  Zn  Zn158  1  0.44499824  0.68792179  0.93668253  1
  Zn  Zn159  1  0.93643983  0.18767204  0.44351005  1
  Zn  Zn160  1  0.93597244  0.19223643  0.93499373  1
  Zn  Zn161  1  0.94174473  0.68719376  0.44159304  1
  Zn  Zn162  1  0.94090976  0.68920639  0.93967583  1
  Zn  Zn163  1  0.05913886  0.31598584  0.06569753  1
  Zn  Zn164  1  0.06624571  0.31232372  0.56016399  1
  Zn  Zn165  1  0.06190135  0.81007542  0.06367212  1
  Zn  Zn166  1  0.06228419  0.81184709  0.56626763  1
  Zn  Zn167  1  0.56164450  0.31058743  0.06153790  1
  Zn  Zn168  1  0.56380926  0.31307986  0.56611651  1
  Zn  Zn169  1  0.56321689  0.80774739  0.06254039  1
  Zn  Zn170  1  0.56093149  0.80919035  0.55917385  1
  O  O171  1  0.11676758  0.12289931  0.11752910  1
  O  O172  1  0.11178758  0.11907847  0.62300977  1
  O  O173  1  0.11427878  0.62357175  0.12101903  1
  O  O174  1  0.12225791  0.61803875  0.61871069  1
  O  O175  1  0.61681874  0.11889538  0.11799952  1
  O  O176  1  0.62367648  0.11563634  0.61721017  1
  O  O177  1  0.61842111  0.61729288  0.11921395  1
  O  O178  1  0.62276497  0.61406901  0.61171530  1
  O  O179  1  0.38031259  0.37497683  0.38351069  1
  O  O180  1  0.37098092  0.36812183  0.88627526  1
  O  O181  1  0.38673050  0.88299834  0.36209510  1
  O  O182  1  0.38284861  0.87413969  0.88048076  1
  O  O183  1  0.89169076  0.36491570  0.39180028  1
  O  O184  1  0.87921415  0.38376886  0.88433063  1
  O  O185  1  0.87487968  0.88982718  0.37369193  1
  O  O186  1  0.87773863  0.88666651  0.88335134  1
  O  O187  1  0.23252658  0.00182380  0.34542797  1
  O  O188  1  0.24732670  0.00718786  0.86673963  1
  O  O189  1  0.24954936  0.51225229  0.36492835  1
  O  O190  1  0.24532940  0.50743825  0.86366572  1
  O  O191  1  0.76007027  0.00641425  0.37290228  1
  O  O192  1  0.75854109  -0.00186394  0.86472437  1
  O  O193  1  0.75809306  0.45184414  0.35359754  1
  O  O194  1  0.75648552  0.50023990  0.85858393  1
  O  O195  1  0.24700827  0.50055604  0.13834137  1
  O  O196  1  0.24479187  0.49235215  0.63140137  1
  O  O197  1  0.23963418  0.98998034  0.12699912  1
  O  O198  1  0.22964023  1.00740762  0.64628935  1
  O  O199  1  0.73682518  0.50210798  0.13473219  1
  O  O200  1  0.74625053  0.49461450  0.63222290  1
  O  O201  1  0.74428264  0.98898732  0.12917307  1
  O  O202  1  0.74336227  0.99399587  0.62803675  1
  O  O203  1  0.00914008  0.36809453  0.25023400  1
  O  O204  1  -0.00702849  0.38008152  0.76068975  1
  O  O205  1  0.01134970  0.86822670  0.24374187  1
  O  O206  1  0.01016232  0.86651612  0.75222387  1
  O  O207  1  0.50067109  0.36543292  0.25761721  1
  O  O208  1  0.50119143  0.35656511  0.74211904  1
  O  O209  1  0.50578616  0.86720329  0.25037326  1
  O  O210  1  0.51277847  0.88350550  0.75939098  1
  O  O211  1  0.49488390  0.12976847  0.24156867  1
  O  O212  1  0.49179195  0.12512477  0.74462407  1
  O  O213  1  0.49331631  0.62916627  0.24549599  1
  O  O214  1  0.49956703  0.62971042  0.73688100  1
  O  O215  1  0.99052999  0.13373910  0.24667950  1
  O  O216  1  0.98919168  0.12598275  0.73860569  1
  O  O217  1  0.99417448  0.63159951  0.24477601  1
  O  O218  1  1.00767761  0.63267162  0.74111809  1
  O  O219  1  0.36446732  0.25545478  0.00259923  1
  O  O220  1  0.37880039  0.25164542  0.51334176  1
  O  O221  1  0.37601024  0.76120612  -0.00265359  1
  O  O222  1  0.37074575  0.75578474  0.50735752  1
  O  O223  1  0.87307440  0.25675278  0.01013998  1
  O  O224  1  0.87110584  0.26159465  0.50523960  1
  O  O225  1  0.87558088  0.76154129  0.00204558  1
  O  O226  1  0.86983938  0.75142088  0.50386510  1
  O  O227  1  0.12460530  0.24418940  0.48632405  1
  O  O228  1  0.13469819  0.24980954  0.99847291  1
  O  O229  1  0.11710795  0.74271144  0.49049019  1
  O  O230  1  0.12544248  0.74134425  0.99208054  1
  O  O231  1  0.63568243  0.24175235  0.50801316  1
  O  O232  1  0.63395137  0.24119876  1.00227950  1
  O  O233  1  0.63379657  0.74033275  0.49723734  1
  O  O234  1  0.62856884  0.74180739  0.99273003  1
  O  O235  1  0.49051897  0.24286813  0.12889092  1
  O  O236  1  0.49348442  0.24015280  0.63318827  1
  O  O237  1  0.50587812  0.73731844  0.13708084  1
  O  O238  1  0.48037826  0.76420205  0.61966321  1
  O  O239  1  0.99074284  0.24661840  0.13473359  1
  O  O240  1  1.00443692  0.23811633  0.62401787  1
  O  O241  1  1.00101772  0.74263418  0.13798294  1
  O  O242  1  0.99916400  0.73996635  0.63358746  1
  O  O243  1  0.00746138  0.24392747  0.36697462  1
  O  O244  1  0.00768696  0.26105424  0.87798794  1
  O  O245  1  0.00886600  0.74562957  0.36384418  1
  O  O246  1  0.01125353  0.74827763  0.86818640  1
  O  O247  1  0.48920031  0.25396343  0.36468417  1
  O  O248  1  0.50188641  0.24464889  0.85864269  1
  O  O249  1  0.50228039  0.75749880  0.36270816  1
  O  O250  1  0.51384005  0.76349448  0.87928234  1
  O  O251  1  0.23485440  0.11901731  0.51518384  1
  O  O252  1  0.24459051  0.13301724  0.99394248  1
  O  O253  1  0.23716274  0.61651076  0.49069448  1
  O  O254  1  0.24628253  0.62248841  0.99409223  1
  O  O255  1  0.74565845  0.13613567  0.50303864  1
  O  O256  1  0.73903350  0.12916351  1.00972270  1
  O  O257  1  0.74346363  0.63271911  0.50348303  1
  O  O258  1  0.73860213  0.62578644  1.00818161  1
  O  O259  1  0.25754112  0.36917658  0.00114389  1
  O  O260  1  0.26139925  0.37697104  0.50724415  1
  O  O261  1  0.25744696  0.87220011  0.00637871  1
  O  O262  1  0.27644447  0.94497054  0.48436097  1
  O  O263  1  0.76414539  0.36613224  0.00162645  1
  O  O264  1  0.76328183  0.37122788  0.50677138  1
  O  O265  1  0.76151516  0.87845542  0.00704667  1
  O  O266  1  0.75168565  0.86807017  0.50689183  1
  O  O267  1  0.13128114  0.49233863  0.25207906  1
  O  O268  1  0.13326353  0.50235749  0.73746214  1
  O  O269  1  0.12392228  0.99521298  0.23999493  1
  O  O270  1  0.12400305  0.99236852  0.74818578  1
  O  O271  1  0.62554990  0.48867706  0.24419178  1
  O  O272  1  0.63890248  0.49885458  0.74037571  1
  O  O273  1  0.62519793  0.99266308  0.24280547  1
  O  O274  1  0.63389791  0.99468734  0.74377176  1
  O  O275  1  0.35618822  0.00144637  0.23804403  1
  O  O276  1  0.36465690  0.00333192  0.75007091  1
  O  O277  1  0.36816698  0.50958890  0.25156601  1
  O  O278  1  0.36560195  0.50414968  0.74387138  1
  O  O279  1  0.87619781  0.01097479  0.25737585  1
  O  O280  1  0.86914038  0.00371145  0.75828538  1
  O  O281  1  0.87692048  0.51813343  0.24682906  1
  O  O282  1  0.86289550  0.50278299  0.75630927  1
  O  O283  1  0.13175933  0.36157576  0.36714908  1
  O  O284  1  0.11107952  0.36706597  0.87837123  1
  O  O285  1  0.12530726  0.86678229  0.36684357  1
  O  O286  1  0.12145035  0.86357370  0.87159169  1
  O  O287  1  0.60901628  0.37074819  0.36700865  1
  O  O288  1  0.66209368  0.35570027  0.86428642  1
  O  O289  1  0.62160158  0.87465925  0.36014629  1
  O  O290  1  0.61992436  0.87237741  0.86709298  1
  O  O291  1  0.38001823  0.13655627  0.12006621  1
  O  O292  1  0.37668230  0.12769688  0.63637872  1
  O  O293  1  0.38438863  0.62096258  0.13251438  1
  O  O294  1  0.37661488  0.63733930  0.62185383  1
  O  O295  1  0.88113158  0.13162979  0.13482356  1
  O  O296  1  0.88632281  0.12528207  0.63444065  1
  O  O297  1  0.88776548  0.62890702  0.12679914  1
  O  O298  1  0.88997306  0.62147658  0.61949630  1
  O  O299  1  0.25547194  0.25201004  0.11529284  1
  O  O300  1  0.25922740  0.25748144  0.63244260  1
  O  O301  1  0.24231250  0.76195058  0.12367847  1
  O  O302  1  0.25583195  0.75198977  0.61474895  1
  O  O303  1  0.76591562  0.24316256  0.11658200  1
  O  O304  1  0.74838918  0.26498273  0.61837910  1
  O  O305  1  0.75121347  0.76318413  0.12069964  1
  O  O306  1  0.75181321  0.75729925  0.61625331  1
  O  O307  1  0.24089101  0.24491845  0.36784799  1
  O  O308  1  0.24142524  0.24662341  0.88013580  1
  O  O309  1  0.24033429  0.74019624  0.36983068  1
  O  O310  1  0.23982321  0.74125120  0.87737836  1
  O  O311  1  0.75369504  0.25197480  0.39199853  1
  O  O312  1  0.75860751  0.23625493  0.89513139  1
  O  O313  1  0.74820542  0.75621085  0.38769515  1
  O  O314  1  0.73805767  0.76037585  0.87814377  1
  O  O315  1  0.00393700  0.12331429  0.00483433  1
  O  O316  1  0.00244917  0.11798059  0.51444835  1
  O  O317  1  0.00625530  0.61913759  0.00794540  1
  O  O318  1  0.01129881  0.61745461  0.50765276  1
  O  O319  1  0.50417568  0.12015553  0.00585524  1
  O  O320  1  0.51381327  0.12354307  0.50719238  1
  O  O321  1  0.50960679  0.62002036  0.00624313  1
  O  O322  1  0.51034648  0.62313620  0.50242248  1
  O  O323  1  0.49000618  0.37004753  0.49358884  1
  O  O324  1  0.48561983  0.36978007  0.99808682  1
  O  O325  1  0.51290923  0.88380381  0.48356230  1
  O  O326  1  0.49423341  0.87793501  0.99665575  1
  O  O327  1  0.99025514  0.38260818  0.51137139  1
  O  O328  1  0.98959474  0.38077579  0.99597181  1
  O  O329  1  0.99778203  0.89163575  0.50951321  1
  O  O330  1  0.98894550  0.88152034  1.00237269  1
  O  O331  1  0.49556755  0.48606320  0.37876262  1
  O  O332  1  0.52651529  0.48656842  0.86958441  1
  O  O333  1  0.50779153  0.99004040  0.38218370  1
  O  O334  1  0.49939261  0.98757678  0.88298282  1
  O  O335  1  1.01031797  0.50191049  0.39034655  1
  O  O336  1  0.99339879  0.49398401  0.87958533  1
  O  O337  1  0.99187883  1.00847016  0.38743458  1
  O  O338  1  0.99274099  0.99846090  0.88211020  1
  O  O339  1  0.00288705  0.00879663  0.11864924  1
  O  O340  1  0.00520256  0.00829181  0.62425623  1
  O  O341  1  0.00248946  0.50746697  0.11864365  1
  O  O342  1  0.00903331  0.50499839  0.62147304  1
  O  O343  1  0.50317003  0.00475490  0.11953121  1
  O  O344  1  0.51689261  0.00027540  0.62410970  1
  O  O345  1  0.50848690  0.51032307  0.12562404  1
  O  O346  1  0.51645842  0.48857373  0.62185744  1
  O  O347  1  0.24518829  0.38446682  0.24999391  1
  O  O348  1  0.25527166  0.38297652  0.73892896  1
  O  O349  1  0.23877878  0.88113758  0.24127346  1
  O  O350  1  0.23418133  0.88300483  0.76175545  1
  O  O351  1  0.72698970  0.34540149  0.23749370  1
  O  O352  1  0.75793592  0.38498610  0.73367263  1
  O  O353  1  0.74276924  0.87545617  0.24274144  1
  O  O354  1  0.74466612  0.88615228  0.74249005  1
  O  O355  1  0.24966178  0.11264691  0.23392552  1
  O  O356  1  0.25593477  0.11895513  0.75654648  1
  O  O357  1  0.25591604  0.62147045  0.25501305  1
  O  O358  1  0.25103414  0.61544470  0.75908416  1
  O  O359  1  0.76161021  0.12746588  0.25013388  1
  O  O360  1  0.75813341  0.11272298  0.74002183  1
  O  O361  1  0.76623915  0.62966911  0.24914752  1
  O  O362  1  0.74931930  0.61557924  0.74111312  1
  O  O363  1  0.37529269  0.10455079  0.37573068  1
  O  O364  1  0.36911141  0.12218530  0.86393335  1
  O  O365  1  0.36718204  0.62526286  0.36905207  1
  O  O366  1  0.36508840  0.63277020  0.87374753  1
  O  O367  1  0.87418541  0.11997541  0.36866931  1
  O  O368  1  0.88205528  0.11439637  0.86720674  1
  O  O369  1  0.88022247  0.62566435  0.36444103  1
  O  O370  1  0.87857923  0.61250528  0.88260570  1
  O  O371  1  0.12825317  0.37395418  0.14045400  1
  O  O372  1  0.13797487  0.38143057  0.61814625  1
  O  O373  1  0.12922085  0.88023964  0.13032099  1
  O  O374  1  0.12069785  0.88459617  0.63501487  1
  O  O375  1  0.61181699  0.38500494  0.13340555  1
  O  O376  1  0.64318097  0.38471509  0.61560053  1
  O  O377  1  0.63003001  0.87818666  0.13278445  1
  O  O378  1  0.63539097  0.87996549  0.63060094  1
  O  O379  1  0.11837021  0.25439167  0.26063927  1
  O  O380  1  0.12855998  0.24657979  0.75976218  1
  O  O381  1  0.11884379  0.75774500  0.25915223  1
  O  O382  1  0.12116776  0.75480330  0.75589369  1
  O  O383  1  0.60591633  0.25109032  0.24061093  1
  O  O384  1  0.60935500  0.23578900  0.74890893  1
  O  O385  1  0.61828677  0.75577821  0.25073802  1
  O  O386  1  0.63304143  0.76283099  0.75480567  1
  O  O387  1  0.37975585  0.24620323  0.24009984  1
  O  O388  1  0.38478760  0.24032896  0.74289346  1
  O  O389  1  0.38087332  0.73860674  0.25186232  1
  O  O390  1  0.36329830  0.75207052  0.72902331  1
  O  O391  1  0.88060076  0.24814908  0.24733990  1
  O  O392  1  0.85857672  0.24112561  0.76294666  1
  O  O393  1  0.88371351  0.74274031  0.24948467  1
  O  O394  1  0.88887591  0.75543327  0.75105589  1
  O  O395  1  0.37683345  0.48837362  0.49960312  1
  O  O396  1  0.38007083  0.48328770  1.00106344  1
  O  O397  1  0.40712288  1.01400319  0.51616381  1
  O  O398  1  0.38006241  0.98931475  0.99753021  1
  O  O399  1  0.88548871  0.48712783  0.50082138  1
  O  O400  1  0.87696979  0.49368194  0.99581714  1
  O  O401  1  0.88011337  1.00068146  0.49277963  1
  O  O402  1  0.87799366  0.99756563  0.99434275  1
  O  O403  1  0.11899015  0.00602212  0.00285804  1
  O  O404  1  0.11405080  0.00786694  0.50979397  1
  O  O405  1  0.11915215  0.50523508  0.00157317  1
  O  O406  1  0.12095333  0.50561585  0.50957117  1
  O  O407  1  0.61959242  0.00397683  0.00607452  1
  O  O408  1  0.62434810  0.00706661  0.50709138  1
  O  O409  1  0.62650045  0.50379866  0.00837698  1
  O  O410  1  0.62695868  0.50532981  0.50532012  1
  O  O411  1  0.37369223  0.36232562  0.11863565  1
  O  O412  1  0.36792765  0.36490322  0.61820920  1
  O  O413  1  0.36361883  0.87653774  0.11617541  1
  O  O414  1  0.36117615  0.87331810  0.62193947  1
  O  O415  1  0.88114992  0.36846937  0.11920352  1
  O  O416  1  0.86231546  0.37988803  0.61597810  1
  O  O417  1  0.86737831  0.87592802  0.11974585  1
  O  O418  1  0.86267572  0.87541627  0.62545613  1
  O  O419  1  0.12372049  0.13659275  0.38474503  1
  O  O420  1  0.12560565  0.13491899  0.88070749  1
  O  O421  1  0.13187023  0.63422642  0.38142770  1
  O  O422  1  0.13212980  0.62976832  0.88147486  1
  O  O423  1  0.62853365  0.12180736  0.38719074  1
  O  O424  1  0.61994425  0.12327052  0.88964064  1
  O  O425  1  0.62348064  0.62151725  0.38563916  1
  O  O426  1  0.62482557  0.63657520  0.88428061  1
