# generated using pymatgen
data_V85Zn86O256
_symmetry_space_group_name_H-M   'P 1'
_cell_length_a   16.96135389
_cell_length_b   16.97559889
_cell_length_c   16.94747498
_cell_angle_alpha   90.06298442
_cell_angle_beta   89.96681356
_cell_angle_gamma   90.00748924
_symmetry_Int_Tables_number   1
_chemical_formula_structural   V85Zn86O256
_chemical_formula_sum   'V85 Zn86 O256'
_cell_volume   4879.66809232
_cell_formula_units_Z   1
loop_
 _symmetry_equiv_pos_site_id
 _symmetry_equiv_pos_as_xyz
  1  'x, y, z'
loop_
 _atom_site_type_symbol
 _atom_site_label
 _atom_site_symmetry_multiplicity
 _atom_site_fract_x
 _atom_site_fract_y
 _atom_site_fract_z
 _atom_site_occupancy
  V  V0  1  0.87702519  0.37469426  -0.00148656  1
  V  V1  1  0.49143069  0.25274955  0.75366490  1
  V  V2  1  0.25085320  0.36920933  0.11802457  1
  V  V3  1  0.25708180  0.12867158  0.37973844  1
  V  V4  1  0.74418720  0.74647683  -0.00028141  1
  V  V5  1  0.12535722  0.50385895  0.61898308  1
  V  V6  1  0.00719693  -0.00056920  0.51023001  1
  V  V7  1  0.63312072  -0.00472945  0.63081550  1
  V  V8  1  0.61836307  0.37655816  0.75375178  1
  V  V9  1  0.49118129  0.87915750  0.37734941  1
  V  V10  1  0.37042906  0.74267021  0.63730339  1
  V  V11  1  0.37240861  0.24584344  0.11705593  1
  V  V12  1  0.37713634  0.74538704  0.12311178  1
  V  V13  1  0.12512449  0.87412246  0.25181307  1
  V  V14  1  0.61720303  0.25201683  0.87531275  1
  V  V15  1  0.75113778  0.00061072  0.25040782  1
  V  V16  1  0.25869663  0.50365149  0.74852602  1
  V  V17  1  0.49912057  0.12537228  0.63066979  1
  V  V18  1  0.74949399  0.25189900  0.00083057  1
  V  V19  1  0.00237887  0.62530683  0.61814596  1
  V  V20  1  0.87415625  0.12398396  0.25094341  1
  V  V21  1  0.36593361  0.01128527  0.86385132  1
  V  V22  1  0.12241898  0.74294502  0.37932701  1
  V  V23  1  0.38529869  0.88046281  -0.00580840  1
  V  V24  1  0.12770917  0.12233221  0.49882010  1
  V  V25  1  0.61140683  0.62440229  0.50502369  1
  V  V26  1  0.25469375  -0.00129946  0.25905705  1
  V  V27  1  0.86732471  0.49288116  0.37588755  1
  V  V28  1  0.50226993  0.11976037  0.12346057  1
  V  V29  1  -0.00106476  0.00049405  -0.01830380  1
  V  V30  1  0.00087932  0.25051858  0.25313578  1
  V  V31  1  0.25220440  0.87272004  0.12493115  1
  V  V32  1  0.37474406  0.62238299  0.24819176  1
  V  V33  1  0.11672265  0.37981238  0.75812305  1
  V  V34  1  0.62356239  0.12302029  -0.00258923  1
  V  V35  1  0.75545218  0.87802949  0.12123592  1
  V  V36  1  0.25502578  0.62438309  0.87479820  1
  V  V37  1  0.87421481  -0.00047134  0.38065930  1
  V  V38  1  0.50144406  0.75009264  0.24880034  1
  V  V39  1  0.37457747  0.24948798  0.61724938  1
  V  V40  1  0.00055422  0.62234987  0.12624085  1
  V  V41  1  0.87812027  0.75119638  0.12414076  1
  V  V42  1  0.12457479  0.75022177  0.87760156  1
  V  V43  1  0.00314058  0.49420779  -0.00451588  1
  V  V44  1  0.74968347  0.12479975  0.38536575  1
  V  V45  1  0.86651431  0.62081441  0.25184394  1
  V  V46  1  0.38336111  0.38263791  0.50199425  1
  V  V47  1  0.88473189  0.87437283  -0.01451919  1
  V  V48  1  0.24951786  0.37406737  0.61796472  1
  V  V49  1  0.24695712  0.62205247  0.37873963  1
  V  V50  1  0.73681266  0.62576294  0.88046880  1
  V  V51  1  0.13295881  0.25170569  0.88088444  1
  V  V52  1  0.25059030  0.49525281  0.25105106  1
  V  V53  1  0.13929571  0.12922565  -0.00087272  1
  V  V54  1  0.87344151  0.25032697  0.12571111  1
  V  V55  1  0.87268903  0.62414542  0.75153805  1
  V  V56  1  0.24635200  0.88655757  0.62959516  1
  V  V57  1  0.37929141  0.12183127  0.25444715  1
  V  V58  1  0.00698519  0.13505091  0.63628699  1
  V  V59  1  0.12319804  -0.00007873  0.12696186  1
  V  V60  1  -0.00498916  0.49335941  0.50054411  1
  V  V61  1  0.12760528  0.87862284  0.75270056  1
  V  V62  1  0.62497136  0.24833340  0.37204323  1
  V  V63  1  0.62678654  0.38885564  0.24592600  1
  V  V64  1  0.74711176  0.38766189  0.12821236  1
  V  V65  1  -0.00012794  0.87441640  0.37858859  1
  V  V66  1  0.37905974  0.49234628  0.87929693  1
  V  V67  1  0.87891395  0.49638731  0.87363903  1
  V  V68  1  0.74372766  0.49969193  0.74816450  1
  V  V69  1  0.87260861  0.75255436  0.62581105  1
  V  V70  1  0.51657030  0.62029054  0.12109287  1
  V  V71  1  0.74503838  0.74716084  0.50727433  1
  V  V72  1  0.24657598  0.74806790  0.50256073  1
  V  V73  1  0.62555733  0.75412549  0.37758412  1
  V  V74  1  -0.00121647  0.74843379  0.25162844  1
  V  V75  1  0.12948596  0.25129817  0.37880230  1
  V  V76  1  0.76610600  0.13052060  0.86619972  1
  V  V77  1  -0.00018899  0.12269448  0.12462974  1
  V  V78  1  0.00166908  0.74884834  0.75548667  1
  V  V79  1  0.51140021  0.49373495  0.00099894  1
  V  V80  1  0.86730080  0.87551608  0.50450346  1
  V  V81  1  0.12451673  0.49743614  0.12676164  1
  V  V82  1  0.62717914  -0.00416096  0.12211888  1
  V  V83  1  0.49176803  0.00248084  0.50041879  1
  V  V84  1  0.50073396  0.38137302  0.37558993  1
  Zn  Zn85  1  0.12429131  0.37375011  0.25271453  1
  Zn  Zn86  1  0.12569637  0.62416026  0.00073774  1
  Zn  Zn87  1  0.50119509  0.25143272  0.24739075  1
  Zn  Zn88  1  0.78743420  -0.00609481  0.77228011  1
  Zn  Zn89  1  0.74617606  0.62371779  0.37408121  1
  Zn  Zn90  1  0.53945378  -0.04396624  -0.04719722  1
  Zn  Zn91  1  0.48198140  0.61316778  0.63215898  1
  Zn  Zn92  1  0.37015835  0.87734105  0.50009360  1
  Zn  Zn93  1  -0.00487604  0.36904257  0.38227579  1
  Zn  Zn94  1  0.50967837  0.74827935  0.76566541  1
  Zn  Zn95  1  0.62513915  0.87661273  0.25107036  1
  Zn  Zn96  1  0.62393908  0.12501888  0.50480442  1
  Zn  Zn97  1  0.37940184  0.50258401  0.37775243  1
  Zn  Zn98  1  0.87472575  0.26262508  0.62152641  1
  Zn  Zn99  1  0.34044930  0.12845384  0.75076817  1
  Zn  Zn100  1  0.75096387  0.37317836  0.62265934  1
  Zn  Zn101  1  0.62365840  0.87799436  0.76485261  1
  Zn  Zn102  1  0.76089635  0.26462352  0.49880270  1
  Zn  Zn103  1  0.37873603  0.36686387  -0.00531783  1
  Zn  Zn104  1  0.24785128  0.74709655  0.00198871  1
  Zn  Zn105  1  0.61564954  0.50091924  0.62145102  1
  Zn  Zn106  1  -0.00667470  0.25164134  0.76416175  1
  Zn  Zn107  1  0.18870882  0.18630416  0.18950578  1
  Zn  Zn108  1  0.18283062  0.20128147  0.68038569  1
  Zn  Zn109  1  0.18692814  0.68461163  0.19008211  1
  Zn  Zn110  1  0.18759922  0.68556536  0.68926464  1
  Zn  Zn111  1  0.68785027  0.18915211  0.18958656  1
  Zn  Zn112  1  0.68854724  0.18873031  0.68663579  1
  Zn  Zn113  1  0.68870447  0.69304515  0.18659603  1
  Zn  Zn114  1  0.67803903  0.69449951  0.69218939  1
  Zn  Zn115  1  0.31684136  0.30938569  0.31025305  1
  Zn  Zn116  1  0.30831518  0.31618961  0.80768270  1
  Zn  Zn117  1  0.31298693  0.80908551  0.31246512  1
  Zn  Zn118  1  0.31328266  0.81442585  0.81584278  1
  Zn  Zn119  1  0.80926525  0.31252024  0.31192107  1
  Zn  Zn120  1  0.81419282  0.31252900  0.80631974  1
  Zn  Zn121  1  0.81058113  0.81266951  0.31396233  1
  Zn  Zn122  1  0.80823253  0.80739668  0.81052483  1
  Zn  Zn123  1  0.18542733  0.43605549  0.43937463  1
  Zn  Zn124  1  0.19084516  0.43764687  0.93747685  1
  Zn  Zn125  1  0.18922159  0.93505723  0.43853483  1
  Zn  Zn126  1  0.18711321  0.93616372  0.93894002  1
  Zn  Zn127  1  0.68594999  0.44143454  0.43328857  1
  Zn  Zn128  1  0.68809701  0.43562595  0.93374726  1
  Zn  Zn129  1  0.68143050  0.93891382  0.44656195  1
  Zn  Zn130  1  0.71393345  0.92623883  0.91230064  1
  Zn  Zn131  1  0.31452060  0.05516549  0.06801503  1
  Zn  Zn132  1  0.31394464  0.06403457  0.56361330  1
  Zn  Zn133  1  0.31282526  0.55876451  0.05897079  1
  Zn  Zn134  1  0.30944343  0.56135491  0.55820982  1
  Zn  Zn135  1  0.81495611  0.06257356  0.05429823  1
  Zn  Zn136  1  0.83871498  0.04390303  0.60529150  1
  Zn  Zn137  1  0.81505039  0.56358922  0.06082099  1
  Zn  Zn138  1  0.80905001  0.56173733  0.56269557  1
  Zn  Zn139  1  0.43825006  0.43695008  0.18476247  1
  Zn  Zn140  1  0.44145645  0.43752177  0.68838096  1
  Zn  Zn141  1  0.43992972  0.93683436  0.18653266  1
  Zn  Zn142  1  0.43451192  0.93592998  0.69243144  1
  Zn  Zn143  1  0.93538252  0.43604401  0.18965851  1
  Zn  Zn144  1  0.93168493  0.43383470  0.68566815  1
  Zn  Zn145  1  0.93733322  0.93676455  0.18715341  1
  Zn  Zn146  1  0.95320805  0.93545139  0.69309380  1
  Zn  Zn147  1  0.06279701  0.06236228  0.31708324  1
  Zn  Zn148  1  0.13528040  0.08092009  0.78949573  1
  Zn  Zn149  1  0.05849420  0.56011343  0.31357238  1
  Zn  Zn150  1  0.06504945  0.56476682  0.81038190  1
  Zn  Zn151  1  0.56312904  0.05949711  0.31271359  1
  Zn  Zn152  1  0.55756670  0.06474578  0.81082511  1
  Zn  Zn153  1  0.56272475  0.56559646  0.31424945  1
  Zn  Zn154  1  0.55452944  0.56981235  0.81263105  1
  Zn  Zn155  1  0.44191387  0.19377755  0.43897472  1
  Zn  Zn156  1  0.43600672  0.17656737  0.93547549  1
  Zn  Zn157  1  0.43360095  0.69280635  0.43781689  1
  Zn  Zn158  1  0.43201219  0.67898043  0.94327047  1
  Zn  Zn159  1  0.93616768  0.18717884  0.44488487  1
  Zn  Zn160  1  0.94866281  0.19154937  0.93698802  1
  Zn  Zn161  1  0.93456246  0.68278862  0.43954069  1
  Zn  Zn162  1  0.93657729  0.68229185  0.93814523  1
  Zn  Zn163  1  0.06363860  0.31148562  0.06339793  1
  Zn  Zn164  1  0.06680746  0.31372518  0.56063945  1
  Zn  Zn165  1  0.06272303  0.81394099  0.06077391  1
  Zn  Zn166  1  0.06420810  0.81193445  0.56471076  1
  Zn  Zn167  1  0.56124276  0.31136401  0.06572276  1
  Zn  Zn168  1  0.58904266  0.32886322  0.54780479  1
  Zn  Zn169  1  0.58096168  0.78620527  -0.08139338  1
  Zn  Zn170  1  0.53923719  0.83382271  0.59876428  1
  O  O171  1  0.11954292  0.12109534  0.11875280  1
  O  O172  1  0.12242631  0.13227760  0.60384357  1
  O  O173  1  0.11803729  0.61651335  0.12596666  1
  O  O174  1  0.11452213  0.61594089  0.63123582  1
  O  O175  1  0.62133661  0.11905723  0.12011566  1
  O  O176  1  0.61172451  0.12069417  0.62573480  1
  O  O177  1  0.61451463  0.62564361  0.12949298  1
  O  O178  1  0.62466522  0.63014056  0.60977431  1
  O  O179  1  0.38327470  0.37295464  0.38251401  1
  O  O180  1  0.36783762  0.38768045  0.87762010  1
  O  O181  1  0.38721626  0.87000239  0.37601116  1
  O  O182  1  0.37192212  0.88111801  0.88974939  1
  O  O183  1  0.87583290  0.38926074  0.36868883  1
  O  O184  1  0.86642507  0.38924785  0.88311649  1
  O  O185  1  0.88032560  0.87903209  0.38489669  1
  O  O186  1  0.88343346  0.86451335  0.88680742  1
  O  O187  1  0.24877975  0.00385939  0.36372603  1
  O  O188  1  0.26728364  -0.00454808  0.88470150  1
  O  O189  1  0.24848025  0.50638551  0.36846944  1
  O  O190  1  0.25441637  0.50517213  0.86772737  1
  O  O191  1  0.75396145  0.00405394  0.37161083  1
  O  O192  1  0.76194333  0.02759484  0.88688087  1
  O  O193  1  0.76326823  0.50386146  0.37569902  1
  O  O194  1  0.75650882  0.50953584  0.87160231  1
  O  O195  1  0.24412530  0.49378567  0.13341157  1
  O  O196  1  0.24263876  0.49816736  0.63064811  1
  O  O197  1  0.24367724  0.99146150  0.13798773  1
  O  O198  1  0.25028943  0.98456928  0.61973012  1
  O  O199  1  0.75569394  0.48659420  0.11989486  1
  O  O200  1  0.73990618  0.50671711  0.64034979  1
  O  O201  1  0.74726821  0.99977237  0.12870187  1
  O  O202  1  0.73042399  1.01412763  0.61854050  1
  O  O203  1  0.00013788  0.35945768  0.24990658  1
  O  O204  1  0.01604013  0.38518792  0.74696179  1
  O  O205  1  0.00381510  0.86810642  0.25861881  1
  O  O206  1  0.01000044  0.85457732  0.74382168  1
  O  O207  1  0.51139522  0.37373099  0.25112307  1
  O  O208  1  0.50231596  0.36098138  0.75410569  1
  O  O209  1  0.50309956  0.87034246  0.25786372  1
  O  O210  1  0.51072733  0.85814148  0.71684303  1
  O  O211  1  0.49370096  0.12377433  0.24406026  1
  O  O212  1  0.49596149  0.13605022  0.74046572  1
  O  O213  1  0.49443409  0.62643864  0.24070938  1
  O  O214  1  0.50731809  0.63661270  0.74038657  1
  O  O215  1  0.99499694  0.13297760  0.24680037  1
  O  O216  1  1.02577675  0.12543627  0.73518816  1
  O  O217  1  0.99130970  0.63053657  0.24527555  1
  O  O218  1  0.99375269  0.63119036  0.74050602  1
  O  O219  1  0.38077493  0.24685108  0.01263877  1
  O  O220  1  0.37939174  0.26185374  0.51170559  1
  O  O221  1  0.36889797  0.75870039  0.01284771  1
  O  O222  1  0.35527656  0.75365958  0.49747794  1
  O  O223  1  0.86957680  0.25614389  0.00505600  1
  O  O224  1  0.87413513  0.25579018  0.50230851  1
  O  O225  1  0.87762649  0.75586977  0.00839197  1
  O  O226  1  0.86822628  0.75434125  0.50631102  1
  O  O227  1  0.12252872  0.24222864  0.48507551  1
  O  O228  1  0.12412191  0.23681426  0.99970475  1
  O  O229  1  0.13370355  0.75178545  0.49119458  1
  O  O230  1  0.12580026  0.74666084  0.99272222  1
  O  O231  1  0.61672973  0.23907079  0.47952729  1
  O  O232  1  0.63120930  0.24651793  0.99564956  1
  O  O233  1  0.63317783  0.74368271  0.49446122  1
  O  O234  1  0.64493813  0.75278724  1.00655318  1
  O  O235  1  0.49517324  0.23582528  0.12814310  1
  O  O236  1  0.49029331  0.24335973  0.63355340  1
  O  O237  1  0.48959033  0.73288846  0.13224392  1
  O  O238  1  0.47032696  0.74343627  0.60741099  1
  O  O239  1  0.99473665  0.24223922  0.13195848  1
  O  O240  1  1.01234089  0.24096689  0.62867961  1
  O  O241  1  0.99672444  0.74391755  0.13052921  1
  O  O242  1  0.99466486  0.74055867  0.62875701  1
  O  O243  1  0.00745137  0.24857753  0.36757068  1
  O  O244  1  0.02059281  0.25375621  0.87730031  1
  O  O245  1  0.00585867  0.75233679  0.37443118  1
  O  O246  1  0.00962020  0.73793534  0.86596518  1
  O  O247  1  0.50620506  0.26097594  0.36736936  1
  O  O248  1  0.50597016  0.24102261  0.86789068  1
  O  O249  1  0.50616963  0.75686050  0.36919731  1
  O  O250  1  0.48768816  0.74703913  0.87887250  1
  O  O251  1  0.24644214  0.11707998  0.48566969  1
  O  O252  1  0.23637142  0.11900009  1.01288263  1
  O  O253  1  0.24827138  0.62938720  0.48504411  1
  O  O254  1  0.24528541  0.62495239  0.99179914  1
  O  O255  1  0.74750535  0.12255148  0.48604085  1
  O  O256  1  0.74270700  0.13860137  0.99862215  1
  O  O257  1  0.74546744  0.63634064  0.49607776  1
  O  O258  1  0.75796437  0.63129603  0.98971238  1
  O  O259  1  0.25405239  0.37980910  0.01551416  1
  O  O260  1  0.25705043  0.38151788  0.51238044  1
  O  O261  1  0.25403235  0.87320119  0.01618478  1
  O  O262  1  0.24720039  0.86688587  0.51068151  1
  O  O263  1  0.75274090  0.36612374  0.00605876  1
  O  O264  1  0.70312770  0.36681110  0.51299432  1
  O  O265  1  0.76584738  0.86736949  0.00201294  1
  O  O266  1  0.76259406  0.86811058  0.49625333  1
  O  O267  1  0.13148042  0.49727964  0.24514946  1
  O  O268  1  0.13193647  0.49406871  0.74183879  1
  O  O269  1  0.13187588  0.99359435  0.24798626  1
  O  O270  1  0.10966114  0.97578607  0.76089814  1
  O  O271  1  0.62616027  0.48759350  0.25393230  1
  O  O272  1  0.62957218  0.49165288  0.76110023  1
  O  O273  1  0.63624750  1.00013724  0.24239549  1
  O  O274  1  0.61712135  0.99873253  0.73652995  1
  O  O275  1  0.36770146  0.01181133  0.24371351  1
  O  O276  1  0.37052686  0.00299872  0.75996114  1
  O  O277  1  0.36594862  0.50422747  0.25149832  1
  O  O278  1  0.36423445  0.49343493  0.75791474  1
  O  O279  1  0.86910514  0.00393562  0.25740684  1
  O  O280  1  0.87463293  0.00800278  0.70959697  1
  O  O281  1  0.88248945  0.50899759  0.26368370  1
  O  O282  1  0.86587480  0.50406548  0.75766423  1
  O  O283  1  0.12260277  0.36540064  0.37278811  1
  O  O284  1  0.12733638  0.37793367  0.86265702  1
  O  O285  1  0.12121805  0.86331766  0.37022191  1
  O  O286  1  0.13495621  0.85766625  0.87027578  1
  O  O287  1  0.61997442  0.36978549  0.36231319  1
  O  O288  1  0.62692774  0.36024369  0.86941499  1
  O  O289  1  0.61721738  0.86516108  0.37804322  1
  O  O290  1  0.60939491  0.89138089  0.88806377  1
  O  O291  1  0.38387432  0.12632618  0.12980825  1
  O  O292  1  0.37671284  0.13429324  0.62948965  1
  O  O293  1  0.37034601  0.63247042  0.13103281  1
  O  O294  1  0.36386486  0.63818636  0.62133074  1
  O  O295  1  0.87983126  0.13050289  0.12978783  1
  O  O296  1  0.90621478  0.13516351  0.61693610  1
  O  O297  1  0.88170506  0.62905073  0.13273250  1
  O  O298  1  0.88008275  0.63265666  0.63136788  1
  O  O299  1  0.25885417  0.25770103  0.13275044  1
  O  O300  1  0.25974982  0.26410146  0.62502637  1
  O  O301  1  0.25639385  0.75718952  0.12993927  1
  O  O302  1  0.25301899  0.75097384  0.61745400  1
  O  O303  1  0.75498040  0.25538248  0.11759377  1
  O  O304  1  0.74922084  0.25165298  0.61849429  1
  O  O305  1  0.75999819  0.75572576  0.11883519  1
  O  O306  1  0.75920308  0.74575683  0.61685053  1
  O  O307  1  0.24262568  0.23944618  0.36697450  1
  O  O308  1  0.23403122  0.26326548  0.87592853  1
  O  O309  1  0.24076085  0.74290629  0.37836475  1
  O  O310  1  0.24590013  0.73998770  0.87670311  1
  O  O311  1  0.74314883  0.24214514  0.37566426  1
  O  O312  1  0.74191319  0.24544371  0.88328755  1
  O  O313  1  0.74141177  0.75087963  0.38404823  1
  O  O314  1  0.75990196  0.73209589  0.88527957  1
  O  O315  1  0.00565382  0.11422693  0.00743968  1
  O  O316  1  0.01203300  0.11464482  0.49594229  1
  O  O317  1  0.00032392  0.61122400  0.00918144  1
  O  O318  1  -0.00396314  0.61595972  0.51227928  1
  O  O319  1  0.51483119  0.12848791  0.00859675  1
  O  O320  1  0.49597934  0.12004787  0.51119499  1
  O  O321  1  0.49646911  0.61398747  0.01626549  1
  O  O322  1  0.50995823  0.63034978  0.49775405  1
  O  O323  1  0.49536923  0.37155593  0.48894139  1
  O  O324  1  0.49639952  0.38945394  1.01153709  1
  O  O325  1  0.49536151  0.88384428  0.49610529  1
  O  O326  1  0.48358770  0.87194771  1.01032668  1
  O  O327  1  1.00471158  0.38975684  0.50056892  1
  O  O328  1  0.99411288  0.38710324  1.00779547  1
  O  O329  1  0.99551025  0.88028308  0.49636505  1
  O  O330  1  0.99841908  0.89130277  1.00541032  1
  O  O331  1  0.49828081  0.48638258  0.36829764  1
  O  O332  1  0.49160774  0.50794169  0.89138991  1
  O  O333  1  0.50688101  0.99001029  0.38457438  1
  O  O334  1  0.47814183  1.01478443  0.87924327  1
  O  O335  1  0.99160311  0.49845280  0.38453053  1
  O  O336  1  0.99266218  0.50573966  0.88358567  1
  O  O337  1  0.99192774  0.99352731  0.38178362  1
  O  O338  1  1.00241361  1.00520239  0.88690172  1
  O  O339  1  0.00848530  0.00846152  0.13010895  1
  O  O340  1  0.01058737  0.00989966  0.61249823  1
  O  O341  1  0.00588116  0.50244210  0.12151631  1
  O  O342  1  0.00516826  0.50698095  0.61983546  1
  O  O343  1  0.51098763  0.01082436  0.12985141  1
  O  O344  1  0.50181059  0.00861723  0.61962196  1
  O  O345  1  0.49603083  0.51238231  0.11723361  1
  O  O346  1  0.50198021  0.50217106  0.62293989  1
  O  O347  1  0.25131805  0.38550197  0.24582185  1
  O  O348  1  0.24074064  0.38639761  0.73823507  1
  O  O349  1  0.24817853  0.88022703  0.24451558  1
  O  O350  1  0.24283174  0.86981327  0.73815495  1
  O  O351  1  0.73710560  0.37172080  0.24198244  1
  O  O352  1  0.73792645  0.38656452  0.75458598  1
  O  O353  1  0.75115799  0.88333856  0.24182590  1
  O  O354  1  0.74119422  0.89411434  0.79443042  1
  O  O355  1  0.25678269  0.11645920  0.25862137  1
  O  O356  1  0.22791467  0.12419308  0.74557810  1
  O  O357  1  0.25297541  0.61429745  0.25857533  1
  O  O358  1  0.24423672  0.61266172  0.75897401  1
  O  O359  1  0.75727408  0.11862513  0.25613584  1
  O  O360  1  0.74768706  0.12526907  0.76564662  1
  O  O361  1  0.76336678  0.63214282  0.25115556  1
  O  O362  1  0.75222170  0.61967738  0.76275105  1
  O  O363  1  0.36974754  0.13317163  0.36674655  1
  O  O364  1  0.36369869  0.11666654  0.87051670  1
  O  O365  1  0.36555975  0.62466203  0.36732896  1
  O  O366  1  0.36056354  0.61048250  0.88124119  1
  O  O367  1  0.86892231  0.11709316  0.37050721  1
  O  O368  1  0.86436647  0.14309085  0.87668431  1
  O  O369  1  0.87380306  0.61708367  0.36667846  1
  O  O370  1  0.87094068  0.61286838  0.86929418  1
  O  O371  1  0.13325889  0.37847898  0.13015678  1
  O  O372  1  0.13255905  0.38283909  0.63122125  1
  O  O373  1  0.13282827  0.87819597  0.13266425  1
  O  O374  1  0.13807350  0.86674147  0.63471204  1
  O  O375  1  0.63167967  0.37057275  0.13822357  1
  O  O376  1  0.62126364  0.37882568  0.64674462  1
  O  O377  1  0.63581383  0.89195715  0.12525406  1
  O  O378  1  0.63416338  0.89384560  0.61635359  1
  O  O379  1  0.11676321  0.24735441  0.25934182  1
  O  O380  1  0.12137161  0.26912625  0.75691409  1
  O  O381  1  0.11874446  0.75500224  0.25722579  1
  O  O382  1  0.11818184  0.75140197  0.75803228  1
  O  O383  1  0.62376674  0.25602420  0.25860669  1
  O  O384  1  0.61546493  0.25477233  0.75917446  1
  O  O385  1  0.62013839  0.75399560  0.25853721  1
  O  O386  1  0.62931294  0.76175363  0.76329593  1
  O  O387  1  0.37706314  0.23571249  0.23909959  1
  O  O388  1  0.37731935  0.24938219  0.74219636  1
  O  O389  1  0.38014432  0.74407270  0.24189288  1
  O  O390  1  0.37123574  0.75111282  0.73787356  1
  O  O391  1  0.88115843  0.24397823  0.24690592  1
  O  O392  1  0.88493389  0.26110393  0.73995280  1
  O  O393  1  0.88114381  0.74452363  0.24573060  1
  O  O394  1  0.88064625  0.74558109  0.74377057  1
  O  O395  1  0.37205835  0.48706077  0.49628425  1
  O  O396  1  0.38263373  0.49393983  0.99436212  1
  O  O397  1  0.38675114  0.99732341  0.50319111  1
  O  O398  1  0.37536198  0.98387313  1.00430855  1
  O  O399  1  0.88057040  0.50728841  0.48583741  1
  O  O400  1  0.88343686  0.49525714  0.99310928  1
  O  O401  1  0.88375055  0.99002261  0.50398420  1
  O  O402  1  0.89128748  0.99164489  1.00419445  1
  O  O403  1  0.11688752  0.00738275  0.00543002  1
  O  O404  1  0.11707412  0.00868484  0.48740164  1
  O  O405  1  0.11805050  0.49894046  0.00712662  1
  O  O406  1  0.11784739  0.49921900  0.51269275  1
  O  O407  1  0.62911522  0.01158367  0.00814288  1
  O  O408  1  0.61115853  0.00654835  0.50882454  1
  O  O409  1  0.61049674  0.49363684  -0.00329229  1
  O  O410  1  0.62895587  0.52306767  0.49598518  1
  O  O411  1  0.36835237  0.36209361  0.12779647  1
  O  O412  1  0.36957521  0.37060644  0.61891121  1
  O  O413  1  0.36884651  0.86678763  0.12339180  1
  O  O414  1  0.35807299  0.86389627  0.62351429  1
  O  O415  1  0.86728357  0.36870417  0.12089429  1
  O  O416  1  0.86446670  0.38246181  0.61761956  1
  O  O417  1  0.87259059  0.86870918  0.11973443  1
  O  O418  1  0.88548596  0.85886305  0.61680280  1
  O  O419  1  0.13470228  0.13096416  0.37927827  1
  O  O420  1  0.12819556  0.13389673  0.89307178  1
  O  O421  1  0.13022023  0.63605564  0.36732095  1
  O  O422  1  0.13442600  0.63280522  0.87614202  1
  O  O423  1  0.63431093  0.13150628  0.36945926  1
  O  O424  1  0.62971256  0.13425885  0.88320448  1
  O  O425  1  0.62431103  0.63812700  0.38138422  1
  O  O426  1  0.63876948  0.62023506  0.88111577  1
