# generated using pymatgen
data_V85Zn86O256
_symmetry_space_group_name_H-M   'P 1'
_cell_length_a   16.96792841
_cell_length_b   16.98111784
_cell_length_c   16.95118637
_cell_angle_alpha   90.06767978
_cell_angle_beta   90.05280595
_cell_angle_gamma   90.03082534
_symmetry_Int_Tables_number   1
_chemical_formula_structural   V85Zn86O256
_chemical_formula_sum   'V85 Zn86 O256'
_cell_volume   4884.21358433
_cell_formula_units_Z   1
loop_
 _symmetry_equiv_pos_site_id
 _symmetry_equiv_pos_as_xyz
  1  'x, y, z'
loop_
 _atom_site_type_symbol
 _atom_site_label
 _atom_site_symmetry_multiplicity
 _atom_site_fract_x
 _atom_site_fract_y
 _atom_site_fract_z
 _atom_site_occupancy
  V  V0  1  0.37044891  -0.00212741  0.87084507  1
  V  V1  1  0.75027520  0.63233724  0.38181033  1
  V  V2  1  0.37257269  0.62715776  0.25291732  1
  V  V3  1  0.87189848  0.12112426  0.25064003  1
  V  V4  1  0.25268627  0.25056801  0.50308665  1
  V  V5  1  0.00724781  0.74808531  0.25067637  1
  V  V6  1  0.24806415  0.62803824  0.39191762  1
  V  V7  1  0.12613279  0.50704984  0.12180385  1
  V  V8  1  0.24671693  0.12469909  0.87226189  1
  V  V9  1  0.37218860  0.24475608  0.12973535  1
  V  V10  1  0.49854513  0.63018597  0.12993109  1
  V  V11  1  -0.00011847  0.11792581  0.62719016  1
  V  V12  1  0.87962257  0.49893508  0.37653881  1
  V  V13  1  0.00090647  0.87588919  0.37731500  1
  V  V14  1  0.00270099  0.62578087  0.62131016  1
  V  V15  1  0.86627926  -0.00515624  0.37571882  1
  V  V16  1  0.63374546  0.12079600  0.49845301  1
  V  V17  1  0.87216293  0.12000879  0.74684265  1
  V  V18  1  0.00261180  0.11926461  0.12239783  1
  V  V19  1  0.62948961  0.87346970  0.24041671  1
  V  V20  1  0.87002908  0.86531945  0.49904127  1
  V  V21  1  0.74991525  0.75636191  0.00559683  1
  V  V22  1  0.13406519  0.37271193  0.74467054  1
  V  V23  1  0.36518409  0.87264354  -0.00769781  1
  V  V24  1  0.62603840  0.23480494  0.88495587  1
  V  V25  1  0.37800618  0.62274035  0.75508679  1
  V  V26  1  0.25492989  0.49536814  0.74822843  1
  V  V27  1  0.50711977  0.37490888  0.87500990  1
  V  V28  1  0.87697655  0.25414149  0.12563867  1
  V  V29  1  0.49874843  0.62290203  0.62279878  1
  V  V30  1  0.12605420  0.11682438  0.50026924  1
  V  V31  1  0.00254922  0.37628977  0.87513973  1
  V  V32  1  0.62454215  0.37693914  0.24426294  1
  V  V33  1  0.12044080  0.25004283  0.86917886  1
  V  V34  1  0.12094812  0.88116570  0.73763572  1
  V  V35  1  0.87516894  0.62625293  0.24795828  1
  V  V36  1  0.86812719  0.50159651  0.87222019  1
  V  V37  1  0.11809858  0.11715004  -0.00420657  1
  V  V38  1  0.26746084  0.11945578  0.36272664  1
  V  V39  1  0.37272590  0.12328919  0.74746568  1
  V  V40  1  0.50524956  0.12681955  0.12195889  1
  V  V41  1  0.49812296  0.75065225  0.74717717  1
  V  V42  1  0.37579165  0.25310033  0.62470007  1
  V  V43  1  0.24123620  0.00011520  0.73298645  1
  V  V44  1  0.37491911  0.37673127  0.50230725  1
  V  V45  1  0.74537483  0.86855360  0.61993432  1
  V  V46  1  0.13085422  0.75080222  0.38879049  1
  V  V47  1  0.64476930  0.35747172  0.72934873  1
  V  V48  1  0.87535638  0.37601890  -0.00194662  1
  V  V49  1  0.49884611  0.24430806  0.25293947  1
  V  V50  1  0.86775566  0.62612028  0.74980403  1
  V  V51  1  0.36464237  0.87396185  0.50323575  1
  V  V52  1  0.87764115  0.00055151  0.88160512  1
  V  V53  1  0.49556423  0.87303379  0.87361583  1
  V  V54  1  0.00398629  0.87332389  0.88371917  1
  V  V55  1  0.62610936  0.74934626  0.87501383  1
  V  V56  1  0.00418695  0.75035974  0.75211601  1
  V  V57  1  0.23443216  0.62368853  0.87695175  1
  V  V58  1  0.75099044  0.37819247  0.12399462  1
  V  V59  1  0.23743827  0.74677052  -0.00632777  1
  V  V60  1  0.12687411  0.25132102  0.37603175  1
  V  V61  1  0.49553939  0.86315761  0.37054136  1
  V  V62  1  0.00197720  0.49719720  0.49867534  1
  V  V63  1  0.50386121  0.00375820  -0.00252536  1
  V  V64  1  -0.00112575  0.25153465  0.25414392  1
  V  V65  1  0.64251075  0.27860729  0.40275213  1
  V  V66  1  0.12494447  0.88406886  0.24639143  1
  V  V67  1  0.74876862  0.23867591  -0.00315544  1
  V  V68  1  -0.03768878  0.27397329  0.72916864  1
  V  V69  1  0.87342572  0.75633265  0.12596265  1
  V  V70  1  0.24883991  0.37495710  0.12530138  1
  V  V71  1  0.12156557  0.37682181  0.25254919  1
  V  V72  1  0.64127594  0.50299658  0.63029805  1
  V  V73  1  0.49352257  0.38052577  0.37182305  1
  V  V74  1  0.62460813  0.62618181  0.00109964  1
  V  V75  1  0.13243327  0.50111496  0.61908603  1
  V  V76  1  0.49888569  0.24741858  0.75336930  1
  V  V77  1  0.74787662  -0.00256242  0.75240722  1
  V  V78  1  0.50032001  0.12313214  0.62341001  1
  V  V79  1  0.00366060  0.51054220  -0.00244303  1
  V  V80  1  0.62542546  0.50476353  0.12250943  1
  V  V81  1  0.29980292  0.93183264  0.17989773  1
  V  V82  1  0.36758029  0.74747386  0.12623144  1
  V  V83  1  0.49452362  0.00067340  0.48602825  1
  V  V84  1  0.37640268  0.37418165  0.00084326  1
  Zn  Zn85  1  0.12556796  -0.00579352  0.11750963  1
  Zn  Zn86  1  0.74520838  -0.00485615  0.22683995  1
  Zn  Zn87  1  0.24516172  0.25109739  -0.00013315  1
  Zn  Zn88  1  0.50268510  0.50150338  0.49935900  1
  Zn  Zn89  1  -0.00017250  -0.00298187  0.50341432  1
  Zn  Zn90  1  0.24900427  0.50177607  0.25292981  1
  Zn  Zn91  1  0.37294056  0.50285098  0.37592332  1
  Zn  Zn92  1  0.75123468  0.50175588  0.25007680  1
  Zn  Zn93  1  0.66706490  0.05779115  0.06508902  1
  Zn  Zn94  1  0.87196111  0.74750667  0.62215396  1
  Zn  Zn95  1  0.62160303  -0.00436710  0.62588523  1
  Zn  Zn96  1  0.49947057  0.50196001  -0.00171195  1
  Zn  Zn97  1  0.87441175  0.87882269  0.00601907  1
  Zn  Zn98  1  0.35579515  0.74909830  0.61483900  1
  Zn  Zn99  1  0.00508916  0.62808946  0.12050947  1
  Zn  Zn100  1  0.62740844  0.63178940  0.50341949  1
  Zn  Zn101  1  -0.05269810  0.33772556  0.43096715  1
  Zn  Zn102  1  0.37734099  0.49742955  0.87615358  1
  Zn  Zn103  1  0.62345008  0.87416343  0.74728596  1
  Zn  Zn104  1  0.62758586  0.75304610  0.37721886  1
  Zn  Zn105  1  0.74882007  0.62503229  0.87352400  1
  Zn  Zn106  1  0.74453279  0.12142823  0.37375406  1
  Zn  Zn107  1  0.18649802  0.18548731  0.18696731  1
  Zn  Zn108  1  0.18611772  0.18623067  0.68246999  1
  Zn  Zn109  1  0.19135004  0.69051526  0.19056353  1
  Zn  Zn110  1  0.18352157  0.68449155  0.68650619  1
  Zn  Zn111  1  0.69046898  0.19479798  0.19203768  1
  Zn  Zn112  1  0.68341710  0.18035584  0.69480590  1
  Zn  Zn113  1  0.68803809  0.69460345  0.19368933  1
  Zn  Zn114  1  0.68631450  0.68939106  0.68680449  1
  Zn  Zn115  1  0.30969731  0.30914161  0.31218396  1
  Zn  Zn116  1  0.31390471  0.31079946  0.81563634  1
  Zn  Zn117  1  0.31703434  0.80900353  0.31987645  1
  Zn  Zn118  1  0.28885091  0.79361047  0.78159697  1
  Zn  Zn119  1  0.81786463  0.29911391  0.33918784  1
  Zn  Zn120  1  0.80942773  0.31796941  0.80250095  1
  Zn  Zn121  1  0.81025103  0.81347305  0.30752422  1
  Zn  Zn122  1  0.81490335  0.81345755  0.81192003  1
  Zn  Zn123  1  0.19118644  0.43687428  0.43792550  1
  Zn  Zn124  1  0.18925266  0.43856728  0.93771919  1
  Zn  Zn125  1  0.19005690  0.94253451  0.42908484  1
  Zn  Zn126  1  0.18431573  0.93644334  0.93057979  1
  Zn  Zn127  1  0.68504408  0.45456663  0.43549826  1
  Zn  Zn128  1  0.68901788  0.43360997  0.93586887  1
  Zn  Zn129  1  0.68259532  0.93481085  0.43671951  1
  Zn  Zn130  1  0.69041934  0.93253915  0.93233700  1
  Zn  Zn131  1  0.31534991  0.06927333  0.05347646  1
  Zn  Zn132  1  0.31386026  0.06364779  0.55450360  1
  Zn  Zn133  1  0.31069533  0.56125435  0.06069038  1
  Zn  Zn134  1  0.31803777  0.56017389  0.56659050  1
  Zn  Zn135  1  0.82821738  0.06372617  0.06226901  1
  Zn  Zn136  1  0.81370951  0.05484937  0.56692241  1
  Zn  Zn137  1  0.81342302  0.56760783  0.06118566  1
  Zn  Zn138  1  0.81891443  0.56076713  0.55929132  1
  Zn  Zn139  1  0.43556930  0.44180272  0.18733761  1
  Zn  Zn140  1  0.44717598  0.43452314  0.68738433  1
  Zn  Zn141  1  0.46433620  0.93810089  0.18395316  1
  Zn  Zn142  1  0.43405304  0.93754567  0.68415106  1
  Zn  Zn143  1  0.94119416  0.43990466  0.18774587  1
  Zn  Zn144  1  0.93920617  0.44317671  0.68934265  1
  Zn  Zn145  1  0.94008189  0.93788866  0.18996453  1
  Zn  Zn146  1  0.93511236  0.93603968  0.68594018  1
  Zn  Zn147  1  0.06110800  0.06307795  0.31631020  1
  Zn  Zn148  1  0.05541333  0.06094325  0.80867319  1
  Zn  Zn149  1  0.06731447  0.56540379  0.31544041  1
  Zn  Zn150  1  0.05901584  0.55907916  0.80561173  1
  Zn  Zn151  1  0.56595143  0.06090075  0.30979309  1
  Zn  Zn152  1  0.56214285  0.05972076  0.81337477  1
  Zn  Zn153  1  0.56121231  0.56443829  0.31006954  1
  Zn  Zn154  1  0.56576490  0.55866162  0.80955844  1
  Zn  Zn155  1  0.44598589  0.19232099  0.43606567  1
  Zn  Zn156  1  0.43454041  0.18811657  0.93948145  1
  Zn  Zn157  1  0.43450526  0.69030280  0.44147428  1
  Zn  Zn158  1  0.43587900  0.68735566  0.93776764  1
  Zn  Zn159  1  0.93128120  0.17569724  0.44200628  1
  Zn  Zn160  1  0.93738578  0.18955153  0.93139149  1
  Zn  Zn161  1  0.94165048  0.68543194  0.43696419  1
  Zn  Zn162  1  0.93746898  0.69086311  0.93581495  1
  Zn  Zn163  1  0.06226629  0.31287245  0.06192066  1
  Zn  Zn164  1  0.07021783  0.31068972  0.56808318  1
  Zn  Zn165  1  0.06295079  0.81087653  0.06464859  1
  Zn  Zn166  1  0.05842276  0.81250320  0.56313484  1
  Zn  Zn167  1  0.56192221  0.31112687  0.06250766  1
  Zn  Zn168  1  0.67893783  0.31410010  0.56443488  1
  Zn  Zn169  1  0.55495692  0.81036997  0.06030509  1
  Zn  Zn170  1  0.56250131  0.80969170  0.55747718  1
  O  O171  1  0.11934335  0.12476559  0.11418371  1
  O  O172  1  0.11448177  0.13177565  0.61216991  1
  O  O173  1  0.12583896  0.61025696  0.13303814  1
  O  O174  1  0.11563379  0.61309152  0.63362738  1
  O  O175  1  0.61098724  0.13621270  0.12589770  1
  O  O176  1  0.61577024  0.12064063  0.61902287  1
  O  O177  1  0.61695401  0.62493390  0.12387062  1
  O  O178  1  0.61875946  0.61719118  0.62789738  1
  O  O179  1  0.37887849  0.37630029  0.37756640  1
  O  O180  1  0.38664208  0.37236699  0.88287875  1
  O  O181  1  0.38743509  0.87523185  0.38330348  1
  O  O182  1  0.37834037  0.87835851  0.87946095  1
  O  O183  1  0.87913503  0.39785984  0.35332059  1
  O  O184  1  0.88127366  0.38421494  0.87798770  1
  O  O185  1  0.87812336  0.87764530  0.37906147  1
  O  O186  1  0.88557997  0.88267727  0.87545688  1
  O  O187  1  0.25096368  0.02075296  0.37375172  1
  O  O188  1  0.25100388  0.01282685  0.86905021  1
  O  O189  1  0.24940321  0.51525219  0.37491965  1
  O  O190  1  0.25394280  0.50842926  0.86983858  1
  O  O191  1  0.75964909  -0.00145582  0.37307297  1
  O  O192  1  0.76642054  -0.00887840  0.86729063  1
  O  O193  1  0.76126570  0.51214822  0.37031310  1
  O  O194  1  0.76522074  0.50574992  0.88663523  1
  O  O195  1  0.24254696  0.49242554  0.12554320  1
  O  O196  1  0.24381394  0.50562662  0.63583492  1
  O  O197  1  0.24880077  0.99833486  0.12009532  1
  O  O198  1  0.25159319  1.00719217  0.63439141  1
  O  O199  1  0.74434614  0.49712824  0.12577611  1
  O  O200  1  0.74079446  0.50280639  0.62159779  1
  O  O201  1  0.75047285  1.00275194  0.11316508  1
  O  O202  1  0.74708650  0.98666018  0.63418050  1
  O  O203  1  0.01304135  0.36654202  0.24436715  1
  O  O204  1  0.01798744  0.37369784  0.75642344  1
  O  O205  1  0.00628854  0.86511976  0.25712925  1
  O  O206  1  0.00423589  0.86999557  0.75438717  1
  O  O207  1  0.50108820  0.37050498  0.25517494  1
  O  O208  1  0.51399093  0.36569487  0.75671923  1
  O  O209  1  0.50472265  0.87593488  0.26589097  1
  O  O210  1  0.49867564  0.86674345  0.75445342  1
  O  O211  1  0.50463340  0.13758742  0.24362583  1
  O  O212  1  0.49152497  0.12487866  0.74448994  1
  O  O213  1  0.48640125  0.62404264  0.24246914  1
  O  O214  1  0.49423658  0.62913867  0.74636418  1
  O  O215  1  0.99160231  0.13186655  0.24608917  1
  O  O216  1  0.99074433  0.13149649  0.74107662  1
  O  O217  1  0.99666078  0.63698310  0.25236794  1
  O  O218  1  0.99422065  0.63295227  0.74330466  1
  O  O219  1  0.37180032  0.26052277  0.00783210  1
  O  O220  1  0.37129336  0.25488988  0.50439753  1
  O  O221  1  0.36761899  0.75779980  0.00386407  1
  O  O222  1  0.37350954  0.76722467  0.50104260  1
  O  O223  1  0.86974860  0.25610429  0.00208723  1
  O  O224  1  0.86466409  0.26357961  0.44199364  1
  O  O225  1  0.86761544  0.74922602  0.00907715  1
  O  O226  1  0.88023908  0.76171616  0.49970834  1
  O  O227  1  0.13388030  0.24690455  0.49348030  1
  O  O228  1  0.12225244  0.24555640  0.98336097  1
  O  O229  1  0.12272322  0.75585373  0.48819816  1
  O  O230  1  0.13811966  0.75112965  1.00190431  1
  O  O231  1  0.61591805  0.23370022  0.49956554  1
  O  O232  1  0.63556890  0.25291922  0.99651650  1
  O  O233  1  0.62063738  0.74312699  0.49049751  1
  O  O234  1  0.62921266  0.74608508  0.99501336  1
  O  O235  1  0.49079225  0.24566789  0.12989315  1
  O  O236  1  0.49285678  0.23293889  0.63577875  1
  O  O237  1  0.48424464  0.73718689  0.11718131  1
  O  O238  1  0.49941018  0.73913954  0.63434531  1
  O  O239  1  0.99796201  0.24389040  0.13654522  1
  O  O240  1  1.00232738  0.24441707  0.63682464  1
  O  O241  1  0.99626842  0.74544547  0.13418184  1
  O  O242  1  0.99719837  0.74093968  0.63166624  1
  O  O243  1  0.00990821  0.25059180  0.36501134  1
  O  O244  1  0.00458405  0.25825857  0.85903428  1
  O  O245  1  0.00916718  0.75430026  0.36874818  1
  O  O246  1  -0.00557309  0.76423998  0.86716717  1
  O  O247  1  0.51650664  0.26023436  0.36731162  1
  O  O248  1  0.50376693  0.25420450  0.87379593  1
  O  O249  1  0.49655243  0.76178063  0.37423653  1
  O  O250  1  0.50770951  0.75408502  0.87187778  1
  O  O251  1  0.24278787  0.13226767  0.49216186  1
  O  O252  1  0.23935427  0.13006555  0.98886215  1
  O  O253  1  0.25832282  0.62631583  0.49057514  1
  O  O254  1  0.25532489  0.62874581  0.98338943  1
  O  O255  1  0.73712193  0.11677206  0.50275887  1
  O  O256  1  0.75190061  0.13693098  1.00651521  1
  O  O257  1  0.75517494  0.62292090  0.48446454  1
  O  O258  1  0.74106838  0.63675973  0.99856587  1
  O  O259  1  0.25749716  0.37163617  0.00509228  1
  O  O260  1  0.26498706  0.36557091  0.49428203  1
  O  O261  1  0.25770535  0.86581615  -0.01305165  1
  O  O262  1  0.26644521  0.88701543  0.49349661  1
  O  O263  1  0.75909465  0.36975069  0.00606547  1
  O  O264  1  0.70980834  0.34711396  0.46350107  1
  O  O265  1  0.75300799  0.86012240  -0.00373620  1
  O  O266  1  0.75685298  0.88022342  0.50785225  1
  O  O267  1  0.12430438  0.49109212  0.24447962  1
  O  O268  1  0.13411330  0.49151354  0.74302863  1
  O  O269  1  0.12010570  0.98759865  0.25017922  1
  O  O270  1  0.12660380  0.99206335  0.74886174  1
  O  O271  1  0.62334574  0.49291647  0.23895484  1
  O  O272  1  0.62324817  0.49400093  0.73376966  1
  O  O273  1  0.62631671  0.98350268  0.25247693  1
  O  O274  1  0.63377655  0.99531655  0.75168130  1
  O  O275  1  0.36503428  -0.01608132  0.23164367  1
  O  O276  1  0.36409255  0.00364730  0.75350304  1
  O  O277  1  0.36979424  0.51069623  0.25198424  1
  O  O278  1  0.37070098  0.50369317  0.74965726  1
  O  O279  1  0.87202549  0.00581059  0.25480909  1
  O  O280  1  0.86926231  0.00447596  0.75621176  1
  O  O281  1  0.88151429  0.51630002  0.25185121  1
  O  O282  1  0.88323029  0.51349096  0.76177112  1
  O  O283  1  0.13243565  0.36229412  0.36726939  1
  O  O284  1  0.12420929  0.36821203  0.86747588  1
  O  O285  1  0.12239452  0.86931700  0.36799875  1
  O  O286  1  0.10685366  0.88128977  0.86505315  1
  O  O287  1  0.61201944  0.38205993  0.35977748  1
  O  O288  1  0.61134656  0.36484231  0.88454895  1
  O  O289  1  0.60998050  0.87505096  0.37072782  1
  O  O290  1  0.61684681  0.86184285  0.87290903  1
  O  O291  1  0.38133274  0.13955053  0.11879424  1
  O  O292  1  0.37979757  0.13084051  0.62805915  1
  O  O293  1  0.37881078  0.62972000  0.12974481  1
  O  O294  1  0.38064528  0.62934129  0.63827531  1
  O  O295  1  0.88593188  0.13555490  0.13160907  1
  O  O296  1  0.88128623  0.12389270  0.63453988  1
  O  O297  1  0.88025328  0.63462473  0.13274738  1
  O  O298  1  0.88332892  0.62462178  0.63256794  1
  O  O299  1  0.25568593  0.25593643  0.12345792  1
  O  O300  1  0.25760882  0.24479722  0.61075751  1
  O  O301  1  0.25972499  0.74043375  0.11019798  1
  O  O302  1  0.26132613  0.75835636  0.67324415  1
  O  O303  1  0.75875856  0.25871651  0.11901017  1
  O  O304  1  0.71227244  0.28636377  0.66577015  1
  O  O305  1  0.76068262  0.74517626  0.11826812  1
  O  O306  1  0.75314961  0.76382593  0.63127639  1
  O  O307  1  0.24480546  0.24314653  0.38495920  1
  O  O308  1  0.24212629  0.23838350  0.87405547  1
  O  O309  1  0.24378028  0.73797764  0.37323824  1
  O  O310  1  0.25274829  0.73086347  0.87639032  1
  O  O311  1  0.71936263  0.23912342  0.34636197  1
  O  O312  1  0.73792601  0.25483920  0.88637166  1
  O  O313  1  0.75534142  0.73459150  0.37115736  1
  O  O314  1  0.74108168  0.74856482  0.88017293  1
  O  O315  1  0.00719012  0.13550203  0.00942024  1
  O  O316  1  0.00614704  0.12497243  0.50757007  1
  O  O317  1  -0.00110678  0.61387548  -0.00157499  1
  O  O318  1  -0.00306624  0.61605307  0.51366845  1
  O  O319  1  0.49373215  0.11566247  0.00672912  1
  O  O320  1  0.50299640  0.11494100  0.50515830  1
  O  O321  1  0.50773295  0.62400892  0.00670295  1
  O  O322  1  0.49525170  0.62307132  0.51062467  1
  O  O323  1  0.48749752  0.37534253  0.48064503  1
  O  O324  1  0.49187629  0.37581448  0.99478086  1
  O  O325  1  0.49572173  0.88608303  0.48919714  1
  O  O326  1  0.48538954  0.88070072  0.99513628  1
  O  O327  1  1.00896561  0.38829946  0.50774194  1
  O  O328  1  0.99369477  0.38084590  0.99368586  1
  O  O329  1  0.99140410  0.87764210  0.49392078  1
  O  O330  1  0.99839794  0.86897683  0.98671131  1
  O  O331  1  0.49564951  0.49387732  0.37510680  1
  O  O332  1  0.50008925  0.48912739  0.87645106  1
  O  O333  1  0.49778411  0.99745480  0.38428612  1
  O  O334  1  0.49004578  0.99368413  0.87759628  1
  O  O335  1  0.99724671  0.50950633  0.38820553  1
  O  O336  1  0.99539418  0.49489602  0.88088328  1
  O  O337  1  0.98744529  0.99221562  0.37451566  1
  O  O338  1  0.98755567  0.98544839  0.86671678  1
  O  O339  1  0.00058447  0.01593203  0.12857930  1
  O  O340  1  -0.00349034  0.01365282  0.62418287  1
  O  O341  1  0.00806893  0.50243781  0.11491189  1
  O  O342  1  0.00743916  0.50573050  0.62106165  1
  O  O343  1  0.49854201  0.01374991  0.11140420  1
  O  O344  1  0.49899549  0.01091998  0.62001861  1
  O  O345  1  0.50538836  0.51311839  0.12201004  1
  O  O346  1  0.50233809  0.51437993  0.62552365  1
  O  O347  1  0.23813844  0.37520296  0.24409817  1
  O  O348  1  0.24873718  0.38717218  0.75823869  1
  O  O349  1  0.24456463  0.87387893  0.24707063  1
  O  O350  1  0.22705013  0.88933926  0.76248442  1
  O  O351  1  0.73757543  0.37904329  0.24168631  1
  O  O352  1  0.72384109  0.38999301  0.78085155  1
  O  O353  1  0.73597384  0.87704692  0.24886915  1
  O  O354  1  0.74964041  0.88293715  0.74386304  1
  O  O355  1  0.25118580  0.13494800  0.26388164  1
  O  O356  1  0.25136913  0.11903548  0.75421748  1
  O  O357  1  0.26099211  0.62400100  0.25572493  1
  O  O358  1  0.25768934  0.61289382  0.76154474  1
  O  O359  1  0.76300917  0.12154593  0.24497572  1
  O  O360  1  0.75626214  0.10697132  0.74390796  1
  O  O361  1  0.76132469  0.62402649  0.25618569  1
  O  O362  1  0.76407381  0.63160934  0.75178707  1
  O  O363  1  0.36648372  0.13355556  0.37761907  1
  O  O364  1  0.36403193  0.12164457  0.86894241  1
  O  O365  1  0.36528053  0.62812552  0.36941467  1
  O  O366  1  0.37546827  0.61858541  0.86460411  1
  O  O367  1  0.86948362  0.11166510  0.36537154  1
  O  O368  1  0.88602452  0.10505747  0.86964383  1
  O  O369  1  0.87023339  0.61982691  0.36819550  1
  O  O370  1  0.87603719  0.61922844  0.86762432  1
  O  O371  1  0.13022922  0.38075008  0.13142687  1
  O  O372  1  0.12903940  0.38129304  0.63880431  1
  O  O373  1  0.11890795  0.87896621  0.13619481  1
  O  O374  1  0.11633111  0.87776350  0.63835382  1
  O  O375  1  0.62753364  0.38586630  0.12576712  1
  O  O376  1  0.61662795  0.39597124  0.62469192  1
  O  O377  1  0.60747643  0.87022935  0.14175662  1
  O  O378  1  0.63005942  0.87586656  0.62656348  1
  O  O379  1  0.11811586  0.25468788  0.25586468  1
  O  O380  1  0.13439970  0.25805225  0.75861389  1
  O  O381  1  0.12030741  0.75807524  0.25566652  1
  O  O382  1  0.11060351  0.76331108  0.74930954  1
  O  O383  1  0.61162641  0.26895752  0.23608881  1
  O  O384  1  0.61431713  0.24981896  0.76772501  1
  O  O385  1  0.62718882  0.76503727  0.25933489  1
  O  O386  1  0.61403042  0.74864402  0.75848499  1
  O  O387  1  0.38586697  0.25737078  0.24106190  1
  O  O388  1  0.37813008  0.24367517  0.74526093  1
  O  O389  1  0.36724291  0.74389629  0.23665102  1
  O  O390  1  0.39186480  0.73954742  0.76103842  1
  O  O391  1  0.88260980  0.24289654  0.24970736  1
  O  O392  1  0.87046157  0.22337140  0.77573330  1
  O  O393  1  0.88387614  0.74320953  0.24581108  1
  O  O394  1  0.88590472  0.74340464  0.74844575  1
  O  O395  1  0.37822844  0.48980733  0.49927666  1
  O  O396  1  0.37657446  0.48583274  0.99986109  1
  O  O397  1  0.38917565  0.99302587  0.50295977  1
  O  O398  1  0.37947260  0.99281261  0.99078435  1
  O  O399  1  0.88692237  0.49722904  0.49043223  1
  O  O400  1  0.88458533  0.49644303  0.99489968  1
  O  O401  1  0.87701615  0.99030102  0.49100792  1
  O  O402  1  0.87960983  0.99641268  0.98542055  1
  O  O403  1  0.12488811  0.01339612  -0.00360236  1
  O  O404  1  0.12108246  0.01400103  0.49109685  1
  O  O405  1  0.11575817  0.49221308  0.00924998  1
  O  O406  1  0.12382231  0.49476259  0.51375363  1
  O  O407  1  0.60915344  -0.00502912  -0.01263431  1
  O  O408  1  0.61029799  0.00466959  0.50247901  1
  O  O409  1  0.62593134  0.50859150  0.00651178  1
  O  O410  1  0.62156173  0.51136279  0.51240663  1
  O  O411  1  0.36982965  0.36804518  0.11933063  1
  O  O412  1  0.38673725  0.36418091  0.61540256  1
  O  O413  1  0.36799054  0.87106694  0.11963736  1
  O  O414  1  0.38072974  0.87266729  0.60739180  1
  O  O415  1  0.87327593  0.37163390  0.12013593  1
  O  O416  1  0.88519128  0.34419893  0.69942919  1
  O  O417  1  0.88485332  0.86082010  0.12489402  1
  O  O418  1  0.86787977  0.87382933  0.61479957  1
  O  O419  1  0.12709531  0.13758552  0.38091612  1
  O  O420  1  0.12489342  0.13087911  0.87625032  1
  O  O421  1  0.14035570  0.63450602  0.37360667  1
  O  O422  1  0.13613710  0.61841577  0.86972799  1
  O  O423  1  0.62461781  0.12337309  0.38754925  1
  O  O424  1  0.61849823  0.13544166  0.87868011  1
  O  O425  1  0.64227793  0.62240012  0.37011557  1
  O  O426  1  0.62448454  0.63394131  0.88018055  1
