# generated using pymatgen
data_V85Zn86O256
_symmetry_space_group_name_H-M   'P 1'
_cell_length_a   16.96926975
_cell_length_b   16.95362084
_cell_length_c   16.95461667
_cell_angle_alpha   90.08608548
_cell_angle_beta   89.96315422
_cell_angle_gamma   89.95544240
_symmetry_Int_Tables_number   1
_chemical_formula_structural   V85Zn86O256
_chemical_formula_sum   'V85 Zn86 O256'
_cell_volume   4877.67526034
_cell_formula_units_Z   1
loop_
 _symmetry_equiv_pos_site_id
 _symmetry_equiv_pos_as_xyz
  1  'x, y, z'
loop_
 _atom_site_type_symbol
 _atom_site_label
 _atom_site_symmetry_multiplicity
 _atom_site_fract_x
 _atom_site_fract_y
 _atom_site_fract_z
 _atom_site_occupancy
  V  V0  1  0.62738914  0.87909628  0.75085786  1
  V  V1  1  0.14249161  0.62838809  -0.00751545  1
  V  V2  1  0.75075591  0.24594253  -0.00486695  1
  V  V3  1  0.87279839  0.25170910  0.62640135  1
  V  V4  1  0.87170446  0.11471414  0.25480985  1
  V  V5  1  0.25784858  0.24865057  0.50460664  1
  V  V6  1  0.00067207  0.62416532  0.11252581  1
  V  V7  1  0.86385238  0.12968893  0.75287402  1
  V  V8  1  0.75059048  0.11812525  0.37374169  1
  V  V9  1  0.12129755  -0.00522544  0.63138341  1
  V  V10  1  0.37092649  0.12565320  0.74459322  1
  V  V11  1  0.38771618  0.74154539  0.14020089  1
  V  V12  1  0.37416569  0.38319487  0.50101322  1
  V  V13  1  0.87192740  0.38521582  0.00378677  1
  V  V14  1  -0.00146905  0.38962867  0.88348896  1
  V  V15  1  -0.00289736  0.12052250  0.62186839  1
  V  V16  1  0.12396943  0.11782749  0.50079243  1
  V  V17  1  0.49627554  0.25914942  0.24458723  1
  V  V18  1  0.37373865  0.62514293  0.75732026  1
  V  V19  1  0.12238079  0.12505711  -0.00163755  1
  V  V20  1  0.88089730  0.88620419  0.49884153  1
  V  V21  1  0.75158798  0.61923935  0.37442153  1
  V  V22  1  0.87687587  0.49848678  0.37179410  1
  V  V23  1  0.63307200  0.74278828  0.87890535  1
  V  V24  1  0.25502824  0.50193079  0.25233632  1
  V  V25  1  0.87176549  0.62177434  0.76716604  1
  V  V26  1  0.86737009  0.87479517  0.00465823  1
  V  V27  1  0.49722932  0.37702406  0.87504616  1
  V  V28  1  0.86527994  0.00370038  0.87386248  1
  V  V29  1  0.74723313  0.25095027  0.50001636  1
  V  V30  1  0.62061958  0.38468709  0.74355054  1
  V  V31  1  0.25236314  0.37709110  0.62714682  1
  V  V32  1  0.64139380  -0.00836004  0.12658313  1
  V  V33  1  -0.00070562  -0.00172035  -0.00180794  1
  V  V34  1  0.86496169  0.25108954  0.12671252  1
  V  V35  1  0.49355473  0.12943837  0.62073502  1
  V  V36  1  0.37264302  0.86118752  -0.00183613  1
  V  V37  1  0.37614027  0.12595251  0.24956608  1
  V  V38  1  0.75241182  0.75054082  0.49983301  1
  V  V39  1  0.24676263  0.25085589  -0.00181994  1
  V  V40  1  0.37947383  -0.00869539  0.36931357  1
  V  V41  1  0.64383495  0.50262111  0.12962054  1
  V  V42  1  0.24597640  0.50479715  0.75467750  1
  V  V43  1  0.37317041  0.25097824  0.12204638  1
  V  V44  1  0.37290914  0.37639205  -0.00040056  1
  V  V45  1  0.00223333  0.37573216  0.37641992  1
  V  V46  1  0.49898745  -0.00932812  0.49735046  1
  V  V47  1  0.25113900  0.74778863  0.50198445  1
  V  V48  1  0.50971066  0.62037898  0.62912115  1
  V  V49  1  0.00220866  0.88726173  0.37958803  1
  V  V50  1  0.49998252  0.50464452  0.01197950  1
  V  V51  1  -0.00439217  0.25242402  0.75061571  1
  V  V52  1  0.87485836  0.37525857  0.50112654  1
  V  V53  1  0.12705959  0.61987925  0.50979578  1
  V  V54  1  0.49418298  0.38306059  0.37115776  1
  V  V55  1  0.62339766  0.25130636  0.37292285  1
  V  V56  1  0.87782759  0.74662303  0.62677471  1
  V  V57  1  0.11956134  0.38180146  0.74163981  1
  V  V58  1  0.00530282  0.74717835  0.24873874  1
  V  V59  1  0.24508144  0.86638756  0.11994624  1
  V  V60  1  0.62779792  0.24618282  0.87280894  1
  V  V61  1  0.64088888  0.37757537  0.24456751  1
  V  V62  1  0.62290810  0.75958312  0.36528720  1
  V  V63  1  0.24763612  0.37573648  0.12345744  1
  V  V64  1  0.62178724  0.12127035  0.49692031  1
  V  V65  1  0.00435958  0.49890170  0.50969893  1
  V  V66  1  0.74223837  0.38838463  0.62293305  1
  V  V67  1  0.37976165  0.75034232  0.62499673  1
  V  V68  1  0.12704763  0.24854521  0.37638686  1
  V  V69  1  0.12300742  0.74634625  0.37867900  1
  V  V70  1  0.50164331  0.11836677  0.11580012  1
  V  V71  1  0.49374697  0.25070740  0.74711638  1
  V  V72  1  0.24974053  0.87537875  0.62942482  1
  V  V73  1  0.37765037  0.00052835  0.88313638  1
  V  V74  1  0.87688800  0.61814785  0.24728467  1
  V  V75  1  0.12119094  0.50202990  0.11808413  1
  V  V76  1  0.00140384  0.87502128  0.86497615  1
  V  V77  1  0.13757577  0.75477807  0.87274660  1
  V  V78  1  0.51192389  0.49539882  0.50715274  1
  V  V79  1  -0.00148683  0.12549589  0.12574838  1
  V  V80  1  0.26132445  0.62057386  0.37352118  1
  V  V81  1  0.50454128  0.87899584  0.88246648  1
  V  V82  1  0.12108549  0.25129049  0.87275900  1
  V  V83  1  0.12347170  0.37528702  0.24933822  1
  V  V84  1  0.24750022  0.12325774  0.87297080  1
  Zn  Zn85  1  0.74267477  0.51501806  0.76347931  1
  Zn  Zn86  1  0.62464839  0.00192921  0.62685129  1
  Zn  Zn87  1  0.24653390  -0.00481167  0.75255598  1
  Zn  Zn88  1  0.37123217  0.50837919  0.88068489  1
  Zn  Zn89  1  0.50280892  0.75158452  0.75139625  1
  Zn  Zn90  1  0.63089683  0.62202503  0.50629624  1
  Zn  Zn91  1  0.46389376  0.80683035  0.30519954  1
  Zn  Zn92  1  0.37887591  0.86979458  0.49328609  1
  Zn  Zn93  1  0.74838985  0.87948843  0.62195185  1
  Zn  Zn94  1  0.12739619  -0.00065610  0.12565354  1
  Zn  Zn95  1  0.62632482  0.62693126  0.00719589  1
  Zn  Zn96  1  -0.00148099  0.24960809  0.25102550  1
  Zn  Zn97  1  0.62426207  0.12306309  -0.00559291  1
  Zn  Zn98  1  0.25170582  0.12107630  0.37449186  1
  Zn  Zn99  1  0.12357394  0.87967168  0.25025825  1
  Zn  Zn100  1  0.24834702  -0.00012351  0.24702634  1
  Zn  Zn101  1  0.00310407  0.62309110  0.63189759  1
  Zn  Zn102  1  0.75124079  0.74507779  0.00629010  1
  Zn  Zn103  1  0.75055546  0.87139961  0.16235833  1
  Zn  Zn104  1  0.87321724  0.75118633  0.12555544  1
  Zn  Zn105  1  0.00339404  0.75011549  0.75069710  1
  Zn  Zn106  1  0.74553936  0.00587115  0.74880062  1
  Zn  Zn107  1  0.18701194  0.18612064  0.18788071  1
  Zn  Zn108  1  0.18565442  0.18968012  0.68611320  1
  Zn  Zn109  1  0.19173746  0.68664438  0.18655628  1
  Zn  Zn110  1  0.18908214  0.68951805  0.69089413  1
  Zn  Zn111  1  0.68502837  0.18438953  0.18937889  1
  Zn  Zn112  1  0.68182034  0.19435360  0.68442030  1
  Zn  Zn113  1  0.69353228  0.68476345  0.18639371  1
  Zn  Zn114  1  0.69126118  0.69445144  0.69137968  1
  Zn  Zn115  1  0.31106891  0.31638209  0.31342327  1
  Zn  Zn116  1  0.31069480  0.31263907  0.81151116  1
  Zn  Zn117  1  0.29936652  0.81291326  0.30932943  1
  Zn  Zn118  1  0.31593478  0.81358302  0.80926623  1
  Zn  Zn119  1  0.81601667  0.30647318  0.31430424  1
  Zn  Zn120  1  0.79358244  0.35376834  0.83117335  1
  Zn  Zn121  1  0.82540710  0.79985793  0.31610340  1
  Zn  Zn122  1  0.81263358  0.81449352  0.81262387  1
  Zn  Zn123  1  0.18842216  0.43882075  0.43796062  1
  Zn  Zn124  1  0.18327838  0.44166423  0.93456520  1
  Zn  Zn125  1  0.19229594  0.93562678  0.43952669  1
  Zn  Zn126  1  0.18847843  0.93539894  0.93889486  1
  Zn  Zn127  1  0.68675607  0.43729615  0.43182429  1
  Zn  Zn128  1  0.68608880  0.43925821  0.94246553  1
  Zn  Zn129  1  0.72825715  0.91017326  0.37908572  1
  Zn  Zn130  1  0.68423757  0.94257211  0.94291249  1
  Zn  Zn131  1  0.31043895  0.05887215  0.06130844  1
  Zn  Zn132  1  0.31204584  0.05841833  0.56000427  1
  Zn  Zn133  1  0.31385267  0.56349672  0.06750072  1
  Zn  Zn134  1  0.31500427  0.56111769  0.56896835  1
  Zn  Zn135  1  0.81128802  0.06487620  0.06170882  1
  Zn  Zn136  1  0.80784319  0.06159471  0.56333796  1
  Zn  Zn137  1  0.80995554  0.56763430  0.05675085  1
  Zn  Zn138  1  0.81646968  0.56398440  0.56335666  1
  Zn  Zn139  1  0.46168668  0.48778005  0.21865228  1
  Zn  Zn140  1  0.43090666  0.43900771  0.68564645  1
  Zn  Zn141  1  0.43202334  0.93908559  0.17749224  1
  Zn  Zn142  1  0.43929713  0.94017498  0.68974522  1
  Zn  Zn143  1  0.93964042  0.43672779  0.18461452  1
  Zn  Zn144  1  0.93110254  0.44027147  0.69139220  1
  Zn  Zn145  1  0.93858739  0.93610627  0.18941585  1
  Zn  Zn146  1  0.93309613  0.93983662  0.68492663  1
  Zn  Zn147  1  0.06344952  0.06359373  0.30928010  1
  Zn  Zn148  1  0.05664871  0.06313537  0.80908400  1
  Zn  Zn149  1  0.06644405  0.56225617  0.31372069  1
  Zn  Zn150  1  0.06148920  0.56767848  0.81329582  1
  Zn  Zn151  1  0.56777944  -0.04261191  0.30506175  1
  Zn  Zn152  1  0.55809206  0.06315133  0.81193847  1
  Zn  Zn153  1  0.56719992  0.57724382  0.31532366  1
  Zn  Zn154  1  0.55695658  0.56211629  0.81656118  1
  Zn  Zn155  1  0.43695163  0.18904144  0.43173695  1
  Zn  Zn156  1  0.43536456  0.18947391  0.93398003  1
  Zn  Zn157  1  0.44162065  0.67904484  0.44257404  1
  Zn  Zn158  1  0.44646860  0.68914354  0.93850535  1
  Zn  Zn159  1  0.93854431  0.18591816  0.43802151  1
  Zn  Zn160  1  0.93479780  0.19055450  0.93612387  1
  Zn  Zn161  1  0.94014386  0.68658148  0.44087622  1
  Zn  Zn162  1  0.93990572  0.69371472  0.93742015  1
  Zn  Zn163  1  0.05811055  0.31081551  0.06265988  1
  Zn  Zn164  1  0.06429829  0.30878801  0.56265669  1
  Zn  Zn165  1  0.06137389  0.80948996  0.05572002  1
  Zn  Zn166  1  0.06174350  0.81190124  0.56423863  1
  Zn  Zn167  1  0.56392449  0.31579222  0.06257453  1
  Zn  Zn168  1  0.55935578  0.30950652  0.56372146  1
  Zn  Zn169  1  0.56097258  0.81852465  0.06527801  1
  Zn  Zn170  1  0.56789256  0.80979912  0.56317138  1
  O  O171  1  0.11508799  0.12561872  0.11737566  1
  O  O172  1  0.11701822  0.12029079  0.61907881  1
  O  O173  1  0.12276432  0.62125461  0.11382571  1
  O  O174  1  0.12411398  0.62993115  0.61357597  1
  O  O175  1  0.60954832  0.13181914  0.12044321  1
  O  O176  1  0.61421352  0.12792297  0.61477351  1
  O  O177  1  0.62795065  0.60613370  0.13108379  1
  O  O178  1  0.61339505  0.63335220  0.62720419  1
  O  O179  1  0.38288028  0.37019358  0.38616188  1
  O  O180  1  0.38349759  0.37481472  0.88021413  1
  O  O181  1  0.37712735  0.87701264  0.37246859  1
  O  O182  1  0.38085108  0.88020320  0.87938695  1
  O  O183  1  0.88055662  0.38008774  0.38089432  1
  O  O184  1  0.89203604  0.36589727  0.89151169  1
  O  O185  1  0.89074016  0.86655834  0.39039709  1
  O  O186  1  0.88327427  0.88488467  0.88018924  1
  O  O187  1  0.26475673  -0.00008976  0.37376770  1
  O  O188  1  0.25397177  0.00569845  0.87209037  1
  O  O189  1  0.24268515  0.50892588  0.36578721  1
  O  O190  1  0.25453656  0.49239922  0.85983023  1
  O  O191  1  0.74901651  0.02037520  0.38698560  1
  O  O192  1  0.76281868  0.00099879  0.87446477  1
  O  O193  1  0.76132022  0.51007565  0.38115219  1
  O  O194  1  0.75529117  0.45979015  0.86111554  1
  O  O195  1  0.23782161  0.49653880  0.12932991  1
  O  O196  1  0.25308972  0.48593500  0.63572862  1
  O  O197  1  0.24885024  0.98538932  0.12387544  1
  O  O198  1  0.24228579  0.99169157  0.62531429  1
  O  O199  1  0.74161671  0.49560769  0.12446404  1
  O  O200  1  0.75243353  0.48982519  0.62636072  1
  O  O201  1  0.74463159  0.99708326  0.12617376  1
  O  O202  1  0.74361957  0.99680486  0.62871429  1
  O  O203  1  0.00732673  0.37235121  0.25719716  1
  O  O204  1  0.00266821  0.37390664  0.75844218  1
  O  O205  1  0.00227567  0.86482869  0.25921558  1
  O  O206  1  -0.00400821  0.87764287  0.76223674  1
  O  O207  1  0.50217152  0.37791769  0.25864574  1
  O  O208  1  0.50011825  0.37154439  0.75385447  1
  O  O209  1  0.50437168  0.88769756  0.24367148  1
  O  O210  1  0.51061816  0.87653256  0.75920549  1
  O  O211  1  0.48381901  0.14007921  0.23234434  1
  O  O212  1  0.49068763  0.12919864  0.74031308  1
  O  O213  1  0.48315056  0.59092414  0.25396709  1
  O  O214  1  0.49262973  0.62565357  0.74374823  1
  O  O215  1  0.99060366  0.12817661  0.24329173  1
  O  O216  1  0.99235427  0.13217830  0.73781415  1
  O  O217  1  0.99697373  0.62846174  0.24353307  1
  O  O218  1  0.98749503  0.62737390  0.74920345  1
  O  O219  1  0.36495932  0.25576811  0.00115978  1
  O  O220  1  0.36115223  0.25627326  0.49436003  1
  O  O221  1  0.37751552  0.75901146  0.00054035  1
  O  O222  1  0.37243169  0.74777537  0.51137372  1
  O  O223  1  0.86973238  0.25339254  0.00743028  1
  O  O224  1  0.86708118  0.25633772  0.50421927  1
  O  O225  1  0.87587361  0.76174282  0.00391989  1
  O  O226  1  0.86934438  0.75233923  0.50708339  1
  O  O227  1  0.13353668  0.24190175  0.49443913  1
  O  O228  1  0.12731529  0.24487576  0.99314450  1
  O  O229  1  0.12974339  0.74174186  0.49506895  1
  O  O230  1  0.12406520  0.73710277  0.98956766  1
  O  O231  1  0.62984576  0.24491653  0.49486736  1
  O  O232  1  0.63366217  0.25489133  0.99095556  1
  O  O233  1  0.64092427  0.75028808  0.49324865  1
  O  O234  1  0.62217975  0.75275740  0.98842646  1
  O  O235  1  0.49012810  0.25180532  0.12772397  1
  O  O236  1  0.49771478  0.23767278  0.63039737  1
  O  O237  1  0.48582994  0.75403745  0.12319817  1
  O  O238  1  0.49400769  0.74284136  0.62629668  1
  O  O239  1  0.99149642  0.23635121  0.12328301  1
  O  O240  1  0.99344314  0.24540310  0.63097023  1
  O  O241  1  1.00160841  0.74163092  0.13322035  1
  O  O242  1  0.99278598  0.74874320  0.63019348  1
  O  O243  1  0.01250838  0.25601019  0.37790163  1
  O  O244  1  0.00617710  0.25509765  0.86789503  1
  O  O245  1  0.00944173  0.75063187  0.36973774  1
  O  O246  1  0.00828216  0.76173376  0.87399743  1
  O  O247  1  0.50441439  0.26049475  0.36653980  1
  O  O248  1  0.50241577  0.25810807  0.86717435  1
  O  O249  1  0.51745274  0.74255539  0.38323183  1
  O  O250  1  0.50995550  0.76221320  0.87226682  1
  O  O251  1  0.24335986  0.13358693  0.50018481  1
  O  O252  1  0.24206681  0.12951180  0.99290017  1
  O  O253  1  0.24414141  0.62644450  0.49769589  1
  O  O254  1  0.24064276  0.62354818  0.99853942  1
  O  O255  1  0.74214442  0.13442831  0.49772551  1
  O  O256  1  0.74948442  0.14098038  1.00005798  1
  O  O257  1  0.75270146  0.63168167  0.49363737  1
  O  O258  1  0.74006610  0.63049350  1.00145574  1
  O  O259  1  0.25152314  0.37197322  0.00210902  1
  O  O260  1  0.25527568  0.37198100  0.50674984  1
  O  O261  1  0.25717770  0.87506673  0.01056993  1
  O  O262  1  0.25545345  0.86526001  0.50985503  1
  O  O263  1  0.76718223  0.36421382  0.00169779  1
  O  O264  1  0.75243007  0.36993319  0.50381272  1
  O  O265  1  0.76508808  0.87717848  -0.00528638  1
  O  O266  1  0.76682993  0.86601510  0.48895208  1
  O  O267  1  0.13069181  0.49288314  0.24259438  1
  O  O268  1  0.13109795  0.49353637  0.75440263  1
  O  O269  1  0.12865081  0.99842782  0.24414119  1
  O  O270  1  0.12719773  1.00679050  0.73539035  1
  O  O271  1  0.62796271  0.48656849  0.24058195  1
  O  O272  1  0.62258628  0.48825573  0.75371799  1
  O  O273  1  0.62363296  1.01691091  0.22458148  1
  O  O274  1  0.62593025  0.99517077  0.75014539  1
  O  O275  1  0.37389470  0.00969706  0.25420534  1
  O  O276  1  0.37166076  0.01097933  0.75880413  1
  O  O277  1  0.35073676  0.47863309  0.24300938  1
  O  O278  1  0.36672269  0.50874326  0.75279237  1
  O  O279  1  0.88013299  0.01663220  0.24997822  1
  O  O280  1  0.87298515  0.01093983  0.75657418  1
  O  O281  1  0.88454471  0.50302779  0.26327656  1
  O  O282  1  0.87102892  0.51846934  0.74777563  1
  O  O283  1  0.12222599  0.36750970  0.37066428  1
  O  O284  1  0.11305260  0.37117349  0.86839687  1
  O  O285  1  0.12076465  0.86214388  0.37887267  1
  O  O286  1  0.11688807  0.86311710  0.88331710  1
  O  O287  1  0.61854816  0.37129330  0.36363579  1
  O  O288  1  0.60912331  0.36615326  0.86765362  1
  O  O289  1  0.62123255  0.86420641  0.37294764  1
  O  O290  1  0.61842460  0.87476466  0.87245918  1
  O  O291  1  0.37908237  0.13207578  0.12488825  1
  O  O292  1  0.37908524  0.12019940  0.63330094  1
  O  O293  1  0.36948576  0.64471934  0.12336342  1
  O  O294  1  0.38460702  0.63204935  0.63316144  1
  O  O295  1  0.87884363  0.13070550  0.13497926  1
  O  O296  1  0.88080700  0.13072131  0.62816433  1
  O  O297  1  0.88504527  0.62124314  0.13266102  1
  O  O298  1  0.87888139  0.63811536  0.62552174  1
  O  O299  1  0.25152591  0.25467604  0.11682203  1
  O  O300  1  0.24123599  0.26346290  0.61563191  1
  O  O301  1  0.25912660  0.76225805  0.12977276  1
  O  O302  1  0.25749022  0.75495394  0.62093646  1
  O  O303  1  0.76086132  0.24661904  0.11991265  1
  O  O304  1  0.75209479  0.25628501  0.61203632  1
  O  O305  1  0.75451680  0.75836737  0.12677367  1
  O  O306  1  0.75759051  0.75679854  0.61608588  1
  O  O307  1  0.23906347  0.24969855  0.38310758  1
  O  O308  1  0.24019826  0.24541349  0.87852671  1
  O  O309  1  0.24125792  0.74237656  0.38151819  1
  O  O310  1  0.23664646  0.75933106  0.87283547  1
  O  O311  1  0.74605307  0.24695748  0.38695942  1
  O  O312  1  0.73858241  0.26027805  0.88114303  1
  O  O313  1  0.74557177  0.73771429  0.38167430  1
  O  O314  1  0.73462106  0.75877149  0.87881132  1
  O  O315  1  0.00140793  0.11844937  0.00562029  1
  O  O316  1  0.00827985  0.13206281  0.51267360  1
  O  O317  1  0.00486260  0.62915568  0.01086983  1
  O  O318  1  0.00929855  0.61534164  0.50178130  1
  O  O319  1  0.49871456  0.13575349  0.01282708  1
  O  O320  1  0.50282537  0.12405917  0.50401941  1
  O  O321  1  0.50751985  0.60890800  -0.00354078  1
  O  O322  1  0.50472899  0.61156744  0.51037692  1
  O  O323  1  0.49212497  0.37768829  0.49782353  1
  O  O324  1  0.49283513  0.37967900  0.99161139  1
  O  O325  1  0.50089368  0.88844341  0.50726813  1
  O  O326  1  0.49017680  0.87622772  0.98951282  1
  O  O327  1  0.99712652  0.38001502  0.49608307  1
  O  O328  1  0.99534678  0.37307729  0.98941042  1
  O  O329  1  0.99005987  0.87061695  0.49425742  1
  O  O330  1  0.99159783  0.88420900  0.99432777  1
  O  O331  1  0.50427935  0.48576702  0.39003674  1
  O  O332  1  0.49703343  0.49092921  0.88662390  1
  O  O333  1  0.48916703  1.00184024  0.38305143  1
  O  O334  1  0.48929929  0.99283208  0.87209692  1
  O  O335  1  0.99582096  0.49445745  0.38415159  1
  O  O336  1  1.00218853  0.48749300  0.87502076  1
  O  O337  1  1.00817506  0.98628097  0.37469954  1
  O  O338  1  0.99469940  0.99487656  0.88152995  1
  O  O339  1  -0.00090060  0.01056159  0.11678523  1
  O  O340  1  0.00675280  0.00927432  0.62712256  1
  O  O341  1  0.01453653  0.50878794  0.13055658  1
  O  O342  1  -0.00619613  0.49940556  0.61269201  1
  O  O343  1  0.49829694  0.01795430  0.11963142  1
  O  O344  1  0.49979080  0.01266397  0.61616330  1
  O  O345  1  0.50675056  0.48657808  0.11167756  1
  O  O346  1  0.49617810  0.50801902  0.61948397  1
  O  O347  1  0.23754464  0.37615986  0.24359234  1
  O  O348  1  0.24054523  0.37789899  0.74377736  1
  O  O349  1  0.24347650  0.87781495  0.23500958  1
  O  O350  1  0.25368112  0.87576763  0.73420996  1
  O  O351  1  0.73856893  0.36984708  0.25656915  1
  O  O352  1  0.73361841  0.36489081  0.73277341  1
  O  O353  1  0.76230768  0.87981599  0.27433982  1
  O  O354  1  0.73746363  0.87893647  0.75122507  1
  O  O355  1  0.26293599  0.12494636  0.24907593  1
  O  O356  1  0.25480038  0.12583051  0.75509850  1
  O  O357  1  0.24379502  0.61476025  0.26042276  1
  O  O358  1  0.25928975  0.61488921  0.74253386  1
  O  O359  1  0.76276999  0.13288564  0.25863378  1
  O  O360  1  0.76110339  0.13079250  0.74303399  1
  O  O361  1  0.76919195  0.62648333  0.25919119  1
  O  O362  1  0.76502306  0.62808873  0.74800102  1
  O  O363  1  0.37446285  0.11917292  0.36360083  1
  O  O364  1  0.36845121  0.11743676  0.87018012  1
  O  O365  1  0.35966893  0.62676704  0.38374465  1
  O  O366  1  0.38207140  0.62837058  0.86113693  1
  O  O367  1  0.86945700  0.13413411  0.36241505  1
  O  O368  1  0.88376426  0.11728710  0.86266571  1
  O  O369  1  0.87408679  0.61610474  0.37044237  1
  O  O370  1  0.87683210  0.62977633  0.86575192  1
  O  O371  1  0.12634125  0.38207551  0.12738520  1
  O  O372  1  0.12735181  0.37355863  0.63729419  1
  O  O373  1  0.13500814  0.87231833  0.12048049  1
  O  O374  1  0.13326053  0.88501686  0.61718194  1
  O  O375  1  0.62515315  0.37970888  0.13893307  1
  O  O376  1  0.62888026  0.37167190  0.63153654  1
  O  O377  1  0.63266480  0.88799515  0.12323584  1
  O  O378  1  0.62551650  0.87708593  0.63631820  1
  O  O379  1  0.12281932  0.25441875  0.25923738  1
  O  O380  1  0.11651755  0.25955903  0.75394184  1
  O  O381  1  0.11720003  0.74775452  0.25830507  1
  O  O382  1  0.12221337  0.74250416  0.76779868  1
  O  O383  1  0.61801187  0.26132923  0.25184443  1
  O  O384  1  0.61356758  0.25824579  0.75500142  1
  O  O385  1  0.62939778  0.74020821  0.26812594  1
  O  O386  1  0.62440549  0.76008930  0.76220026  1
  O  O387  1  0.37509484  0.24799561  0.24187383  1
  O  O388  1  0.37900565  0.23517061  0.75684169  1
  O  O389  1  0.37784117  0.75489360  0.24478669  1
  O  O390  1  0.37762534  0.74389886  0.73981534  1
  O  O391  1  0.87914944  0.24537031  0.24088937  1
  O  O392  1  0.88048365  0.24541167  0.74360391  1
  O  O393  1  0.89223508  0.73575123  0.24985395  1
  O  O394  1  0.87609482  0.74388009  0.74340236  1
  O  O395  1  0.38244996  0.48736697  0.50550576  1
  O  O396  1  0.38330691  0.49587258  1.00154698  1
  O  O397  1  0.38342385  0.99776742  0.48991189  1
  O  O398  1  0.36927771  0.99106572  0.98664236  1
  O  O399  1  0.88324597  0.49475598  0.49082536  1
  O  O400  1  0.87480426  0.48355608  1.00898888  1
  O  O401  1  0.87508158  0.98470579  0.50537793  1
  O  O402  1  0.88346973  0.99935401  0.99298463  1
  O  O403  1  0.11236598  0.00550540  -0.00032185  1
  O  O404  1  0.13251071  0.01381816  0.50727783  1
  O  O405  1  0.12726385  0.51471819  0.00523083  1
  O  O406  1  0.11669403  0.50750457  0.49689210  1
  O  O407  1  0.62863559  0.00948899  0.01712620  1
  O  O408  1  0.61356609  0.01642456  0.49877951  1
  O  O409  1  0.61839582  0.49273594  0.01545294  1
  O  O410  1  0.61545618  0.49638865  0.50239560  1
  O  O411  1  0.36264614  0.36533325  0.11289309  1
  O  O412  1  0.36470023  0.37118910  0.61655433  1
  O  O413  1  0.36531832  0.86691556  0.11532174  1
  O  O414  1  0.37130950  0.86689201  0.62377432  1
  O  O415  1  0.88797376  0.36372133  0.11237123  1
  O  O416  1  0.86538882  0.37048863  0.61999787  1
  O  O417  1  0.87399239  0.87551650  0.11801169  1
  O  O418  1  0.87494669  0.86589842  0.61424599  1
  O  O419  1  0.12648593  0.13156873  0.38264339  1
  O  O420  1  0.12638465  0.13045108  0.87804337  1
  O  O421  1  0.12983842  0.63335130  0.38578821  1
  O  O422  1  0.12270103  0.63471361  0.88670126  1
  O  O423  1  0.63461585  0.13784205  0.38323413  1
  O  O424  1  0.61543232  0.14163548  0.87514772  1
  O  O425  1  0.63880793  0.62694403  0.38340350  1
  O  O426  1  0.62014229  0.64121551  0.87235638  1
