# generated using pymatgen
data_V85Zn86O256
_symmetry_space_group_name_H-M   'P 1'
_cell_length_a   16.96048056
_cell_length_b   16.96565098
_cell_length_c   16.97100961
_cell_angle_alpha   90.00864016
_cell_angle_beta   90.03703625
_cell_angle_gamma   89.90139943
_symmetry_Int_Tables_number   1
_chemical_formula_structural   V85Zn86O256
_chemical_formula_sum   'V85 Zn86 O256'
_cell_volume   4883.32493134
_cell_formula_units_Z   1
loop_
 _symmetry_equiv_pos_site_id
 _symmetry_equiv_pos_as_xyz
  1  'x, y, z'
loop_
 _atom_site_type_symbol
 _atom_site_label
 _atom_site_symmetry_multiplicity
 _atom_site_fract_x
 _atom_site_fract_y
 _atom_site_fract_z
 _atom_site_occupancy
  V  V0  1  0.88492101  0.87815623  0.48912098  1
  V  V1  1  0.75345034  0.87696748  0.12825140  1
  V  V2  1  0.22965731  0.88559174  0.59564501  1
  V  V3  1  0.77416936  0.36837409  0.14801261  1
  V  V4  1  0.12263098  0.36576804  0.26128447  1
  V  V5  1  0.87169006  0.88363369  -0.00197889  1
  V  V6  1  -0.00523086  0.88154152  0.87721443  1
  V  V7  1  0.15058677  0.87111805  0.24530147  1
  V  V8  1  0.62584554  0.49783529  0.12851330  1
  V  V9  1  0.62642905  0.62229801  -0.00020089  1
  V  V10  1  0.75094349  0.87265105  0.61959747  1
  V  V11  1  0.87426302  0.74363638  0.12618276  1
  V  V12  1  0.12201544  0.49906263  0.12936838  1
  V  V13  1  0.01422525  0.11856048  0.61756427  1
  V  V14  1  0.87792238  0.49089333  0.87949631  1
  V  V15  1  0.24771736  -0.00215421  0.74516407  1
  V  V16  1  0.36636996  0.75264404  0.12542818  1
  V  V17  1  -0.00324118  0.77207091  0.25225626  1
  V  V18  1  0.75140984  0.62225432  0.87612142  1
  V  V19  1  0.75290733  0.01541380  0.25738382  1
  V  V20  1  0.75337547  0.12012097  0.86806650  1
  V  V21  1  0.35829925  0.62360223  0.74894108  1
  V  V22  1  0.62394434  0.74906932  0.87286376  1
  V  V23  1  -0.00959215  0.36378954  0.37790256  1
  V  V24  1  0.37282230  0.24740024  0.12465197  1
  V  V25  1  0.12256415  -0.00386035  0.11876458  1
  V  V26  1  0.62171725  0.25216675  0.37659356  1
  V  V27  1  0.75056953  0.74939011  -0.00023359  1
  V  V28  1  0.50236230  0.49865138  -0.00191324  1
  V  V29  1  0.62334860  0.12375682  -0.00471498  1
  V  V30  1  0.00168334  0.75050020  0.75289737  1
  V  V31  1  0.49968231  -0.00038339  -0.00046397  1
  V  V32  1  0.00039997  0.62534225  0.13520686  1
  V  V33  1  0.49287047  0.25077661  0.25744479  1
  V  V34  1  0.11968887  0.37802956  0.76520891  1
  V  V35  1  0.62659113  0.87742999  0.25134543  1
  V  V36  1  0.50470247  0.37594972  0.87538748  1
  V  V37  1  0.37493503  0.01358139  0.37117786  1
  V  V38  1  0.61173667  0.38321498  0.26133502  1
  V  V39  1  0.49860401  0.62658499  0.12334677  1
  V  V40  1  0.63522291  0.25101002  0.87258840  1
  V  V41  1  0.37446154  0.12393067  0.75353125  1
  V  V42  1  0.49744525  0.74960574  0.74738168  1
  V  V43  1  0.62373699  -0.00131759  0.62320419  1
  V  V44  1  0.87790440  0.24869004  0.62481816  1
  V  V45  1  0.37701981  0.37327574  0.49296972  1
  V  V46  1  0.49999010  0.12320214  0.62565294  1
  V  V47  1  0.87692949  0.62330858  0.75124528  1
  V  V48  1  0.87828217  0.75255187  0.62280507  1
  V  V49  1  0.37165016  0.25114025  0.62515427  1
  V  V50  1  0.74953793  0.51402048  0.26187037  1
  V  V51  1  -0.00224158  0.49609690  0.49829460  1
  V  V52  1  0.62545026  0.49952216  0.62518936  1
  V  V53  1  0.75812700  0.23723114  0.03265691  1
  V  V54  1  0.12798601  0.87722043  0.75685768  1
  V  V55  1  0.75119014  -0.00538243  0.75067640  1
  V  V56  1  0.63226554  0.74560173  0.37474402  1
  V  V57  1  0.37713166  0.37541517  -0.00210785  1
  V  V58  1  -0.00209460  0.50649589  -0.00476242  1
  V  V59  1  0.24529031  0.38095045  0.63037808  1
  V  V60  1  0.24859116  0.37363171  0.12653251  1
  V  V61  1  0.75677667  0.37503815  0.62265208  1
  V  V62  1  0.87345700  0.51447599  0.37233604  1
  V  V63  1  0.24412421  0.25094165  -0.00544197  1
  V  V64  1  0.50080332  0.12826746  0.12888467  1
  V  V65  1  0.37274779  0.62315513  0.25373299  1
  V  V66  1  0.87622776  0.01738680  0.37833978  1
  V  V67  1  0.23404196  0.24070854  0.49137082  1
  V  V68  1  0.36493710  0.50405937  0.87019122  1
  V  V69  1  0.13018256  0.62511771  -0.00523816  1
  V  V70  1  0.25571523  0.74383313  0.49105447  1
  V  V71  1  0.23670815  0.12828335  0.87319005  1
  V  V72  1  0.25920491  0.02318472  0.24087249  1
  V  V73  1  0.63338183  0.62354173  0.49757964  1
  V  V74  1  0.37146994  0.87696259  0.00295754  1
  V  V75  1  0.89507887  0.35017466  0.01756489  1
  V  V76  1  0.62826992  0.12539901  0.49641197  1
  V  V77  1  0.75198411  0.49699041  0.75174407  1
  V  V78  1  0.50172671  0.75205291  0.24820080  1
  V  V79  1  0.75260574  0.25140751  0.49690689  1
  V  V80  1  0.62833606  0.37543632  0.75041919  1
  V  V81  1  0.25124235  0.74917826  -0.00818346  1
  V  V82  1  0.87795828  0.11716093  0.74418333  1
  V  V83  1  0.49772335  0.62369706  0.62228689  1
  V  V84  1  0.00312342  0.62553123  0.62142064  1
  Zn  Zn85  1  0.50299659  0.49111034  0.49253681  1
  Zn  Zn86  1  0.38126011  0.87573350  0.49501071  1
  Zn  Zn87  1  0.62234646  0.87246127  0.74630329  1
  Zn  Zn88  1  0.37105657  0.75838237  0.62377217  1
  Zn  Zn89  1  0.24396504  0.61893952  0.37151348  1
  Zn  Zn90  1  0.12640131  0.74526168  0.87767448  1
  Zn  Zn91  1  0.37747012  0.49147952  0.37015563  1
  Zn  Zn92  1  -0.00769383  0.00551592  0.00326897  1
  Zn  Zn93  1  0.04517887  -0.00667319  0.50673022  1
  Zn  Zn94  1  0.49874026  0.00007721  0.49537581  1
  Zn  Zn95  1  0.50267714  0.87786529  0.37810624  1
  Zn  Zn96  1  0.62682397  0.00240549  0.12636685  1
  Zn  Zn97  1  0.12759316  0.50230401  0.62717072  1
  Zn  Zn98  1  0.49985819  0.87586438  0.87302583  1
  Zn  Zn99  1  0.50092785  0.25001324  0.75212574  1
  Zn  Zn100  1  0.37434810  -0.00086604  0.87528067  1
  Zn  Zn101  1  0.75690438  0.74489382  0.49217150  1
  Zn  Zn102  1  0.12403839  0.62449336  0.49327706  1
  Zn  Zn103  1  0.24824915  0.49843164  0.25459757  1
  Zn  Zn104  1  0.11358563  0.13368279  0.00373588  1
  Zn  Zn105  1  0.01371931  0.24678463  0.75821221  1
  Zn  Zn106  1  0.11942208  0.75134296  0.37416861  1
  Zn  Zn107  1  0.12988663  0.15917113  0.21380723  1
  Zn  Zn108  1  0.18917356  0.19517972  0.68796337  1
  Zn  Zn109  1  0.18641683  0.68779143  0.18532614  1
  Zn  Zn110  1  0.18373725  0.69945725  0.67873525  1
  Zn  Zn111  1  0.68888157  0.19001653  0.18827313  1
  Zn  Zn112  1  0.68884782  0.18848475  0.68619632  1
  Zn  Zn113  1  0.68621106  0.68838936  0.18665074  1
  Zn  Zn114  1  0.68894655  0.68680943  0.68544535  1
  Zn  Zn115  1  0.30435787  0.30354422  0.31150697  1
  Zn  Zn116  1  0.31081518  0.31514226  0.81070868  1
  Zn  Zn117  1  0.32122432  0.81397490  0.31905088  1
  Zn  Zn118  1  0.31640882  0.81255174  0.81582028  1
  Zn  Zn119  1  0.80490242  0.32452893  0.32035119  1
  Zn  Zn120  1  0.84813207  0.28968826  0.83485099  1
  Zn  Zn121  1  0.81367757  0.81136581  0.30977027  1
  Zn  Zn122  1  0.81393556  0.81219877  0.81204710  1
  Zn  Zn123  1  0.19012084  0.43769604  0.44045421  1
  Zn  Zn124  1  0.18881168  0.44091241  0.94022575  1
  Zn  Zn125  1  0.19049215  0.94134782  0.42490595  1
  Zn  Zn126  1  0.19168909  0.93554494  0.93399443  1
  Zn  Zn127  1  0.68805505  0.43631671  0.43981995  1
  Zn  Zn128  1  0.70235599  0.42700774  0.94767882  1
  Zn  Zn129  1  0.68965824  0.93621693  0.43672344  1
  Zn  Zn130  1  0.68462652  0.93587008  0.93531705  1
  Zn  Zn131  1  0.30950213  0.06643132  0.06232348  1
  Zn  Zn132  1  0.31113075  0.06141557  0.56057939  1
  Zn  Zn133  1  0.31134848  0.56174612  0.06342265  1
  Zn  Zn134  1  0.31497141  0.56087779  0.56126977  1
  Zn  Zn135  1  0.80669331  0.06511209  0.06458327  1
  Zn  Zn136  1  0.81236157  0.06285914  0.56168329  1
  Zn  Zn137  1  0.81340907  0.55660689  0.07115247  1
  Zn  Zn138  1  0.81809064  0.55999552  0.56033348  1
  Zn  Zn139  1  0.43713694  0.43713964  0.18621486  1
  Zn  Zn140  1  0.43677778  0.43879878  0.68762447  1
  Zn  Zn141  1  0.43538490  0.93997233  0.18650222  1
  Zn  Zn142  1  0.42899013  0.93506571  0.68097202  1
  Zn  Zn143  1  0.94292986  0.33197543  0.18713522  1
  Zn  Zn144  1  0.94072008  0.43611423  0.68834310  1
  Zn  Zn145  1  0.96450101  1.03936754  0.21623826  1
  Zn  Zn146  1  0.94169443  0.93912840  0.68154537  1
  Zn  Zn147  1  0.07485966  0.06489659  0.34597488  1
  Zn  Zn148  1  0.06012714  0.05963653  0.81104285  1
  Zn  Zn149  1  0.06178035  0.56110260  0.31403063  1
  Zn  Zn150  1  0.06753888  0.55863985  0.80980184  1
  Zn  Zn151  1  0.56302283  0.06641316  0.31277249  1
  Zn  Zn152  1  0.56307052  0.06029219  0.81019631  1
  Zn  Zn153  1  0.55396521  0.56504632  0.31819115  1
  Zn  Zn154  1  0.55871528  0.56345741  0.81004725  1
  Zn  Zn155  1  0.43472481  0.18754419  0.44022127  1
  Zn  Zn156  1  0.43819253  0.19005010  0.93598736  1
  Zn  Zn157  1  0.44375929  0.68728893  0.43573787  1
  Zn  Zn158  1  0.43574143  0.68571315  0.93459763  1
  Zn  Zn159  1  0.93921983  0.18675221  0.44438603  1
  Zn  Zn160  1  0.94400568  0.18010903  0.93218136  1
  Zn  Zn161  1  0.94131201  0.69037119  0.43428631  1
  Zn  Zn162  1  0.93812085  0.68750718  0.93878531  1
  Zn  Zn163  1  0.06594707  0.32154304  0.05323281  1
  Zn  Zn164  1  0.06048527  0.31159130  0.56420931  1
  Zn  Zn165  1  0.06255467  0.81635488  0.06539268  1
  Zn  Zn166  1  0.07112581  0.81819282  0.55777675  1
  Zn  Zn167  1  0.57165913  0.30961572  0.06498853  1
  Zn  Zn168  1  0.56110319  0.31047296  0.56599434  1
  Zn  Zn169  1  0.56265588  0.81445150  0.06292902  1
  Zn  Zn170  1  0.56246340  0.81103563  0.55973565  1
  O  O171  1  0.13632583  0.10208227  0.11584346  1
  O  O172  1  0.11129320  0.12984160  0.63494145  1
  O  O173  1  0.11913668  0.61937731  0.11718088  1
  O  O174  1  0.11171455  0.62493688  0.62437403  1
  O  O175  1  0.61674266  0.12476654  0.11557967  1
  O  O176  1  0.61645569  0.12071125  0.62082096  1
  O  O177  1  0.61968000  0.61592084  0.12027827  1
  O  O178  1  0.61867057  0.61923509  0.62064801  1
  O  O179  1  0.36990817  0.36655503  0.39145757  1
  O  O180  1  0.38356118  0.38180315  0.87798801  1
  O  O181  1  0.38646073  0.88830620  0.37120158  1
  O  O182  1  0.38155122  0.87642727  0.88850089  1
  O  O183  1  0.88796027  0.38426242  0.37453143  1
  O  O184  1  0.86547542  0.39027592  0.89561804  1
  O  O185  1  0.86804084  0.87588616  0.38873652  1
  O  O186  1  0.87964552  0.86950983  0.88698579  1
  O  O187  1  0.26854934  -0.00664882  0.35178121  1
  O  O188  1  0.25365526  0.01135453  0.86652960  1
  O  O189  1  0.25908715  0.50179435  0.37368401  1
  O  O190  1  0.26622248  0.49957877  0.88038376  1
  O  O191  1  0.75651518  -0.00597605  0.36181944  1
  O  O192  1  0.74072670  0.00282490  0.85809157  1
  O  O193  1  0.76181461  0.49646610  0.37557267  1
  O  O194  1  0.75610544  0.50438441  0.87407824  1
  O  O195  1  0.23754730  0.49218069  0.12275379  1
  O  O196  1  0.25006509  0.48396045  0.61914401  1
  O  O197  1  0.25239945  1.00035475  0.13622555  1
  O  O198  1  0.25144055  0.99332938  0.63730059  1
  O  O199  1  0.74183617  0.49134523  0.13753456  1
  O  O200  1  0.74859952  0.49246027  0.62933895  1
  O  O201  1  0.75132575  0.99293287  0.14034138  1
  O  O202  1  0.74464112  0.99180278  0.63153488  1
  O  O203  1  0.01048470  0.37667601  0.26467506  1
  O  O204  1  0.01622751  0.37353481  0.74620040  1
  O  O205  1  0.00315432  0.86828506  0.24525607  1
  O  O206  1  0.00387328  0.86913082  0.75627302  1
  O  O207  1  0.50559802  0.36727839  0.24976168  1
  O  O208  1  0.51007136  0.37472792  0.75733496  1
  O  O209  1  0.51586741  0.87237723  0.24203741  1
  O  O210  1  0.49761603  0.86192809  0.74812536  1
  O  O211  1  0.50730408  0.13551988  0.23587940  1
  O  O212  1  0.49216958  0.12564473  0.74396558  1
  O  O213  1  0.49437647  0.63263007  0.24044702  1
  O  O214  1  0.49813647  0.63479415  0.73894915  1
  O  O215  1  1.03374434  0.11618178  0.25951907  1
  O  O216  1  0.99116031  0.12329705  0.74253604  1
  O  O217  1  1.00545223  0.63109037  0.23632376  1
  O  O218  1  0.99534374  0.63171972  0.74421114  1
  O  O219  1  0.37223367  0.25842735  0.00433040  1
  O  O220  1  0.37323102  0.25629230  0.51272856  1
  O  O221  1  0.37129307  0.75426959  0.00492515  1
  O  O222  1  0.36768646  0.74565029  0.50096217  1
  O  O223  1  0.85689442  0.25189940  -0.01902753  1
  O  O224  1  0.86394191  0.24459536  0.51374811  1
  O  O225  1  0.86745937  0.75579868  0.00630056  1
  O  O226  1  0.87654290  0.76171608  0.50279521  1
  O  O227  1  0.13490369  0.25228694  0.50224406  1
  O  O228  1  0.13943520  0.25107613  1.00251222  1
  O  O229  1  0.13884333  0.74803982  0.49411925  1
  O  O230  1  0.13416447  0.74402148  1.00262692  1
  O  O231  1  0.62821312  0.24574504  0.49557435  1
  O  O232  1  0.64025758  0.24319509  0.99152655  1
  O  O233  1  0.62841673  0.74205191  0.49112437  1
  O  O234  1  0.62979574  0.74405836  0.99243128  1
  O  O235  1  0.49669634  0.24588960  0.13141760  1
  O  O236  1  0.49304294  0.23764635  0.62901658  1
  O  O237  1  0.49442102  0.74348586  0.12723044  1
  O  O238  1  0.49752774  0.74300214  0.63172157  1
  O  O239  1  0.96257946  0.28670566  0.08398510  1
  O  O240  1  0.99117774  0.24208541  0.63038614  1
  O  O241  1  0.99152109  0.74628749  0.13063488  1
  O  O242  1  0.99705212  0.74564592  0.63115844  1
  O  O243  1  -0.00993040  0.26440363  0.37852904  1
  O  O244  1  -0.04305273  0.25696755  0.85478442  1
  O  O245  1  -0.00126126  0.75129398  0.35544942  1
  O  O246  1  -0.00184060  0.75908364  0.86755845  1
  O  O247  1  0.50330644  0.24499185  0.36412874  1
  O  O248  1  0.51644727  0.25635785  0.87555497  1
  O  O249  1  0.51275947  0.75197705  0.36477391  1
  O  O250  1  0.50812344  0.74813977  0.86610104  1
  O  O251  1  0.25190612  0.14347049  0.51271735  1
  O  O252  1  0.25103557  0.13421848  0.98810721  1
  O  O253  1  0.24979080  0.63407896  0.50037421  1
  O  O254  1  0.24117131  0.63339873  1.00623751  1
  O  O255  1  0.73528123  0.13592712  0.50982732  1
  O  O256  1  0.74023350  0.12157343  0.98113862  1
  O  O257  1  0.73746804  0.62711912  0.51030357  1
  O  O258  1  0.74368080  0.62872222  0.99786743  1
  O  O259  1  0.25657481  0.36921502  0.00420508  1
  O  O260  1  0.25915513  0.36526866  0.51100856  1
  O  O261  1  0.26132673  0.86590646  -0.00287105  1
  O  O262  1  0.26402224  0.86012951  0.48848413  1
  O  O263  1  0.76667582  0.35837535  0.02130165  1
  O  O264  1  0.74473501  0.36723238  0.51485038  1
  O  O265  1  0.75256165  0.86996151  0.00505832  1
  O  O266  1  0.75604692  0.87072283  0.50991322  1
  O  O267  1  0.12508975  0.49159230  0.24171309  1
  O  O268  1  0.12497462  0.48655356  0.74434299  1
  O  O269  1  0.14759367  0.98494233  0.23931805  1
  O  O270  1  0.13380173  0.98887675  0.75545398  1
  O  O271  1  0.62367671  0.49872709  0.24870296  1
  O  O272  1  0.63193240  0.49621164  0.74565524  1
  O  O273  1  0.63518641  0.99393086  0.25012603  1
  O  O274  1  0.63087115  0.99454328  0.74050617  1
  O  O275  1  0.36766348  0.00674349  0.24967307  1
  O  O276  1  0.36794200  0.00773564  0.75213437  1
  O  O277  1  0.37192486  0.51000306  0.24508743  1
  O  O278  1  0.37987003  0.51097087  0.75821230  1
  O  O279  1  0.86406338  0.00670779  0.26223257  1
  O  O280  1  0.86597054  0.00792661  0.74045547  1
  O  O281  1  0.86132962  0.49986188  0.26828553  1
  O  O282  1  0.87117290  0.50184082  0.75996960  1
  O  O283  1  0.11612289  0.38117038  0.36517832  1
  O  O284  1  0.12889910  0.38101783  0.86431945  1
  O  O285  1  0.13360012  0.86798481  0.34953093  1
  O  O286  1  0.11628575  0.86843130  0.87088576  1
  O  O287  1  0.62169211  0.36527258  0.37302927  1
  O  O288  1  0.62949805  0.36754960  0.87307550  1
  O  O289  1  0.62370393  0.86912187  0.36596232  1
  O  O290  1  0.62246253  0.86038182  0.87113846  1
  O  O291  1  0.38545788  0.14051402  0.11565336  1
  O  O292  1  0.38020860  0.12985682  0.63449443  1
  O  O293  1  0.38092549  0.63229274  0.13020726  1
  O  O294  1  0.38371592  0.62477204  0.63185230  1
  O  O295  1  0.79429150  0.17068385  0.10646777  1
  O  O296  1  0.88316669  0.12739679  0.62769320  1
  O  O297  1  0.88241525  0.63646927  0.12053697  1
  O  O298  1  0.88454989  0.63114381  0.63045638  1
  O  O299  1  0.26245930  0.25802616  0.11272892  1
  O  O300  1  0.25799088  0.26089480  0.62114917  1
  O  O301  1  0.26375943  0.74563067  0.11491570  1
  O  O302  1  0.24979676  0.76281547  0.60665161  1
  O  O303  1  0.70488384  0.28438457  0.12488854  1
  O  O304  1  0.75169682  0.25758592  0.61621407  1
  O  O305  1  0.75484558  0.75435715  0.12069454  1
  O  O306  1  0.75966141  0.75767755  0.62526118  1
  O  O307  1  0.24982690  0.24773539  0.39146101  1
  O  O308  1  0.25967721  0.24131390  0.88366115  1
  O  O309  1  0.25377711  0.74327814  0.38354683  1
  O  O310  1  0.25079517  0.74855327  0.88813437  1
  O  O311  1  0.74106157  0.25867152  0.38979376  1
  O  O312  1  0.74265948  0.23906593  0.86505486  1
  O  O313  1  0.73716840  0.75249667  0.37302885  1
  O  O314  1  0.74261223  0.74306854  0.87774211  1
  O  O315  1  0.00206917  0.11731662  -0.00234678  1
  O  O316  1  0.00308137  0.12448921  0.51526251  1
  O  O317  1  0.00772361  0.62327058  0.00910871  1
  O  O318  1  -0.00029639  0.62046712  0.50750445  1
  O  O319  1  0.50480649  0.12068745  0.00522225  1
  O  O320  1  0.51012761  0.12498719  0.50908283  1
  O  O321  1  0.50779558  0.61971157  0.00311068  1
  O  O322  1  0.50950480  0.62633246  0.51253237  1
  O  O323  1  0.48161124  0.37159386  0.51073088  1
  O  O324  1  0.49938139  0.37857372  0.99470333  1
  O  O325  1  0.49903751  0.88147263  0.49868989  1
  O  O326  1  0.49654430  0.88531007  0.99928294  1
  O  O327  1  1.00520531  0.38202322  0.48696145  1
  O  O328  1  0.99593384  0.39823080  0.99232896  1
  O  O329  1  0.98713367  0.88278193  0.50491980  1
  O  O330  1  0.98869023  0.87595080  0.99415905  1
  O  O331  1  0.49031625  0.50034361  0.38032732  1
  O  O332  1  0.49880382  0.49405639  0.88170113  1
  O  O333  1  0.48947969  1.00160875  0.37094043  1
  O  O334  1  0.49929774  1.00038423  0.88728082  1
  O  O335  1  0.98898771  0.49611113  0.37955227  1
  O  O336  1  0.98807308  0.51328219  0.88191120  1
  O  O337  1  0.97491265  0.99828169  0.37471690  1
  O  O338  1  1.00052487  0.98487737  0.87669913  1
  O  O339  1  0.01782054  -0.00569885  0.12570827  1
  O  O340  1  0.00482319  0.01197945  0.61942746  1
  O  O341  1  0.01252311  0.51119787  0.11481782  1
  O  O342  1  -0.00322348  0.50886803  0.61629129  1
  O  O343  1  0.50104371  0.01038693  0.11524577  1
  O  O344  1  0.50258118  0.01056770  0.62462488  1
  O  O345  1  0.50419379  0.50961172  0.11776009  1
  O  O346  1  0.50746284  0.50813677  0.62377319  1
  O  O347  1  0.23940216  0.37625374  0.24480174  1
  O  O348  1  0.24345846  0.37324135  0.73677054  1
  O  O349  1  0.24934201  0.85999946  0.24017439  1
  O  O350  1  0.24376291  0.88496339  0.76124625  1
  O  O351  1  0.72677665  0.39211803  0.25184780  1
  O  O352  1  0.74294811  0.38115021  0.73969785  1
  O  O353  1  0.74208671  0.87880911  0.24329708  1
  O  O354  1  0.75143241  0.87904336  0.73911615  1
  O  O355  1  0.24147477  0.11973971  0.24704073  1
  O  O356  1  0.25555138  0.12008718  0.75408396  1
  O  O357  1  0.25962433  0.62357071  0.24671438  1
  O  O358  1  0.25989548  0.63455027  0.73940088  1
  O  O359  1  0.74018187  0.11303432  0.25516251  1
  O  O360  1  0.75198845  0.11219230  0.74894027  1
  O  O361  1  0.74238579  0.61274593  0.24873619  1
  O  O362  1  0.75674537  0.61706721  0.75400918  1
  O  O363  1  0.37923335  0.11355704  0.37245518  1
  O  O364  1  0.37291368  0.12642559  0.86180452  1
  O  O365  1  0.37732358  0.62919607  0.35860374  1
  O  O366  1  0.38154658  0.61595704  0.86166055  1
  O  O367  1  0.86925696  0.11654755  0.38574545  1
  O  O368  1  0.85851887  0.11865485  0.86131336  1
  O  O369  1  0.87562583  0.61389452  0.37828645  1
  O  O370  1  0.86766782  0.62151681  0.86851724  1
  O  O371  1  0.12668198  0.38339332  0.13198647  1
  O  O372  1  0.13767431  0.37651625  0.62556554  1
  O  O373  1  0.12738248  0.88201865  0.13457402  1
  O  O374  1  0.13461824  0.85002940  0.65501602  1
  O  O375  1  0.60848666  0.39467440  0.13709027  1
  O  O376  1  0.63043688  0.38042353  0.63142956  1
  O  O377  1  0.63787085  0.87600733  0.13005180  1
  O  O378  1  0.63489092  0.87854594  0.62456167  1
  O  O379  1  0.12651114  0.26822312  0.24550013  1
  O  O380  1  0.12784379  0.26896128  0.74989500  1
  O  O381  1  0.11440816  0.76105262  0.23978695  1
  O  O382  1  0.11226236  0.74820936  0.75924030  1
  O  O383  1  0.61659064  0.25995405  0.26091581  1
  O  O384  1  0.62434887  0.25706330  0.75603904  1
  O  O385  1  0.62196184  0.75731240  0.25407937  1
  O  O386  1  0.61785612  0.74872607  0.75648982  1
  O  O387  1  0.38314783  0.25763949  0.23891563  1
  O  O388  1  0.37639090  0.24366967  0.74048141  1
  O  O389  1  0.38232120  0.74552872  0.24072980  1
  O  O390  1  0.38186806  0.74275410  0.74801478  1
  O  O391  1  0.83638437  0.30101565  0.21393591  1
  O  O392  1  0.85822972  0.22975284  0.73167431  1
  O  O393  1  0.88587178  0.75701233  0.23893300  1
  O  O394  1  0.88581830  0.74644239  0.74472392  1
  O  O395  1  0.37606710  0.48152802  0.50324349  1
  O  O396  1  0.38334330  0.49560423  0.99434164  1
  O  O397  1  0.37411525  1.00273043  0.48322481  1
  O  O398  1  0.38127247  0.99342053  1.00027871  1
  O  O399  1  0.88682249  0.50151553  0.48999766  1
  O  O400  1  0.88461671  0.51421903  0.99137105  1
  O  O401  1  0.86131731  0.98902496  0.48787123  1
  O  O402  1  0.87082894  0.98779691  1.01064344  1
  O  O403  1  0.12819789  -0.01103663  0.01374149  1
  O  O404  1  0.14577210  -0.07950601  0.53586566  1
  O  O405  1  0.11948791  0.50749941  0.00549364  1
  O  O406  1  0.11211502  0.50323926  0.50288682  1
  O  O407  1  0.61766940  0.00462728  0.00202566  1
  O  O408  1  0.62616551  0.00923884  0.50405145  1
  O  O409  1  0.62614511  0.50119715  0.00950261  1
  O  O410  1  0.62354674  0.50621929  0.50714001  1
  O  O411  1  0.37158772  0.36857741  0.11703083  1
  O  O412  1  0.36643384  0.36719938  0.62494212  1
  O  O413  1  0.38476669  0.86494973  0.11229544  1
  O  O414  1  0.35458376  0.87762283  0.61592207  1
  O  O415  1  0.87195594  0.40665248  0.11109876  1
  O  O416  1  0.86645880  0.36416946  0.63314151  1
  O  O417  1  0.86016173  0.86198132  0.11519823  1
  O  O418  1  0.86958110  0.87239121  0.61522426  1
  O  O419  1  0.12372589  0.03335315  0.43545235  1
  O  O420  1  0.13417162  0.12415742  0.87522917  1
  O  O421  1  0.12645109  0.63183045  0.37415647  1
  O  O422  1  0.11961873  0.62521303  0.89068578  1
  O  O423  1  0.62152930  0.13964087  0.38430783  1
  O  O424  1  0.63170757  0.13219459  0.87324197  1
  O  O425  1  0.62129656  0.63268580  0.38620031  1
  O  O426  1  0.62978405  0.63256532  0.87837617  1
