# generated using pymatgen
data_V85Zn86O256
_symmetry_space_group_name_H-M   'P 1'
_cell_length_a   16.95467063
_cell_length_b   16.96991998
_cell_length_c   16.95386431
_cell_angle_alpha   89.93534837
_cell_angle_beta   90.06481039
_cell_angle_gamma   90.02948406
_symmetry_Int_Tables_number   1
_chemical_formula_structural   V85Zn86O256
_chemical_formula_sum   'V85 Zn86 O256'
_cell_volume   4877.94886318
_cell_formula_units_Z   1
loop_
 _symmetry_equiv_pos_site_id
 _symmetry_equiv_pos_as_xyz
  1  'x, y, z'
loop_
 _atom_site_type_symbol
 _atom_site_label
 _atom_site_symmetry_multiplicity
 _atom_site_fract_x
 _atom_site_fract_y
 _atom_site_fract_z
 _atom_site_occupancy
  V  V0  1  0.62888751  0.88154476  0.75258927  1
  V  V1  1  0.50277914  0.37176647  0.37703096  1
  V  V2  1  0.62746228  0.63390090  0.00107553  1
  V  V3  1  0.49455862  0.24891839  0.74603856  1
  V  V4  1  0.75118720  0.62710020  0.37748381  1
  V  V5  1  0.62633541  0.62633850  0.50318952  1
  V  V6  1  0.87701940  0.37455691  0.00255570  1
  V  V7  1  0.75427856  0.75462570  0.50227614  1
  V  V8  1  0.87426582  0.50508423  0.37393808  1
  V  V9  1  0.50245130  0.49693217  -0.00050150  1
  V  V10  1  0.63141693  0.49747997  0.12375572  1
  V  V11  1  0.87017574  0.63629202  0.24468753  1
  V  V12  1  0.75654659  0.36969022  0.12637467  1
  V  V13  1  0.75962930  0.00011923  0.25317310  1
  V  V14  1  0.00784720  0.00529361  0.49258530  1
  V  V15  1  0.36182025  0.49476551  0.35568743  1
  V  V16  1  0.25451361  0.24929320  -0.00195783  1
  V  V17  1  0.12606394  0.37416193  0.75503659  1
  V  V18  1  0.00701361  0.50243902  0.00649009  1
  V  V19  1  0.62809110  -0.00040254  0.12610604  1
  V  V20  1  0.50056916  -0.00033168  0.00321395  1
  V  V21  1  0.00917140  0.37256587  0.37410593  1
  V  V22  1  0.24439863  0.75391592  0.00593838  1
  V  V23  1  0.50173603  0.24766875  0.25096132  1
  V  V24  1  -0.00605767  0.63044627  0.11803533  1
  V  V25  1  0.00273503  0.75884442  0.24376630  1
  V  V26  1  0.75065855  0.50121103  0.74935014  1
  V  V27  1  0.62352585  0.87820746  0.25615134  1
  V  V28  1  0.75083576  0.63349173  0.87725591  1
  V  V29  1  0.00941129  0.12613959  0.62347635  1
  V  V30  1  0.62821583  0.37360738  0.25077865  1
  V  V31  1  0.87634161  0.49991401  0.87636127  1
  V  V32  1  0.49957727  0.74535497  0.24797087  1
  V  V33  1  0.25004301  0.37147613  0.12911800  1
  V  V34  1  0.37347272  -0.00105479  0.87058400  1
  V  V35  1  0.86576526  0.86335543  0.00244197  1
  V  V36  1  0.61832712  0.75715069  0.37997226  1
  V  V37  1  0.75383101  0.88954925  0.63117017  1
  V  V38  1  0.62513186  0.37521517  0.74961997  1
  V  V39  1  0.49682110  0.50157921  0.49902917  1
  V  V40  1  0.76281820  0.12285246  0.37804582  1
  V  V41  1  0.87012602  0.12185348  0.74751730  1
  V  V42  1  -0.01052626  0.13387714  0.12132157  1
  V  V43  1  0.37505455  0.63330155  0.75258507  1
  V  V44  1  0.12573915  0.50183510  0.62631723  1
  V  V45  1  0.12483335  -0.01821499  0.63691388  1
  V  V46  1  0.87465524  0.75510958  0.62621425  1
  V  V47  1  0.25394891  0.49910161  0.75539804  1
  V  V48  1  -0.00093079  0.25134581  0.25105580  1
  V  V49  1  0.49487180  0.37337572  0.87662038  1
  V  V50  1  0.88179429  0.88203564  0.49140971  1
  V  V51  1  0.24880518  0.11878726  0.86937845  1
  V  V52  1  0.26617502  0.86850882  0.63295838  1
  V  V53  1  0.00184469  0.37597853  0.87774944  1
  V  V54  1  0.01090522  0.64041442  0.61375318  1
  V  V55  1  0.63133006  0.12563886  0.50112752  1
  V  V56  1  -0.00280734  -0.00128869  -0.00025735  1
  V  V57  1  0.49835056  0.12424072  0.62269112  1
  V  V58  1  0.25235104  0.87949958  0.14135100  1
  V  V59  1  -0.00188417  0.49997244  0.50092176  1
  V  V60  1  0.36588289  0.12115038  0.25836496  1
  V  V61  1  0.37783859  0.36342715  0.50422959  1
  V  V62  1  0.00853033  0.75536969  0.75108261  1
  V  V63  1  0.12562408  -0.00462301  0.13659337  1
  V  V64  1  0.86743198  -0.00078678  0.87080265  1
  V  V65  1  0.62592216  0.24865992  0.87497642  1
  V  V66  1  0.87027052  0.24990778  0.62305829  1
  V  V67  1  0.87738550  0.62663142  0.74697027  1
  V  V68  1  0.86733805  0.36625038  0.49644966  1
  V  V69  1  0.15143964  0.52103942  0.13724852  1
  V  V70  1  0.12600939  0.12351376  0.00103037  1
  V  V71  1  0.49246315  -0.00362858  0.48865138  1
  V  V72  1  0.62477947  0.50122430  0.62642464  1
  V  V73  1  0.49606706  0.63301982  0.62371254  1
  V  V74  1  0.37081154  0.12451307  0.74004656  1
  V  V75  1  0.49724863  0.86941962  0.87557755  1
  V  V76  1  0.75560439  0.24755254  0.00082522  1
  V  V77  1  0.37399937  0.49894819  0.88549041  1
  V  V78  1  0.63617627  0.24859439  0.37925039  1
  V  V79  1  0.23614695  0.24521658  0.49223783  1
  V  V80  1  0.37733273  0.25217320  0.11992315  1
  V  V81  1  0.00857634  0.87760190  0.87406056  1
  V  V82  1  0.49965901  0.12369109  0.12652776  1
  V  V83  1  0.25581947  0.36802025  0.62748364  1
  V  V84  1  0.24265406  0.62613015  0.88640969  1
  Zn  Zn85  1  0.87281837  0.13091754  0.24731432  1
  Zn  Zn86  1  0.74842463  0.37329785  0.62214723  1
  Zn  Zn87  1  0.49835524  0.75552958  0.74463745  1
  Zn  Zn88  1  0.32397361  0.72136539  0.55801632  1
  Zn  Zn89  1  0.62695312  0.75271166  0.87603493  1
  Zn  Zn90  1  0.12832396  0.37639511  0.25057887  1
  Zn  Zn91  1  0.75164735  0.85893231  0.12745179  1
  Zn  Zn92  1  0.14310926  0.74206870  0.35719676  1
  Zn  Zn93  1  0.01299756  0.87662040  0.36775822  1
  Zn  Zn94  1  0.50082943  0.61724296  0.13343455  1
  Zn  Zn95  1  0.12500332  0.24850843  0.87554763  1
  Zn  Zn96  1  0.15021602  0.62477413  0.49033357  1
  Zn  Zn97  1  0.74783004  0.12226975  0.87063372  1
  Zn  Zn98  1  0.62790391  0.00424559  0.62959339  1
  Zn  Zn99  1  -0.00082236  0.25095666  0.75016709  1
  Zn  Zn100  1  0.43228674  0.83296777  0.42920239  1
  Zn  Zn101  1  0.12664236  0.75188441  0.87865837  1
  Zn  Zn102  1  0.62764022  0.12485924  -0.00011572  1
  Zn  Zn103  1  0.37338386  0.87817879  0.00763549  1
  Zn  Zn104  1  0.37522756  0.74528035  0.12730461  1
  Zn  Zn105  1  0.22797799  0.10491386  0.36571059  1
  Zn  Zn106  1  0.75046597  0.50018770  0.25011580  1
  Zn  Zn107  1  0.18155116  0.18811540  0.19056405  1
  Zn  Zn108  1  0.18789612  0.18806502  0.68620683  1
  Zn  Zn109  1  0.20480813  0.69189217  0.20591091  1
  Zn  Zn110  1  0.19061364  0.68804320  0.69519596  1
  Zn  Zn111  1  0.68890364  0.18638903  0.18787196  1
  Zn  Zn112  1  0.68885493  0.18883413  0.68680811  1
  Zn  Zn113  1  0.68124376  0.68557724  0.19208704  1
  Zn  Zn114  1  0.68591292  0.69366438  0.69161897  1
  Zn  Zn115  1  0.31426168  0.30929417  0.31254012  1
  Zn  Zn116  1  0.31386512  0.30945328  0.81651283  1
  Zn  Zn117  1  0.30590703  0.80888102  0.31440692  1
  Zn  Zn118  1  0.30706256  0.81520325  0.81045652  1
  Zn  Zn119  1  0.81967266  0.30922612  0.31146930  1
  Zn  Zn120  1  0.81348184  0.31130447  0.81053013  1
  Zn  Zn121  1  0.81055663  0.81263133  0.31334923  1
  Zn  Zn122  1  0.81617050  0.81573663  0.81260553  1
  Zn  Zn123  1  0.19019686  0.43870922  0.44089444  1
  Zn  Zn124  1  0.18822313  0.44091655  0.95041722  1
  Zn  Zn125  1  0.19954513  0.91878536  0.43318372  1
  Zn  Zn126  1  0.18957471  0.93810593  0.94398582  1
  Zn  Zn127  1  0.68811184  0.43837836  0.43885833  1
  Zn  Zn128  1  0.68943212  0.43829499  0.93757263  1
  Zn  Zn129  1  0.68855365  0.94288159  0.44118993  1
  Zn  Zn130  1  0.68639754  0.93807320  0.93683056  1
  Zn  Zn131  1  0.31326830  0.06143231  0.06618474  1
  Zn  Zn132  1  0.28456428  0.03654325  0.52585352  1
  Zn  Zn133  1  0.31111176  0.56982386  0.07969355  1
  Zn  Zn134  1  0.31708809  0.55000706  0.56347202  1
  Zn  Zn135  1  0.81011251  0.05902353  0.05868243  1
  Zn  Zn136  1  0.81843048  0.06529424  0.55871196  1
  Zn  Zn137  1  0.80968042  0.68348325  0.06226813  1
  Zn  Zn138  1  0.81717878  0.56367856  0.56257654  1
  Zn  Zn139  1  0.44080841  0.43005267  0.18199062  1
  Zn  Zn140  1  0.43683508  0.44091772  0.68982479  1
  Zn  Zn141  1  0.41527557  0.91898451  0.24672792  1
  Zn  Zn142  1  0.43759374  0.94203101  0.68593782  1
  Zn  Zn143  1  0.93598806  0.44105551  0.18966251  1
  Zn  Zn144  1  0.93884203  0.43781645  0.68608367  1
  Zn  Zn145  1  0.93621299  0.93998949  0.18080067  1
  Zn  Zn146  1  0.94253888  0.93945399  0.68699068  1
  Zn  Zn147  1  0.05432269  0.06354451  0.30944980  1
  Zn  Zn148  1  0.05803739  0.06368077  0.81067281  1
  Zn  Zn149  1  0.06013868  0.56591588  0.30759670  1
  Zn  Zn150  1  0.06263251  0.56374101  0.80943903  1
  Zn  Zn151  1  0.56515026  0.06487580  0.31310979  1
  Zn  Zn152  1  0.56036281  0.06091218  0.81291597  1
  Zn  Zn153  1  0.56263399  0.56208108  0.31800728  1
  Zn  Zn154  1  0.56205718  0.56503704  0.81357105  1
  Zn  Zn155  1  0.43857000  0.18447979  0.43796914  1
  Zn  Zn156  1  0.43720489  0.18282878  0.93567419  1
  Zn  Zn157  1  0.31532995  0.66395419  0.40112869  1
  Zn  Zn158  1  0.42999127  0.68547659  0.95021883  1
  Zn  Zn159  1  1.05781340  0.18920444  0.43699766  1
  Zn  Zn160  1  0.93697498  0.18812605  0.93476979  1
  Zn  Zn161  1  0.99851175  0.68929108  0.43737288  1
  Zn  Zn162  1  0.94013256  0.68776423  0.93195469  1
  Zn  Zn163  1  0.06902522  0.31348704  0.06661596  1
  Zn  Zn164  1  0.05889859  0.31770203  0.56804834  1
  Zn  Zn165  1  0.06177568  0.81186333  0.06343762  1
  Zn  Zn166  1  0.10763941  0.82017382  0.53137906  1
  Zn  Zn167  1  0.56523538  0.31272466  0.06051932  1
  Zn  Zn168  1  0.56461906  0.30857256  0.56387944  1
  Zn  Zn169  1  0.56618642  0.81676261  0.06634939  1
  Zn  Zn170  1  0.56521159  0.81725427  0.56548046  1
  O  O171  1  0.11952069  0.11422339  0.11722545  1
  O  O172  1  0.11154044  0.12471040  0.62901841  1
  O  O173  1  0.09723139  0.62050056  0.12169521  1
  O  O174  1  0.12710316  0.60817048  0.63820767  1
  O  O175  1  0.61710424  0.11911691  0.12427694  1
  O  O176  1  0.62086438  0.12618157  0.61806828  1
  O  O177  1  0.62209094  0.61277092  0.11699671  1
  O  O178  1  0.61960625  0.62086635  0.62275098  1
  O  O179  1  0.38336891  0.37922304  0.38276928  1
  O  O180  1  0.38324719  0.38459503  0.87034007  1
  O  O181  1  0.37469803  0.88678021  0.34859648  1
  O  O182  1  0.37986975  0.88448458  0.87533080  1
  O  O183  1  0.87935272  0.38189352  0.38452340  1
  O  O184  1  0.88460276  0.37976218  0.87737498  1
  O  O185  1  0.87179264  0.87506954  0.39115884  1
  O  O186  1  0.88133401  0.88179501  0.88524842  1
  O  O187  1  0.25369922  0.01021409  0.41845524  1
  O  O188  1  0.25801855  0.01098880  0.88162039  1
  O  O189  1  0.26182761  0.49772585  0.37488155  1
  O  O190  1  0.25719802  0.50542150  0.87870976  1
  O  O191  1  0.74401605  0.01045863  0.36442674  1
  O  O192  1  0.76332964  0.00254375  0.87893378  1
  O  O193  1  0.75795275  0.50696844  0.37633013  1
  O  O194  1  0.75635640  0.50669800  0.86758675  1
  O  O195  1  0.24759032  0.47382270  0.08822403  1
  O  O196  1  0.24420931  0.48855358  0.63245551  1
  O  O197  1  0.23594226  0.99224737  0.12053001  1
  O  O198  1  0.23166966  0.98594974  0.61799531  1
  O  O199  1  0.73645904  0.48721827  0.12647534  1
  O  O200  1  0.74525224  0.50013797  0.63292549  1
  O  O201  1  0.73838224  1.00346405  0.13180511  1
  O  O202  1  0.75121968  0.99203764  0.62348238  1
  O  O203  1  -0.00314602  0.37142421  0.25969349  1
  O  O204  1  0.00931073  0.37768262  0.75888877  1
  O  O205  1  -0.00749665  0.86330613  0.24387640  1
  O  O206  1  -0.01095932  0.86645029  0.76369598  1
  O  O207  1  0.50895056  0.36596189  0.25564200  1
  O  O208  1  0.50427735  0.36705919  0.75410179  1
  O  O209  1  0.51852779  0.86591440  0.24769755  1
  O  O210  1  0.50508264  0.87537622  0.75837546  1
  O  O211  1  0.49682064  0.13259545  0.24428498  1
  O  O212  1  0.49548177  0.13170863  0.74484063  1
  O  O213  1  0.51664599  0.64171660  0.25079286  1
  O  O214  1  0.49284774  0.62503957  0.74159550  1
  O  O215  1  0.99385056  0.13263346  0.23814948  1
  O  O216  1  0.98949968  0.12980639  0.74192610  1
  O  O217  1  0.98750136  0.63396552  0.23816482  1
  O  O218  1  0.99604075  0.63397075  0.74156283  1
  O  O219  1  0.36701667  0.24026987  0.00672811  1
  O  O220  1  0.37338741  0.26116463  0.49879669  1
  O  O221  1  0.36341571  0.75997309  0.00651301  1
  O  O222  1  0.37013054  0.74590183  0.46231344  1
  O  O223  1  0.86289593  0.25751676  -0.00818004  1
  O  O224  1  0.87940699  0.26649064  0.50590645  1
  O  O225  1  0.87458603  0.75994474  -0.00456568  1
  O  O226  1  0.87269533  0.76615986  0.51193844  1
  O  O227  1  0.13058114  0.25751442  0.50105250  1
  O  O228  1  0.13062233  0.23551612  0.99964566  1
  O  O229  1  0.07627294  0.70944768  0.52997669  1
  O  O230  1  0.13841579  0.75454556  0.99913036  1
  O  O231  1  0.62322531  0.23842251  0.49202917  1
  O  O232  1  0.63453005  0.24972483  0.99040809  1
  O  O233  1  0.63266209  0.74831683  0.49655148  1
  O  O234  1  0.61708436  0.73667115  0.99754768  1
  O  O235  1  0.49517517  0.24560864  0.12734641  1
  O  O236  1  0.50422972  0.23754401  0.63456758  1
  O  O237  1  0.50878075  0.75056413  0.14046198  1
  O  O238  1  0.50344816  0.73717333  0.62297856  1
  O  O239  1  1.00213910  0.24030152  0.12541226  1
  O  O240  1  0.99011195  0.24411275  0.62509131  1
  O  O241  1  0.99380194  0.74136848  0.12859717  1
  O  O242  1  0.98326272  0.75497426  0.63923354  1
  O  O243  1  -0.00138528  0.26333331  0.36773629  1
  O  O244  1  0.00340449  0.26436714  0.87511971  1
  O  O245  1  -0.01278802  0.75949097  0.35086252  1
  O  O246  1  0.00322478  0.75887804  0.86961388  1
  O  O247  1  0.51101441  0.25403793  0.37137144  1
  O  O248  1  0.50629245  0.25379967  0.87017082  1
  O  O249  1  0.51575267  0.75619583  0.36637666  1
  O  O250  1  0.49626590  0.76435464  0.88066725  1
  O  O251  1  0.25273959  0.14949586  0.51396310  1
  O  O252  1  0.24261419  0.12819831  0.99447046  1
  O  O253  1  0.26196499  0.62895933  0.50257153  1
  O  O254  1  0.25667192  0.63697931  0.99372898  1
  O  O255  1  0.74258014  0.11951782  0.49251169  1
  O  O256  1  0.74857969  0.13400719  0.99506698  1
  O  O257  1  0.74678805  0.63239874  0.49771843  1
  O  O258  1  0.74133007  0.62128202  0.98876891  1
  O  O259  1  0.24319722  0.35176194  -0.00036875  1
  O  O260  1  0.25747383  0.36874116  0.50844283  1
  O  O261  1  0.25329638  0.87066352  0.01092596  1
  O  O262  1  0.22411766  0.85567973  0.53168943  1
  O  O263  1  0.75520530  0.36874433  0.00617514  1
  O  O264  1  0.76366778  0.37701078  0.50161891  1
  O  O265  1  0.76361093  0.87668724  -0.00265168  1
  O  O266  1  0.75972489  0.87492503  0.51000191  1
  O  O267  1  0.11518565  0.49744294  0.23333866  1
  O  O268  1  0.13268303  0.48965656  0.74795935  1
  O  O269  1  0.11597870  0.99900863  0.23444679  1
  O  O270  1  0.11828869  1.00426278  0.73445703  1
  O  O271  1  0.62576207  0.49187118  0.24297149  1
  O  O272  1  0.62951862  0.49561099  0.74567960  1
  O  O273  1  0.63032538  0.99525106  0.24414416  1
  O  O274  1  0.62287062  0.98723803  0.75093145  1
  O  O275  1  0.37795125  0.02533449  0.23700607  1
  O  O276  1  0.38194431  0.01011780  0.76350033  1
  O  O277  1  0.37448497  0.48284078  0.25650878  1
  O  O278  1  0.37107624  0.50832518  0.76160511  1
  O  O279  1  0.86239359  0.00215347  0.24372174  1
  O  O280  1  0.88130297  0.00876956  0.75892932  1
  O  O281  1  0.87201336  0.50854400  0.26066776  1
  O  O282  1  0.87199274  0.50610593  0.75453793  1
  O  O283  1  0.11224975  0.38690519  0.37315049  1
  O  O284  1  0.12017759  0.37679695  0.87120674  1
  O  O285  1  0.12064384  0.84278158  0.40725327  1
  O  O286  1  0.11160840  0.87888626  0.88088514  1
  O  O287  1  0.62406767  0.36640758  0.37269664  1
  O  O288  1  0.61900104  0.36529336  0.86948045  1
  O  O289  1  0.63598973  0.86788803  0.36955454  1
  O  O290  1  0.61723758  0.87394204  0.87107399  1
  O  O291  1  0.38034195  0.13568486  0.12976601  1
  O  O292  1  0.38279814  0.12169525  0.63875565  1
  O  O293  1  0.39234398  0.63271002  0.11663895  1
  O  O294  1  0.38182189  0.62337472  0.63366196  1
  O  O295  1  0.88716448  0.11852943  0.12065302  1
  O  O296  1  0.88262099  0.13262555  0.62907892  1
  O  O297  1  0.87922207  0.62279775  0.13378904  1
  O  O298  1  0.88077012  0.63715597  0.62949592  1
  O  O299  1  0.25643790  0.25222878  0.11698832  1
  O  O300  1  0.24293719  0.26547623  0.61967750  1
  O  O301  1  0.24965482  0.76558146  0.12405329  1
  O  O302  1  0.25941246  0.75765708  0.64063594  1
  O  O303  1  0.74445826  0.25798930  0.11385817  1
  O  O304  1  0.76503470  0.25360723  0.62783213  1
  O  O305  1  0.74149571  0.74703031  0.12215164  1
  O  O306  1  0.75954815  0.75782404  0.62273902  1
  O  O307  1  0.25162012  0.25225060  0.39162884  1
  O  O308  1  0.24941004  0.23619858  0.88080247  1
  O  O309  1  0.24790598  0.71287261  0.31802254  1
  O  O310  1  0.24834311  0.74380474  0.88352311  1
  O  O311  1  0.74046634  0.24442875  0.36974482  1
  O  O312  1  0.74129450  0.25065680  0.88048460  1
  O  O313  1  0.74508015  0.74457256  0.38389521  1
  O  O314  1  0.75065207  0.73660604  0.86929229  1
  O  O315  1  0.00560126  0.11966651  0.00278821  1
  O  O316  1  -0.00252830  0.11235043  0.50618985  1
  O  O317  1  -0.01274976  0.61822446  0.00985707  1
  O  O318  1  -0.02759139  0.60291051  0.50690964  1
  O  O319  1  0.50269435  0.11396604  0.00453012  1
  O  O320  1  0.50851924  0.12242534  0.50768636  1
  O  O321  1  0.51156783  0.61021657  -0.00637443  1
  O  O322  1  0.50898560  0.61234032  0.50967361  1
  O  O323  1  0.49582327  0.37828280  0.49870967  1
  O  O324  1  0.50804023  0.38722211  0.99130652  1
  O  O325  1  0.50483811  0.88938855  0.50062139  1
  O  O326  1  0.49886924  0.88580570  0.99643611  1
  O  O327  1  0.99230006  0.38475831  0.49482211  1
  O  O328  1  0.99921500  0.38066573  0.99588045  1
  O  O329  1  0.98855164  0.88475989  0.50093346  1
  O  O330  1  0.99039114  0.88159398  0.99507585  1
  O  O331  1  0.50720769  0.48639899  0.38588332  1
  O  O332  1  0.49475394  0.49386889  0.87930279  1
  O  O333  1  0.50239185  1.00757897  0.38915220  1
  O  O334  1  0.49397100  0.99255769  0.88334477  1
  O  O335  1  0.98961844  0.49523953  0.38137763  1
  O  O336  1  0.99955669  0.49252102  0.88073683  1
  O  O337  1  1.00449115  0.99307979  0.38765236  1
  O  O338  1  0.99209187  0.99514060  0.88208546  1
  O  O339  1  0.00800906  0.00641598  0.11527746  1
  O  O340  1  0.00465560  0.00923404  0.61882703  1
  O  O341  1  -0.00867580  0.51223783  0.11732891  1
  O  O342  1  0.00872563  0.50561284  0.61875956  1
  O  O343  1  0.51266789  0.00516477  0.11639359  1
  O  O344  1  0.50648698  0.01393518  0.62338681  1
  O  O345  1  0.51224495  0.49350981  0.11601302  1
  O  O346  1  0.50446534  0.50761556  0.61934370  1
  O  O347  1  0.24907870  0.36560067  0.23451932  1
  O  O348  1  0.24620945  0.37844812  0.74740338  1
  O  O349  1  0.23665186  0.87499385  0.23846941  1
  O  O350  1  0.24993188  0.87755004  0.73432850  1
  O  O351  1  0.74680445  0.37379243  0.24278367  1
  O  O352  1  0.74374467  0.38348736  0.74928998  1
  O  O353  1  0.74344432  0.88341457  0.24843674  1
  O  O354  1  0.74368183  0.87181980  0.74285236  1
  O  O355  1  0.26034368  0.13306440  0.25291595  1
  O  O356  1  0.25798297  0.13133390  0.75764907  1
  O  O357  1  0.23061265  0.58738881  0.17156739  1
  O  O358  1  0.25898032  0.61679857  0.76074760  1
  O  O359  1  0.75127951  0.11806838  0.25683453  1
  O  O360  1  0.76480614  0.12987240  0.75110305  1
  O  O361  1  0.75386929  0.62234533  0.25951481  1
  O  O362  1  0.75491408  0.61901352  0.75498285  1
  O  O363  1  0.37536412  0.13109215  0.35954771  1
  O  O364  1  0.36803016  0.11795096  0.86699493  1
  O  O365  1  0.39407287  0.58948367  0.36794885  1
  O  O366  1  0.36915883  0.61675708  0.87156407  1
  O  O367  1  0.86091520  0.12995950  0.37325811  1
  O  O368  1  0.87667780  0.11680298  0.86582505  1
  O  O369  1  0.86932610  0.61581810  0.36752796  1
  O  O370  1  0.86959476  0.61872283  0.86850232  1
  O  O371  1  0.13610025  0.38552421  0.12643515  1
  O  O372  1  0.12913387  0.38570702  0.63475731  1
  O  O373  1  0.12896830  0.89117679  0.11651141  1
  O  O374  1  0.10706704  0.88320400  0.63425812  1
  O  O375  1  0.63397005  0.37737204  0.12999954  1
  O  O376  1  0.62654139  0.38102514  0.63144086  1
  O  O377  1  0.63140120  0.88536854  0.13287807  1
  O  O378  1  0.63671331  0.87805339  0.63387160  1
  O  O379  1  0.10684552  0.25853566  0.23957772  1
  O  O380  1  0.12351704  0.26377767  0.75223961  1
  O  O381  1  0.10448613  0.74650707  0.24141869  1
  O  O382  1  0.11137563  0.74713300  0.75514111  1
  O  O383  1  0.62076600  0.25370343  0.25813798  1
  O  O384  1  0.61664106  0.25424707  0.75604401  1
  O  O385  1  0.62451458  0.75977079  0.26178372  1
  O  O386  1  0.61864237  0.76326095  0.75493400  1
  O  O387  1  0.38362386  0.24389520  0.24131657  1
  O  O388  1  0.38822745  0.24186784  0.75694769  1
  O  O389  1  0.39791274  0.75294019  0.24862151  1
  O  O390  1  0.38007820  0.73596820  0.76105302  1
  O  O391  1  0.89010884  0.24955071  0.24607699  1
  O  O392  1  0.87923634  0.24551087  0.74155542  1
  O  O393  1  0.87513072  0.74038702  0.24803448  1
  O  O394  1  0.87984021  0.74373676  0.74673017  1
  O  O395  1  0.38774839  0.48596853  0.49609040  1
  O  O396  1  0.38624984  0.50323262  0.98946275  1
  O  O397  1  0.39653251  1.00928242  0.50881458  1
  O  O398  1  0.38375128  1.00054461  0.99246723  1
  O  O399  1  0.87786432  0.48788074  0.49410674  1
  O  O400  1  0.88839732  0.48803653  0.98714793  1
  O  O401  1  0.88733325  0.98881400  0.50752369  1
  O  O402  1  0.88409336  0.99502003  0.99211351  1
  O  O403  1  0.11388808  0.00967374  0.00152908  1
  O  O404  1  0.10701175  -0.00595347  0.51362334  1
  O  O405  1  0.11169018  0.50209880  0.01369470  1
  O  O406  1  0.11729856  0.50430667  0.50965165  1
  O  O407  1  0.62009997  0.00205727  0.00708911  1
  O  O408  1  0.61725997  0.01246617  0.50391918  1
  O  O409  1  0.62171077  0.50527758  0.00546562  1
  O  O410  1  0.61765665  0.50266408  0.50747301  1
  O  O411  1  0.37005044  0.35903608  0.12287002  1
  O  O412  1  0.36708624  0.38058087  0.61855268  1
  O  O413  1  0.35918345  0.88077301  0.13726635  1
  O  O414  1  0.36624433  0.87888219  0.62253911  1
  O  O415  1  0.86232026  0.38142289  0.11997804  1
  O  O416  1  0.87639817  0.37028743  0.61398263  1
  O  O417  1  0.87073759  0.88092237  0.10548076  1
  O  O418  1  0.86905635  0.87228632  0.62300109  1
  O  O419  1  0.12040219  0.13260955  0.36519065  1
  O  O420  1  0.13131207  0.12440308  0.88062081  1
  O  O421  1  0.09909926  0.63703447  0.38582665  1
  O  O422  1  0.13969165  0.62339893  0.87153571  1
  O  O423  1  0.63251997  0.13286466  0.38241846  1
  O  O424  1  0.62532386  0.13716995  0.87382601  1
  O  O425  1  0.63151891  0.63282208  0.38547130  1
  O  O426  1  0.63417937  0.62585421  0.88154544  1
