# generated using pymatgen
data_V85Zn86O256
_symmetry_space_group_name_H-M   'P 1'
_cell_length_a   16.94168766
_cell_length_b   16.94229413
_cell_length_c   16.94400515
_cell_angle_alpha   90.01539413
_cell_angle_beta   90.06714171
_cell_angle_gamma   89.96070545
_symmetry_Int_Tables_number   1
_chemical_formula_structural   V85Zn86O256
_chemical_formula_sum   'V85 Zn86 O256'
_cell_volume   4863.45102413
_cell_formula_units_Z   1
loop_
 _symmetry_equiv_pos_site_id
 _symmetry_equiv_pos_as_xyz
  1  'x, y, z'
loop_
 _atom_site_type_symbol
 _atom_site_label
 _atom_site_symmetry_multiplicity
 _atom_site_fract_x
 _atom_site_fract_y
 _atom_site_fract_z
 _atom_site_occupancy
  V  V0  1  0.75116873  0.49499800  0.24494104  1
  V  V1  1  0.00120750  0.61928427  0.11784931  1
  V  V2  1  0.62854633  0.37162753  0.24481805  1
  V  V3  1  0.62786880  0.37926334  0.75330571  1
  V  V4  1  0.86448790  0.38476885  0.00127839  1
  V  V5  1  0.00350406  0.49565831  0.49656334  1
  V  V6  1  0.24449350  0.37554949  0.62219606  1
  V  V7  1  0.23862015  0.87892686  0.62963135  1
  V  V8  1  0.11935920  0.01190449  0.12268978  1
  V  V9  1  0.12382245  0.62771204  0.48981372  1
  V  V10  1  0.50071283  0.37292280  0.37584382  1
  V  V11  1  0.00861376  0.76283296  0.74643327  1
  V  V12  1  0.63325203  0.24388683  0.37851837  1
  V  V13  1  0.87495145  0.75349061  0.62401676  1
  V  V14  1  0.38468902  0.87918240  0.00297519  1
  V  V15  1  0.62858756  0.25875900  0.88456230  1
  V  V16  1  0.37445130  0.37930071  -0.00389213  1
  V  V17  1  0.24743211  0.62833306  0.37317470  1
  V  V18  1  0.00418660  0.36016006  0.37529099  1
  V  V19  1  0.87599382  0.49455733  0.37431006  1
  V  V20  1  0.37432829  0.25397578  0.63233076  1
  V  V21  1  0.61894888  0.50277890  0.12827085  1
  V  V22  1  0.37491497  0.12616013  0.75633994  1
  V  V23  1  0.88329377  0.24721218  0.62541983  1
  V  V24  1  0.38271906  0.00234141  0.88155069  1
  V  V25  1  0.87676954  0.75244250  0.12586224  1
  V  V26  1  0.88157199  0.12406585  0.24572844  1
  V  V27  1  0.37136182  0.12561894  0.25402028  1
  V  V28  1  0.12541665  0.36955984  0.25149607  1
  V  V29  1  0.87944167  0.12447564  0.74689012  1
  V  V30  1  0.24526136  0.75340555  0.49514131  1
  V  V31  1  0.23493879  0.12616338  0.88036071  1
  V  V32  1  0.25672373  0.49994214  0.75326045  1
  V  V33  1  0.24682163  0.00421528  0.25461837  1
  V  V34  1  0.49906513  0.74515986  0.24556593  1
  V  V35  1  0.37522345  0.74622434  0.12374544  1
  V  V36  1  0.37460071  0.49972014  0.37281755  1
  V  V37  1  0.74967038  0.74988166  -0.00904013  1
  V  V38  1  0.49618705  0.50975648  0.00467107  1
  V  V39  1  0.00688541  -0.00946587  0.50614554  1
  V  V40  1  0.62530112  0.62879887  0.00589707  1
  V  V41  1  0.87757250  0.62404328  0.25047151  1
  V  V42  1  0.37332465  0.87664168  0.50132831  1
  V  V43  1  0.75294118  0.37043426  0.62454954  1
  V  V44  1  0.12089459  0.87423587  0.26175679  1
  V  V45  1  0.25508357  0.62359367  0.87649778  1
  V  V46  1  0.00345868  0.75304010  0.26256940  1
  V  V47  1  0.49774576  0.87870956  0.37502659  1
  V  V48  1  0.62300289  -0.00087904  0.11926535  1
  V  V49  1  0.12887624  0.75755470  0.87367087  1
  V  V50  1  0.00434466  0.24260271  0.23747765  1
  V  V51  1  0.49802960  0.11974951  0.11713958  1
  V  V52  1  0.37486053  0.37550210  0.49922588  1
  V  V53  1  0.87566916  0.87466969  0.49045696  1
  V  V54  1  0.75211158  0.00093413  0.25120598  1
  V  V55  1  0.88281392  0.62119183  0.75318710  1
  V  V56  1  0.62605700  0.49841351  0.62129085  1
  V  V57  1  0.37318821  0.24957658  0.11874629  1
  V  V58  1  0.62464178  0.75021173  0.37510857  1
  V  V59  1  0.85770987  0.25142167  0.11729911  1
  V  V60  1  0.24966076  0.23598661  0.48830055  1
  V  V61  1  0.88068334  0.87714421  -0.00227019  1
  V  V62  1  0.23429733  0.24882702  -0.00337565  1
  V  V63  1  0.62682534  0.12729897  0.00052942  1
  V  V64  1  0.00235538  0.01660922  0.00104339  1
  V  V65  1  0.00404534  0.62554720  0.62172905  1
  V  V66  1  0.87494204  0.00101143  0.87371891  1
  V  V67  1  0.24618737  0.49983694  0.24586729  1
  V  V68  1  0.62544913  0.87528809  0.24783620  1
  V  V69  1  0.87295520  0.36659305  0.49954395  1
  V  V70  1  0.24415869  0.87506903  0.12327149  1
  V  V71  1  0.75078030  0.13070948  0.87967214  1
  V  V72  1  0.49897687  0.62768233  0.62337032  1
  V  V73  1  0.00726170  0.24832963  0.75942710  1
  V  V74  1  0.50903098  0.86347016  0.86439337  1
  V  V75  1  0.74975213  0.62262616  0.37669871  1
  V  V76  1  0.37568266  0.75089543  0.63311881  1
  V  V77  1  0.49924967  0.24922552  0.24700227  1
  V  V78  1  0.73853278  0.88035319  0.62635295  1
  V  V79  1  0.24007325  -0.00226216  0.74547112  1
  V  V80  1  0.11312342  0.12473201  0.50299828  1
  V  V81  1  0.50052451  0.38910524  0.87661474  1
  V  V82  1  0.12691326  0.37194253  0.76166372  1
  V  V83  1  0.37531890  0.62543799  0.24785737  1
  V  V84  1  0.73523562  -0.00078374  0.74840688  1
  Zn  Zn85  1  0.65698419  0.11520859  0.52660652  1
  Zn  Zn86  1  0.51359246  0.11479302  0.63253790  1
  Zn  Zn87  1  0.24634343  0.74903415  0.00073129  1
  Zn  Zn88  1  0.88493637  -0.00203469  0.37095744  1
  Zn  Zn89  1  0.12129658  0.61856311  -0.00746041  1
  Zn  Zn90  1  0.75631643  0.12487798  0.38191371  1
  Zn  Zn91  1  0.24567870  0.37484118  0.12083403  1
  Zn  Zn92  1  0.74829392  0.75057216  0.49993940  1
  Zn  Zn93  1  0.37642601  0.62457718  0.75409963  1
  Zn  Zn94  1  0.50074000  0.49703087  0.49857633  1
  Zn  Zn95  1  0.49999047  0.25255502  0.75673892  1
  Zn  Zn96  1  0.75050170  0.87555645  0.12243587  1
  Zn  Zn97  1  0.12629804  0.50074127  0.62521930  1
  Zn  Zn98  1  0.37433084  0.00527078  0.37380299  1
  Zn  Zn99  1  0.00475959  0.38450725  0.88951846  1
  Zn  Zn100  1  0.72513051  0.63679326  0.85144051  1
  Zn  Zn101  1  0.11683804  0.49447665  0.11839118  1
  Zn  Zn102  1  0.62245234  0.62133029  0.49617856  1
  Zn  Zn103  1  0.75754499  0.50002781  0.75127374  1
  Zn  Zn104  1  0.51251291  0.00217027  0.50925313  1
  Zn  Zn105  1  0.00851143  0.88096896  0.87089405  1
  Zn  Zn106  1  0.87986606  0.50717707  0.88404829  1
  Zn  Zn107  1  0.18836177  0.18922500  0.18680706  1
  Zn  Zn108  1  0.18892874  0.18414857  0.68428119  1
  Zn  Zn109  1  0.18367245  0.69012635  0.18776335  1
  Zn  Zn110  1  0.18873679  0.68880240  0.68627593  1
  Zn  Zn111  1  0.68750783  0.18246735  0.19239298  1
  Zn  Zn112  1  0.69172239  0.19380465  0.69716274  1
  Zn  Zn113  1  0.69007948  0.68592073  0.18542875  1
  Zn  Zn114  1  0.68787453  0.68997250  0.68122855  1
  Zn  Zn115  1  0.31152735  0.31164128  0.31048843  1
  Zn  Zn116  1  0.30953611  0.31424273  0.81820381  1
  Zn  Zn117  1  0.30925467  0.81522696  0.31150946  1
  Zn  Zn118  1  0.31404253  0.81635194  0.81556118  1
  Zn  Zn119  1  0.81498419  0.30988163  0.30722816  1
  Zn  Zn120  1  0.81531066  0.31423944  0.81546268  1
  Zn  Zn121  1  0.81033009  0.81150359  0.30937177  1
  Zn  Zn122  1  0.81465828  0.81520803  0.80837400  1
  Zn  Zn123  1  0.18744978  0.43618041  0.43512895  1
  Zn  Zn124  1  0.18738281  0.44249167  0.94004427  1
  Zn  Zn125  1  0.18705027  0.94615882  0.44043767  1
  Zn  Zn126  1  0.19017782  0.94040170  0.93982584  1
  Zn  Zn127  1  0.68935527  0.43063499  0.43684725  1
  Zn  Zn128  1  0.69771713  0.44974610  0.93665516  1
  Zn  Zn129  1  0.68885835  0.94212634  0.43996016  1
  Zn  Zn130  1  0.68831796  0.93782751  0.93716327  1
  Zn  Zn131  1  0.30735727  0.06242842  0.06286236  1
  Zn  Zn132  1  0.36059275  0.07150918  0.55815347  1
  Zn  Zn133  1  0.30889100  0.56364212  0.06109310  1
  Zn  Zn134  1  0.31102175  0.56256402  0.56308327  1
  Zn  Zn135  1  0.81371162  0.06436754  0.06455383  1
  Zn  Zn136  1  0.82089218  0.05851959  0.56233258  1
  Zn  Zn137  1  0.80906549  0.56456944  0.06500585  1
  Zn  Zn138  1  0.81539860  0.55869519  0.56220226  1
  Zn  Zn139  1  0.43644589  0.43535067  0.18535348  1
  Zn  Zn140  1  0.44060589  0.43957627  0.68709727  1
  Zn  Zn141  1  0.43670214  0.93704798  0.18712374  1
  Zn  Zn142  1  0.43258333  0.93678830  0.69290898  1
  Zn  Zn143  1  0.93531413  0.43063390  0.18402845  1
  Zn  Zn144  1  0.94631677  0.43620901  0.68792342  1
  Zn  Zn145  1  0.94203690  0.93666078  0.18629197  1
  Zn  Zn146  1  0.93325391  0.94043202  0.68266461  1
  Zn  Zn147  1  0.06683563  0.06614624  0.32497259  1
  Zn  Zn148  1  0.06031220  0.06202403  0.81124581  1
  Zn  Zn149  1  0.06041913  0.55936170  0.30906880  1
  Zn  Zn150  1  0.06699883  0.56052272  0.81481026  1
  Zn  Zn151  1  0.56149673  0.06259171  0.30972453  1
  Zn  Zn152  1  0.55908813  0.06461944  0.81723601  1
  Zn  Zn153  1  0.56109566  0.56179764  0.31238328  1
  Zn  Zn154  1  0.57555347  0.59009021  0.79848121  1
  Zn  Zn155  1  0.44160046  0.19171252  0.43914203  1
  Zn  Zn156  1  0.43974972  0.19253900  0.93667034  1
  Zn  Zn157  1  0.43581693  0.68879706  0.43980675  1
  Zn  Zn158  1  0.43543448  0.68902946  0.93911530  1
  Zn  Zn159  1  0.93612879  0.18147192  0.43612057  1
  Zn  Zn160  1  0.93557613  0.19624994  0.93727930  1
  Zn  Zn161  1  0.93474407  0.68701990  0.43842062  1
  Zn  Zn162  1  0.94193419  0.69487332  0.93503947  1
  Zn  Zn163  1  0.05526835  0.31580508  0.06425596  1
  Zn  Zn164  1  0.06596228  0.30420876  0.56407133  1
  Zn  Zn165  1  0.06258191  0.81138749  0.06276489  1
  Zn  Zn166  1  0.06372482  0.81243007  0.55808707  1
  Zn  Zn167  1  0.56344643  0.31570749  0.06192313  1
  Zn  Zn168  1  0.57683137  0.28489514  0.57728528  1
  Zn  Zn169  1  0.56147176  0.81231652  0.06044015  1
  Zn  Zn170  1  0.55940951  0.81142417  0.55985174  1
  O  O171  1  0.12824673  0.11019717  0.12583267  1
  O  O172  1  0.14354881  0.12303700  0.60106771  1
  O  O173  1  0.10768273  0.62662972  0.12690278  1
  O  O174  1  0.11573917  0.62694144  0.61365956  1
  O  O175  1  0.61821147  0.11967808  0.12119723  1
  O  O176  1  0.61414251  0.17040103  0.61672325  1
  O  O177  1  0.62475666  0.61477574  0.12139694  1
  O  O178  1  0.61859451  0.61560423  0.61593961  1
  O  O179  1  0.37912199  0.37869325  0.37988889  1
  O  O180  1  0.38423985  0.37174402  0.88829338  1
  O  O181  1  0.38419522  0.87158692  0.37995264  1
  O  O182  1  0.37921357  0.88370237  0.88558044  1
  O  O183  1  0.88177055  0.37448978  0.38157644  1
  O  O184  1  0.87267461  0.37836380  0.89017387  1
  O  O185  1  0.86948566  0.87096657  0.38736688  1
  O  O186  1  0.87817048  0.88259044  0.88152842  1
  O  O187  1  0.25323975  -0.00586889  0.35743509  1
  O  O188  1  0.25662370  0.01048223  0.87201991  1
  O  O189  1  0.25464694  0.50487162  0.36339644  1
  O  O190  1  0.24716570  0.50991402  0.86488142  1
  O  O191  1  0.75477438  -0.00287726  0.35943802  1
  O  O192  1  0.75549242  0.00583258  0.86697956  1
  O  O193  1  0.75399624  0.50428551  0.36688491  1
  O  O194  1  0.75956981  0.51924549  0.86804631  1
  O  O195  1  0.25044226  0.49794850  0.13768630  1
  O  O196  1  0.24700722  0.49195982  0.62924268  1
  O  O197  1  0.23863621  0.99398091  0.13087537  1
  O  O198  1  0.25861267  0.99350412  0.64198015  1
  O  O199  1  0.74004814  0.50596239  0.13994527  1
  O  O200  1  0.74636579  0.48830795  0.62447613  1
  O  O201  1  0.74342772  0.99937540  0.13478616  1
  O  O202  1  0.75567468  0.98730590  0.63272423  1
  O  O203  1  0.00585334  0.36618697  0.25557947  1
  O  O204  1  0.01379872  0.36697259  0.74785503  1
  O  O205  1  0.00850186  0.86591270  0.24736247  1
  O  O206  1  -0.00521027  0.86586615  0.74743989  1
  O  O207  1  0.50537557  0.36862512  0.25563808  1
  O  O208  1  0.50816169  0.37934200  0.76084508  1
  O  O209  1  0.50420024  0.86542171  0.25576136  1
  O  O210  1  0.49460377  0.87469324  0.76487974  1
  O  O211  1  0.49366571  0.13054338  0.23667223  1
  O  O212  1  0.48980718  0.13148945  0.75134091  1
  O  O213  1  0.49305530  0.63798100  0.25631768  1
  O  O214  1  0.48874879  0.61306055  0.72835122  1
  O  O215  1  0.99675880  0.13218839  0.25579373  1
  O  O216  1  0.99106454  0.13307751  0.75514619  1
  O  O217  1  0.99409655  0.63226433  0.24382456  1
  O  O218  1  0.99770014  0.63380856  0.73733498  1
  O  O219  1  0.37140368  0.25652298  0.00790888  1
  O  O220  1  0.36722773  0.26249991  0.50752483  1
  O  O221  1  0.37138326  0.75883065  0.01020132  1
  O  O222  1  0.36654054  0.75992715  0.50443984  1
  O  O223  1  0.86830398  0.24935949  0.01414459  1
  O  O224  1  0.88577008  0.25929229  0.50862138  1
  O  O225  1  0.87185803  0.75755455  0.00627642  1
  O  O226  1  0.87380704  0.75502061  0.50910693  1
  O  O227  1  0.13878122  0.23858652  0.50120468  1
  O  O228  1  0.13579868  0.25606148  1.00707190  1
  O  O229  1  0.13293960  0.74052273  0.49969995  1
  O  O230  1  0.12469574  0.74447818  0.99016767  1
  O  O231  1  0.62392199  0.25448505  0.47801374  1
  O  O232  1  0.62434517  0.24699626  0.99166108  1
  O  O233  1  0.62611119  0.74780224  0.48496588  1
  O  O234  1  0.63698207  0.74262833  1.01052694  1
  O  O235  1  0.49237415  0.24452283  0.12775963  1
  O  O236  1  0.47977376  0.26112349  0.63324784  1
  O  O237  1  0.48935400  0.75621989  0.13524365  1
  O  O238  1  0.48964841  0.74121445  0.61805450  1
  O  O239  1  0.99047342  0.24897025  0.13586075  1
  O  O240  1  0.98882220  0.25435883  0.63571119  1
  O  O241  1  0.98998100  0.74238040  0.13145018  1
  O  O242  1  0.99521270  0.74572244  0.62777114  1
  O  O243  1  -0.00364194  0.25805256  0.36630240  1
  O  O244  1  -0.00311725  0.25785392  0.86208378  1
  O  O245  1  -0.00467867  0.74447324  0.36167399  1
  O  O246  1  0.00967685  0.75481114  0.86324010  1
  O  O247  1  0.50679122  0.25492362  0.36615192  1
  O  O248  1  0.51004201  0.26561551  0.87834057  1
  O  O249  1  0.50579468  0.75826349  0.36926352  1
  O  O250  1  0.49606341  0.76451833  0.88002287  1
  O  O251  1  0.27012240  0.13886378  0.50107903  1
  O  O252  1  0.25296447  0.13246720  0.98804463  1
  O  O253  1  0.24206495  0.63139379  0.49452129  1
  O  O254  1  0.24777448  0.62877056  0.99047870  1
  O  O255  1  0.76345667  0.12709330  0.49533396  1
  O  O256  1  0.74501067  0.11860403  0.98679385  1
  O  O257  1  0.75156920  0.62439181  0.48695268  1
  O  O258  1  0.74151549  0.63580789  1.00477335  1
  O  O259  1  0.25868459  0.36728891  -0.00191534  1
  O  O260  1  0.25356891  0.36920548  0.50550271  1
  O  O261  1  0.25712407  0.87473845  0.01262466  1
  O  O262  1  0.25156328  0.86875522  0.50539935  1
  O  O263  1  0.76279835  0.37642050  0.00046372  1
  O  O264  1  0.76357850  0.37512922  0.50727667  1
  O  O265  1  0.76189295  0.87000457  0.00156091  1
  O  O266  1  0.75780355  0.87428069  0.50960388  1
  O  O267  1  0.13202927  0.49242494  0.24597423  1
  O  O268  1  0.13621460  0.48976846  0.74487864  1
  O  O269  1  0.12794761  0.99643135  0.24089565  1
  O  O270  1  0.14066532  1.00295360  0.75426371  1
  O  O271  1  0.62972553  0.49330181  0.24675712  1
  O  O272  1  0.62931529  0.49686702  0.73527984  1
  O  O273  1  0.63246185  0.99688427  0.24091883  1
  O  O274  1  0.63633409  1.01138892  0.75000864  1
  O  O275  1  0.36564704  0.00862245  0.24619181  1
  O  O276  1  0.36467811  0.01030177  0.76367716  1
  O  O277  1  0.36838358  0.50464061  0.25302649  1
  O  O278  1  0.36025504  0.49813366  0.74477366  1
  O  O279  1  0.87122778  0.00560114  0.24715950  1
  O  O280  1  0.87038810  0.00898677  0.75527280  1
  O  O281  1  0.86733161  0.50037147  0.25419995  1
  O  O282  1  0.88197464  0.51506483  0.74157222  1
  O  O283  1  0.11642421  0.37923704  0.36252423  1
  O  O284  1  0.12826969  0.37400641  0.86421981  1
  O  O285  1  0.13234221  0.88079438  0.36043657  1
  O  O286  1  0.12770604  0.86337576  0.87959296  1
  O  O287  1  0.62052659  0.36796941  0.36378416  1
  O  O288  1  0.62233403  0.37540185  0.87581170  1
  O  O289  1  0.61932033  0.86745326  0.36857622  1
  O  O290  1  0.60729570  0.88154281  0.88141273  1
  O  O291  1  0.38106992  0.13067583  0.12715146  1
  O  O292  1  0.36146638  0.14054551  0.64827743  1
  O  O293  1  0.36772499  0.63895264  0.13178988  1
  O  O294  1  0.37957194  0.63495355  0.62011111  1
  O  O295  1  0.87123860  0.13594844  0.13548334  1
  O  O296  1  0.87025627  0.13383402  0.63937316  1
  O  O297  1  0.88220957  0.63183935  0.13162432  1
  O  O298  1  0.88936679  0.63264443  0.62230919  1
  O  O299  1  0.25825528  0.25060801  0.11528414  1
  O  O300  1  0.25866236  0.26013813  0.61878528  1
  O  O301  1  0.25579949  0.75872415  0.12620281  1
  O  O302  1  0.25629604  0.75464232  0.61441910  1
  O  O303  1  0.75981436  0.24915804  0.13236976  1
  O  O304  1  0.76616749  0.26428678  0.63446868  1
  O  O305  1  0.76444174  0.75059104  0.12073953  1
  O  O306  1  0.75771680  0.75805107  0.62203557  1
  O  O307  1  0.25591224  0.25218789  0.39009839  1
  O  O308  1  0.25249690  0.23528611  0.88252741  1
  O  O309  1  0.25481798  0.74490376  0.38673121  1
  O  O310  1  0.24418788  0.74579007  0.87497197  1
  O  O311  1  0.73612607  0.24947363  0.36533091  1
  O  O312  1  0.74211454  0.24096383  0.87040377  1
  O  O313  1  0.74164931  0.74058913  0.37331277  1
  O  O314  1  0.76142437  0.74848791  0.88811111  1
  O  O315  1  -0.00613542  0.11548161  -0.00469604  1
  O  O316  1  0.00782041  0.12087644  0.50378037  1
  O  O317  1  -0.00431646  0.63061943  0.01533155  1
  O  O318  1  0.00668083  0.62018315  0.50196498  1
  O  O319  1  0.50610401  0.12975717  0.01110697  1
  O  O320  1  0.46828240  0.11589548  0.51511484  1
  O  O321  1  0.49906717  0.61439022  0.00408975  1
  O  O322  1  0.49960270  0.61898119  0.50677258  1
  O  O323  1  0.48874143  0.37306511  0.49159034  1
  O  O324  1  0.49378327  0.38563621  0.99732115  1
  O  O325  1  0.49106514  0.87775719  0.49176241  1
  O  O326  1  0.48724010  0.87592895  0.99916864  1
  O  O327  1  0.99954472  0.37513963  0.49216846  1
  O  O328  1  0.97720052  0.36365923  1.00049651  1
  O  O329  1  0.99330189  0.88212760  0.50186481  1
  O  O330  1  0.98919873  0.87974111  0.99922309  1
  O  O331  1  0.49295470  0.49172062  0.37525516  1
  O  O332  1  0.50378358  0.49176004  0.88666787  1
  O  O333  1  0.49676389  0.98706898  0.36973891  1
  O  O334  1  0.48635427  0.99608606  0.87555740  1
  O  O335  1  0.99310422  0.48855578  0.37700282  1
  O  O336  1  0.99323524  0.49610410  0.86579854  1
  O  O337  1  0.99835114  1.00481568  0.39514046  1
  O  O338  1  0.99432458  0.99852777  0.88269982  1
  O  O339  1  0.01206087  -0.00095831  0.11801263  1
  O  O340  1  -0.01095002  0.00268540  0.60597180  1
  O  O341  1  -0.00390028  0.51648773  0.13487350  1
  O  O342  1  0.00436126  0.50888486  0.61495051  1
  O  O343  1  0.50926557  0.00864202  0.13077772  1
  O  O344  1  0.47262776  0.00796131  0.61909276  1
  O  O345  1  0.50967962  0.49745106  0.12120173  1
  O  O346  1  0.50956191  0.50202806  0.61817991  1
  O  O347  1  0.24244548  0.38135927  0.24898320  1
  O  O348  1  0.24513746  0.37886277  0.74354397  1
  O  O349  1  0.24450174  0.88180511  0.23901680  1
  O  O350  1  0.25524091  0.88902452  0.74556597  1
  O  O351  1  0.74154534  0.38420587  0.25513888  1
  O  O352  1  0.74681516  0.37982560  0.74386171  1
  O  O353  1  0.74258233  0.88025560  0.24490360  1
  O  O354  1  0.75330273  0.88273010  0.73720543  1
  O  O355  1  0.25905726  0.11706612  0.24203833  1
  O  O356  1  0.25309631  0.11917395  0.76332034  1
  O  O357  1  0.25213123  0.61935469  0.25411804  1
  O  O358  1  0.25131206  0.61579812  0.75343807  1
  O  O359  1  0.75936030  0.11542823  0.25315644  1
  O  O360  1  0.75676042  0.11930762  0.75917134  1
  O  O361  1  0.75617218  0.61852735  0.25996710  1
  O  O362  1  0.77973821  0.62352877  0.73239376  1
  O  O363  1  0.38338162  0.12702421  0.35636216  1
  O  O364  1  0.37207479  0.12150372  0.87103002  1
  O  O365  1  0.36822409  0.62023870  0.36870466  1
  O  O366  1  0.36075349  0.63256536  0.87174683  1
  O  O367  1  0.87463128  0.12423251  0.35837512  1
  O  O368  1  0.86693176  0.12359685  0.86794566  1
  O  O369  1  0.86860885  0.61678492  0.36987953  1
  O  O370  1  0.88371091  0.63146057  0.85670060  1
  O  O371  1  0.12439209  0.37611991  0.13804829  1
  O  O372  1  0.13623079  0.37416386  0.62752797  1
  O  O373  1  0.13126120  0.88090821  0.13099104  1
  O  O374  1  0.13944339  0.86937917  0.62344557  1
  O  O375  1  0.62047717  0.38217356  0.13866398  1
  O  O376  1  0.63512301  0.37492125  0.62976586  1
  O  O377  1  0.62508151  0.88300741  0.12974995  1
  O  O378  1  0.63988418  0.86725145  0.62022873  1
  O  O379  1  0.11800512  0.25612818  0.24708219  1
  O  O380  1  0.11880255  0.25683878  0.74255409  1
  O  O381  1  0.11516946  0.76064940  0.24739239  1
  O  O382  1  0.11758145  0.74792635  0.75567910  1
  O  O383  1  0.61929499  0.25659619  0.25302182  1
  O  O384  1  0.62347726  0.26230227  0.76646111  1
  O  O385  1  0.61876148  0.75196851  0.25634345  1
  O  O386  1  0.64267027  0.68196207  0.77969227  1
  O  O387  1  0.37624815  0.24534191  0.23678705  1
  O  O388  1  0.37331168  0.24738284  0.74881680  1
  O  O389  1  0.38092669  0.74743883  0.24420914  1
  O  O390  1  0.36709567  0.74906918  0.73558706  1
  O  O391  1  0.88275161  0.24393250  0.24089256  1
  O  O392  1  0.88321471  0.24434290  0.74556764  1
  O  O393  1  0.88052101  0.74587900  0.24286556  1
  O  O394  1  0.88488460  0.74352893  0.73869492  1
  O  O395  1  0.37073977  0.48838265  0.49275755  1
  O  O396  1  0.38313058  0.49104533  1.00967415  1
  O  O397  1  0.36112997  0.98127102  0.48893553  1
  O  O398  1  0.36778007  0.99207520  0.99397569  1
  O  O399  1  0.88332336  0.48760406  0.49432232  1
  O  O400  1  0.87156241  0.48981876  1.00614037  1
  O  O401  1  0.88321801  0.98816317  0.49490927  1
  O  O402  1  0.88146740  0.99462013  0.99674849  1
  O  O403  1  0.11701423  -0.00458831  0.01337979  1
  O  O404  1  0.11338414  0.00374640  0.50617308  1
  O  O405  1  0.12561916  0.50497825  0.00673749  1
  O  O406  1  0.12075506  0.50794502  0.50017632  1
  O  O407  1  0.63100588  0.00665328  0.01372961  1
  O  O408  1  0.62337050  0.01243563  0.49483648  1
  O  O409  1  0.61870509  0.50082006  0.01553006  1
  O  O410  1  0.62625082  0.49572419  0.50957492  1
  O  O411  1  0.37299790  0.36556421  0.11564046  1
  O  O412  1  0.36422156  0.37453530  0.61802063  1
  O  O413  1  0.36727297  0.86872583  0.12155915  1
  O  O414  1  0.36600693  0.86658897  0.61736609  1
  O  O415  1  0.87277231  0.36117397  0.11822101  1
  O  O416  1  0.87304444  0.37088030  0.61806098  1
  O  O417  1  0.87552609  0.86779803  0.11745278  1
  O  O418  1  0.86785881  0.86580791  0.61700027  1
  O  O419  1  0.13734150  0.11475168  0.40220460  1
  O  O420  1  0.13672234  0.12193248  0.87754087  1
  O  O421  1  0.12900760  0.61959560  0.38305847  1
  O  O422  1  0.13625975  0.63670461  0.87182542  1
  O  O423  1  0.62585279  0.13954855  0.36610995  1
  O  O424  1  0.62955398  0.13488553  0.88183093  1
  O  O425  1  0.63226920  0.63060486  0.37431382  1
  O  O426  1  0.61814200  0.60633953  0.90588783  1
