# generated using pymatgen
data_V85Zn86O256
_symmetry_space_group_name_H-M   'P 1'
_cell_length_a   16.96204092
_cell_length_b   16.93631521
_cell_length_c   16.96075504
_cell_angle_alpha   90.00328925
_cell_angle_beta   89.93605448
_cell_angle_gamma   89.99793882
_symmetry_Int_Tables_number   1
_chemical_formula_structural   V85Zn86O256
_chemical_formula_sum   'V85 Zn86 O256'
_cell_volume   4872.38889755
_cell_formula_units_Z   1
loop_
 _symmetry_equiv_pos_site_id
 _symmetry_equiv_pos_as_xyz
  1  'x, y, z'
loop_
 _atom_site_type_symbol
 _atom_site_label
 _atom_site_symmetry_multiplicity
 _atom_site_fract_x
 _atom_site_fract_y
 _atom_site_fract_z
 _atom_site_occupancy
  V  V0  1  0.62655632  0.75853183  0.86978120  1
  V  V1  1  0.14375653  0.83030979  0.71767165  1
  V  V2  1  -0.00052540  0.74728618  0.24862439  1
  V  V3  1  0.37761018  0.63210701  0.24868379  1
  V  V4  1  0.50312656  0.62546793  0.61470587  1
  V  V5  1  -0.00194534  0.50073164  0.01734315  1
  V  V6  1  0.50307904  0.37722168  0.88088758  1
  V  V7  1  0.87159795  0.24285361  0.12934095  1
  V  V8  1  0.87097646  0.01175924  0.37213994  1
  V  V9  1  0.74885998  0.87295561  0.13845367  1
  V  V10  1  0.50133000  0.37845393  0.37703155  1
  V  V11  1  0.12900675  0.75226116  0.37583743  1
  V  V12  1  0.37497270  0.12710598  0.25226270  1
  V  V13  1  0.74316057  0.37124716  0.62827838  1
  V  V14  1  0.50370336  0.62746704  0.12374701  1
  V  V15  1  0.87686463  0.74793016  0.12699415  1
  V  V16  1  0.49929589  0.75126015  0.74655259  1
  V  V17  1  0.87700623  0.62266855  0.24796919  1
  V  V18  1  0.37422435  0.25795074  0.62141978  1
  V  V19  1  0.37094454  0.13309363  0.74575145  1
  V  V20  1  0.12878735  0.12516955  0.49198821  1
  V  V21  1  0.12196419  0.62104599  0.49875359  1
  V  V22  1  0.74927063  0.24754242  0.00039284  1
  V  V23  1  0.11701483  0.12364214  0.00161016  1
  V  V24  1  0.00032424  -0.00005050  0.49935244  1
  V  V25  1  0.62545691  0.12171261  0.49403595  1
  V  V26  1  0.75010729  0.62571892  0.87610456  1
  V  V27  1  -0.00477466  0.87757032  0.37728853  1
  V  V28  1  0.00250712  0.25997921  0.74806247  1
  V  V29  1  0.37102477  0.00033037  0.87281211  1
  V  V30  1  0.74596361  0.74657285  0.50349823  1
  V  V31  1  0.88039379  0.00155598  0.87772198  1
  V  V32  1  0.50096043  0.24883607  0.24904083  1
  V  V33  1  0.73904668  0.49450507  0.75233181  1
  V  V34  1  0.62707128  -0.00242356  0.62813473  1
  V  V35  1  0.74948490  0.24254235  0.49671639  1
  V  V36  1  0.37793312  0.25903752  0.12114496  1
  V  V37  1  0.28957570  -0.05571043  0.69772780  1
  V  V38  1  0.38008998  0.50449407  0.37116764  1
  V  V39  1  0.74100870  0.62310195  0.38033515  1
  V  V40  1  0.25136614  0.88008172  0.12723333  1
  V  V41  1  0.25134653  0.62977029  0.37568573  1
  V  V42  1  0.00148053  0.49438673  0.50334978  1
  V  V43  1  0.87191293  0.12463304  0.75343118  1
  V  V44  1  0.87428961  0.62295707  0.74897340  1
  V  V45  1  -0.00053680  0.12760639  0.62569129  1
  V  V46  1  0.62788697  0.49500690  0.12172387  1
  V  V47  1  0.37834462  0.39190963  0.49974694  1
  V  V48  1  0.63163515  0.24748357  0.86680768  1
  V  V49  1  0.25760413  0.25359400  -0.00207826  1
  V  V50  1  0.86842988  0.37380901  0.00683173  1
  V  V51  1  0.75060147  0.49427594  0.24622250  1
  V  V52  1  -0.00866527  0.24623159  0.26050143  1
  V  V53  1  0.37533002  0.87638500  -0.00352945  1
  V  V54  1  0.50489000  0.87558373  0.36993573  1
  V  V55  1  0.74992909  0.75122749  0.00160655  1
  V  V56  1  0.62711396  0.24559111  0.37268179  1
  V  V57  1  0.12610250  0.25613896  0.87027377  1
  V  V58  1  0.87503973  0.37157837  0.49661011  1
  V  V59  1  -0.00277655  0.62789778  0.62210836  1
  V  V60  1  0.74605984  -0.00062087  0.75830248  1
  V  V61  1  0.62374444  -0.00376328  0.12780092  1
  V  V62  1  0.23705449  0.40128076  0.61674737  1
  V  V63  1  0.12306424  0.61681126  0.02336116  1
  V  V64  1  0.75243920  0.87545422  0.63018611  1
  V  V65  1  0.87608037  0.49745282  0.87618295  1
  V  V66  1  0.87746248  0.49705642  0.37622072  1
  V  V67  1  0.62724252  0.37404575  0.24713943  1
  V  V68  1  0.38013202  0.61143686  0.76430311  1
  V  V69  1  0.88369866  0.87724958  0.00188014  1
  V  V70  1  0.25348857  0.25161475  0.49405957  1
  V  V71  1  0.74904641  0.01627373  0.25535048  1
  V  V72  1  0.24644938  0.01548994  0.25062268  1
  V  V73  1  0.12264369  0.26137124  0.37664211  1
  V  V74  1  0.01032997  0.87738998  0.87452519  1
  V  V75  1  0.62833424  0.12102322  -0.00684955  1
  V  V76  1  0.36874815  -0.00276370  0.37751192  1
  V  V77  1  0.12396111  0.00629267  0.63896608  1
  V  V78  1  0.12560663  0.87993187  0.25091443  1
  V  V79  1  0.50283498  0.26017560  0.74682357  1
  V  V80  1  0.25007648  0.74410337  0.00163495  1
  V  V81  1  0.49583675  -0.00575411  0.50071681  1
  V  V82  1  0.12124975  0.73729855  0.88730401  1
  V  V83  1  0.62399731  0.50238677  0.60837662  1
  V  V84  1  0.25004328  0.12683969  0.86963690  1
  Zn  Zn85  1  0.32788073  0.81705149  0.54638948  1
  Zn  Zn86  1  0.11697976  0.38101540  0.23948059  1
  Zn  Zn87  1  0.11762285  0.00113721  0.11861461  1
  Zn  Zn88  1  0.87512357  0.75182638  0.62543284  1
  Zn  Zn89  1  0.87531892  0.87480497  0.50187639  1
  Zn  Zn90  1  0.38014725  0.75488828  0.12581046  1
  Zn  Zn91  1  -0.01192848  0.11638573  0.12766219  1
  Zn  Zn92  1  0.87235586  0.25038134  0.62687096  1
  Zn  Zn93  1  0.23898616  0.50003201  0.24353410  1
  Zn  Zn94  1  0.62510375  0.75060154  0.37555533  1
  Zn  Zn95  1  0.50474327  0.87829840  0.87008261  1
  Zn  Zn96  1  0.49992028  0.49990496  -0.00149390  1
  Zn  Zn97  1  0.24258066  0.38616163  0.12266936  1
  Zn  Zn98  1  0.51308429  0.75769965  0.24452157  1
  Zn  Zn99  1  0.24680862  0.49766670  0.76609065  1
  Zn  Zn100  1  0.34093339  0.43392671  -0.05731761  1
  Zn  Zn101  1  0.62695220  0.62438485  -0.00013337  1
  Zn  Zn102  1  0.49955471  0.12243922  0.12128468  1
  Zn  Zn103  1  0.50002596  0.00041570  -0.00242833  1
  Zn  Zn104  1  -0.00671989  0.74657076  0.75752762  1
  Zn  Zn105  1  -0.00258348  0.37685456  0.87285312  1
  Zn  Zn106  1  0.50012422  0.12845067  0.62320954  1
  Zn  Zn107  1  0.16912885  0.22302703  0.16926639  1
  Zn  Zn108  1  0.18902701  0.19634379  0.68153180  1
  Zn  Zn109  1  0.19164753  0.69036809  0.19001336  1
  Zn  Zn110  1  0.17550566  0.64903088  0.70163178  1
  Zn  Zn111  1  0.68590046  0.18607572  0.18009528  1
  Zn  Zn112  1  0.68734313  0.18175014  0.68515864  1
  Zn  Zn113  1  0.68553702  0.68519177  0.19379162  1
  Zn  Zn114  1  0.68600104  0.68535557  0.68812837  1
  Zn  Zn115  1  0.30869456  0.31565359  0.30904730  1
  Zn  Zn116  1  0.30405694  0.33139023  0.80903081  1
  Zn  Zn117  1  0.31508167  0.81677227  0.31478523  1
  Zn  Zn118  1  0.31554098  0.79697024  0.81925879  1
  Zn  Zn119  1  0.81148986  0.30961478  0.31411841  1
  Zn  Zn120  1  0.81172762  0.31171009  0.81380365  1
  Zn  Zn121  1  0.81228404  0.81123133  0.31777210  1
  Zn  Zn122  1  0.81402503  0.81534483  0.81302365  1
  Zn  Zn123  1  0.19102106  0.44290660  0.42914395  1
  Zn  Zn124  1  0.17559264  0.43499627  0.94140996  1
  Zn  Zn125  1  0.18978861  0.94202954  0.43806539  1
  Zn  Zn126  1  0.19157939  0.93924342  0.93487784  1
  Zn  Zn127  1  0.69174144  0.43212554  0.43465905  1
  Zn  Zn128  1  0.68459225  0.43199173  0.93629527  1
  Zn  Zn129  1  0.68898770  0.93549662  0.43990022  1
  Zn  Zn130  1  0.69280821  0.93526611  0.94123699  1
  Zn  Zn131  1  0.30981001  0.06868027  0.06246543  1
  Zn  Zn132  1  0.31389477  0.06992143  0.55726877  1
  Zn  Zn133  1  0.31374245  0.56353843  0.06849337  1
  Zn  Zn134  1  0.32171236  0.60257369  0.55808497  1
  Zn  Zn135  1  0.80771359  0.06027981  0.06006291  1
  Zn  Zn136  1  0.81467433  0.06080010  0.56298501  1
  Zn  Zn137  1  0.81252405  0.56271470  0.06556099  1
  Zn  Zn138  1  0.81014655  0.56070992  0.56286161  1
  Zn  Zn139  1  0.43746086  0.44205674  0.18712777  1
  Zn  Zn140  1  0.43974582  0.44246824  0.68717566  1
  Zn  Zn141  1  0.43626257  0.94053304  0.18816142  1
  Zn  Zn142  1  0.45295704  0.93383478  0.68699684  1
  Zn  Zn143  1  0.93347328  0.42501560  0.19051687  1
  Zn  Zn144  1  0.93117710  0.43909682  0.68231431  1
  Zn  Zn145  1  0.93626364  0.94169597  0.18998367  1
  Zn  Zn146  1  0.94462440  0.93248255  0.69262146  1
  Zn  Zn147  1  0.05952149  0.06749319  0.30937323  1
  Zn  Zn148  1  0.05893406  0.06900101  0.81562787  1
  Zn  Zn149  1  0.05911002  0.56127093  0.31229606  1
  Zn  Zn150  1  0.06252146  0.55789869  0.81807888  1
  Zn  Zn151  1  0.56238232  0.05938849  0.31116639  1
  Zn  Zn152  1  0.55762321  0.06791368  0.81095483  1
  Zn  Zn153  1  0.56234148  0.56427022  0.30921181  1
  Zn  Zn154  1  0.56483757  0.56630439  0.81295068  1
  Zn  Zn155  1  0.43784940  0.18586516  0.43527951  1
  Zn  Zn156  1  0.44231907  0.18834859  0.93437176  1
  Zn  Zn157  1  0.43391014  0.69506759  0.44456864  1
  Zn  Zn158  1  0.44110565  0.68740040  0.93914726  1
  Zn  Zn159  1  0.93704781  0.18621912  0.43903822  1
  Zn  Zn160  1  0.93662285  0.18893430  0.93466208  1
  Zn  Zn161  1  0.93190155  0.68886421  0.43667868  1
  Zn  Zn162  1  0.94098463  0.68298243  0.94390247  1
  Zn  Zn163  1  0.05354226  0.30827597  0.06039070  1
  Zn  Zn164  1  0.06394980  0.31438993  0.56194766  1
  Zn  Zn165  1  0.06277620  0.81519294  0.06668450  1
  Zn  Zn166  1  0.15465865  0.81276278  0.55389156  1
  Zn  Zn167  1  0.56543298  0.31021088  0.06167252  1
  Zn  Zn168  1  0.56302993  0.31528532  0.56057104  1
  Zn  Zn169  1  0.56383520  0.81416357  0.05960005  1
  Zn  Zn170  1  0.56579605  0.81383498  0.56209698  1
  O  O171  1  0.12676970  0.13039526  0.10718041  1
  O  O172  1  0.11714757  0.12413415  0.61726565  1
  O  O173  1  0.12103630  0.62975341  0.12147042  1
  O  O174  1  0.11340069  0.62402744  0.60349339  1
  O  O175  1  0.62459036  0.11109412  0.11546929  1
  O  O176  1  0.62396604  0.11449467  0.61279540  1
  O  O177  1  0.62087622  0.61451496  0.12527936  1
  O  O178  1  0.61997301  0.61021835  0.62859338  1
  O  O179  1  0.38200125  0.38448967  0.37733371  1
  O  O180  1  0.40012340  0.36046666  0.87267984  1
  O  O181  1  0.38286382  0.88946142  0.37611869  1
  O  O182  1  0.37305202  0.88194419  0.88044091  1
  O  O183  1  0.86718381  0.38166356  0.38806114  1
  O  O184  1  0.87461677  0.38593918  0.88100655  1
  O  O185  1  0.88179655  0.88369709  0.37635312  1
  O  O186  1  0.88764973  0.87955054  0.88089508  1
  O  O187  1  0.25807683  -0.00098984  0.36515664  1
  O  O188  1  0.26235987  0.00813875  0.87282517  1
  O  O189  1  0.26572686  0.50943820  0.36946217  1
  O  O190  1  0.25902309  0.44177253  0.86571884  1
  O  O191  1  0.75343212  -0.00537117  0.36207750  1
  O  O192  1  0.75902623  -0.00926564  0.86255076  1
  O  O193  1  0.75898500  0.50450518  0.37094122  1
  O  O194  1  0.75456082  0.50291530  0.86968054  1
  O  O195  1  0.24656128  0.50001769  0.12888515  1
  O  O196  1  0.25667042  0.49944086  0.60936493  1
  O  O197  1  0.24644949  0.99564839  0.13208702  1
  O  O198  1  0.24241748  1.00723757  0.62735560  1
  O  O199  1  0.74219427  0.50302737  0.13523310  1
  O  O200  1  0.74104704  0.49357371  0.63130463  1
  O  O201  1  0.74623323  0.99294570  0.13645540  1
  O  O202  1  0.74613318  0.99468782  0.63370742  1
  O  O203  1  0.00025812  0.35300839  0.24714738  1
  O  O204  1  -0.00953061  0.36343059  0.74685968  1
  O  O205  1  0.00422947  0.87063007  0.26069718  1
  O  O206  1  0.01832616  0.86638352  0.75919153  1
  O  O207  1  0.50468961  0.36945914  0.25929826  1
  O  O208  1  0.50145323  0.36396353  0.75409015  1
  O  O209  1  0.49454916  0.87650269  0.26593050  1
  O  O210  1  0.50458052  0.85738691  0.75108845  1
  O  O211  1  0.49404353  0.13145279  0.24829322  1
  O  O212  1  0.48617239  0.13599733  0.74643798  1
  O  O213  1  0.49510254  0.62933903  0.24030769  1
  O  O214  1  0.49807026  0.63239688  0.74630121  1
  O  O215  1  0.99758222  0.13998617  0.24734731  1
  O  O216  1  0.99078983  0.13276149  0.74212156  1
  O  O217  1  0.98885506  0.63539156  0.25848839  1
  O  O218  1  0.98499689  0.61779903  0.74421093  1
  O  O219  1  0.37074936  0.24249842  0.00776841  1
  O  O220  1  0.36941099  0.25824934  0.49972803  1
  O  O221  1  0.36627338  0.75725860  -0.00041350  1
  O  O222  1  0.35977264  0.71581847  0.52506991  1
  O  O223  1  0.86820336  0.25494412  0.00253065  1
  O  O224  1  0.86670473  0.25414300  0.50205205  1
  O  O225  1  0.87093327  0.75529993  0.00684193  1
  O  O226  1  0.86320454  0.75430679  0.50332885  1
  O  O227  1  0.13059088  0.24454571  0.49514806  1
  O  O228  1  0.13300104  0.24019761  0.98860399  1
  O  O229  1  0.11108365  0.73761210  0.48096332  1
  O  O230  1  0.12893941  0.74087783  1.00548117  1
  O  O231  1  0.63008477  0.24138403  0.49547524  1
  O  O232  1  0.63244675  0.24224885  0.99341196  1
  O  O233  1  0.64037377  0.75641246  0.49501558  1
  O  O234  1  0.63665366  0.74928817  0.99425613  1
  O  O235  1  0.49575466  0.24658294  0.13075418  1
  O  O236  1  0.49512427  0.25148597  0.62972000  1
  O  O237  1  0.50097498  0.74483762  0.12644532  1
  O  O238  1  0.51404865  0.73801478  0.63675304  1
  O  O239  1  0.98601883  0.24068737  0.13300072  1
  O  O240  1  0.99870585  0.24343106  0.62970538  1
  O  O241  1  0.99316041  0.75876504  0.14150745  1
  O  O242  1  0.99547189  0.73133763  0.63135056  1
  O  O243  1  0.00294223  0.24729278  0.36829622  1
  O  O244  1  0.00596696  0.24972855  0.86364182  1
  O  O245  1  0.00179146  0.75798969  0.36575424  1
  O  O246  1  0.00498303  0.75730161  0.88089731  1
  O  O247  1  0.50654755  0.25668415  0.36826460  1
  O  O248  1  0.51121425  0.25422528  0.86546134  1
  O  O249  1  0.49658351  0.76806978  0.38221242  1
  O  O250  1  0.51056179  0.75136641  0.86666418  1
  O  O251  1  0.24029111  0.13804094  0.50281420  1
  O  O252  1  0.24610694  0.13625780  0.98857634  1
  O  O253  1  0.23596187  0.61719592  0.48319102  1
  O  O254  1  0.23495897  0.63333221  1.00932258  1
  O  O255  1  0.74316681  0.13488201  0.50647386  1
  O  O256  1  0.73721307  0.13054256  0.99874699  1
  O  O257  1  0.75582626  0.63264487  0.49229981  1
  O  O258  1  0.75392625  0.63761205  0.99581981  1
  O  O259  1  0.25104546  0.36119562  0.00305155  1
  O  O260  1  0.26113293  0.37457834  0.50253836  1
  O  O261  1  0.25880357  0.87180015  0.00748066  1
  O  O262  1  0.23973800  0.86999223  0.50646356  1
  O  O263  1  0.76126592  0.36661282  -0.00523148  1
  O  O264  1  0.75354253  0.36222415  0.50626402  1
  O  O265  1  0.76228358  0.86478368  0.00677059  1
  O  O266  1  0.75289535  0.87144444  0.51371704  1
  O  O267  1  0.12542411  0.49078660  0.26478784  1
  O  O268  1  0.14633931  0.54676052  0.74876644  1
  O  O269  1  0.13293625  0.99704896  0.25218542  1
  O  O270  1  0.12660119  1.01230482  0.73921614  1
  O  O271  1  0.63360950  0.49479503  0.24442534  1
  O  O272  1  0.63776683  0.50199454  0.74571009  1
  O  O273  1  0.63731088  1.00179013  0.24212576  1
  O  O274  1  0.63471073  1.01119090  0.74217324  1
  O  O275  1  0.36763020  0.00727340  0.25623231  1
  O  O276  1  0.36957309  0.00521443  0.74911636  1
  O  O277  1  0.37709604  0.51619592  0.25555805  1
  O  O278  1  0.37587695  0.50679039  0.75667027  1
  O  O279  1  0.85776464  -0.00293865  0.25718923  1
  O  O280  1  0.87174510  0.00421514  0.75906470  1
  O  O281  1  0.87066832  0.50184570  0.25624540  1
  O  O282  1  0.86609670  0.50367548  0.75835237  1
  O  O283  1  0.12280458  0.36218609  0.38278270  1
  O  O284  1  0.11368801  0.35930966  0.87872661  1
  O  O285  1  0.11838196  0.86998398  0.36917442  1
  O  O286  1  0.11458754  0.86490507  0.89025466  1
  O  O287  1  0.61792774  0.36994170  0.36881378  1
  O  O288  1  0.61883497  0.35744067  0.87417520  1
  O  O289  1  0.60737547  0.87989548  0.37952026  1
  O  O290  1  0.62553794  0.86304104  0.88114162  1
  O  O291  1  0.37944662  0.12847194  0.13705399  1
  O  O292  1  0.37596084  0.13735117  0.62966475  1
  O  O293  1  0.38552931  0.63246242  0.13395806  1
  O  O294  1  0.40241428  0.60879275  0.63867881  1
  O  O295  1  0.86943565  0.13766205  0.11612912  1
  O  O296  1  0.88532499  0.12580066  0.63149850  1
  O  O297  1  0.86956340  0.63082480  0.14049095  1
  O  O298  1  0.87709813  0.62389696  0.63387732  1
  O  O299  1  0.26630967  0.24163290  0.11133967  1
  O  O300  1  0.25529970  0.26164289  0.60970028  1
  O  O301  1  0.25315344  0.76115909  0.11769223  1
  O  O302  1  0.19590733  0.76206935  0.65164864  1
  O  O303  1  0.75239180  0.24797503  0.10947411  1
  O  O304  1  0.74834049  0.25645405  0.61870610  1
  O  O305  1  0.75478434  0.75485756  0.11979936  1
  O  O306  1  0.74908868  0.75751686  0.62230144  1
  O  O307  1  0.24193382  0.25506702  0.38693008  1
  O  O308  1  0.24410094  0.24906312  0.87608391  1
  O  O309  1  0.24008212  0.74491081  0.36959968  1
  O  O310  1  0.23749788  0.75432695  0.89360533  1
  O  O311  1  0.74026410  0.25273240  0.38521746  1
  O  O312  1  0.74342050  0.25101252  0.88457072  1
  O  O313  1  0.75152729  0.73987389  0.38436623  1
  O  O314  1  0.74690484  0.74778521  0.88198640  1
  O  O315  1  0.01475341  0.13040355  -0.00230092  1
  O  O316  1  0.00528017  0.12136791  0.51012545  1
  O  O317  1  0.00951280  0.61508958  0.00806332  1
  O  O318  1  -0.00061217  0.61774662  0.50380130  1
  O  O319  1  0.51350143  0.12214297  -0.00016144  1
  O  O320  1  0.50752130  0.11483021  0.50065262  1
  O  O321  1  0.50656346  0.62774667  0.01377985  1
  O  O322  1  0.50466101  0.63014927  0.51587987  1
  O  O323  1  0.49375665  0.37103154  0.48459651  1
  O  O324  1  0.50728210  0.37355668  0.98512722  1
  O  O325  1  0.49900749  0.88750497  0.49694685  1
  O  O326  1  0.48530116  0.87610192  0.99652048  1
  O  O327  1  0.98687631  0.38138345  0.50659610  1
  O  O328  1  0.98573985  0.37922472  0.99788933  1
  O  O329  1  1.00130437  0.88338275  0.48408375  1
  O  O330  1  0.98859097  0.87248960  0.99683792  1
  O  O331  1  0.49022967  0.49372250  0.36846608  1
  O  O332  1  0.51527387  0.48096316  0.87372392  1
  O  O333  1  0.49367808  0.99212820  0.38130405  1
  O  O334  1  0.48589639  0.99776284  0.87156807  1
  O  O335  1  0.98211593  0.50561652  0.38640128  1
  O  O336  1  0.99000366  0.49860792  0.88479197  1
  O  O337  1  0.99146602  0.99589825  0.37553964  1
  O  O338  1  0.99305422  0.99024258  0.87001649  1
  O  O339  1  0.00438633  0.00457645  0.12991035  1
  O  O340  1  0.00562947  0.00990969  0.62326132  1
  O  O341  1  -0.01105162  0.49278909  0.11605229  1
  O  O342  1  -0.01028789  0.50903210  0.61070218  1
  O  O343  1  0.51024522  -0.00108699  0.12229908  1
  O  O344  1  0.50899067  0.00348945  0.61808683  1
  O  O345  1  0.51146174  0.50891832  0.12699408  1
  O  O346  1  0.51859897  0.50535436  0.62715991  1
  O  O347  1  0.24256347  0.37659879  0.24453791  1
  O  O348  1  0.25399735  0.38299733  0.71864644  1
  O  O349  1  0.24749818  0.88415788  0.24256587  1
  O  O350  1  0.23721361  0.87369207  0.76224927  1
  O  O351  1  0.74482229  0.38705084  0.25650537  1
  O  O352  1  0.75599364  0.38180851  0.73985881  1
  O  O353  1  0.75337698  0.87489626  0.23972807  1
  O  O354  1  0.75351434  0.88360320  0.73921480  1
  O  O355  1  0.25646329  0.11705738  0.24520096  1
  O  O356  1  0.26270781  0.13705509  0.75267660  1
  O  O357  1  0.25909360  0.62786637  0.26035986  1
  O  O358  1  0.28223870  0.63258607  0.74489093  1
  O  O359  1  0.74747549  0.11461767  0.24928178  1
  O  O360  1  0.76488696  0.11530902  0.74338888  1
  O  O361  1  0.75703591  0.61209271  0.25861253  1
  O  O362  1  0.75866918  0.61637200  0.75529558  1
  O  O363  1  0.38053393  0.11520789  0.36087475  1
  O  O364  1  0.37180357  0.11983150  0.86486945  1
  O  O365  1  0.37132325  0.62273038  0.37057635  1
  O  O366  1  0.38598827  0.62272458  0.86417012  1
  O  O367  1  0.87462381  0.11124484  0.37973738  1
  O  O368  1  0.88151430  0.11321872  0.86674301  1
  O  O369  1  0.86555997  0.61746275  0.36599944  1
  O  O370  1  0.87067112  0.61446131  0.87181747  1
  O  O371  1  0.13498801  0.33455394  0.13157005  1
  O  O372  1  0.13770204  0.38796936  0.60875879  1
  O  O373  1  0.13663415  0.87845033  0.13097685  1
  O  O374  1  0.11333353  0.89113906  0.63327599  1
  O  O375  1  0.61989589  0.38587109  0.13206498  1
  O  O376  1  0.63458686  0.38568204  0.62033237  1
  O  O377  1  0.63652355  0.88729016  0.11489356  1
  O  O378  1  0.63300253  0.89032882  0.62219032  1
  O  O379  1  0.11139855  0.24415547  0.26618395  1
  O  O380  1  0.11420172  0.24444828  0.75564000  1
  O  O381  1  0.11762642  0.75642018  0.25752144  1
  O  O382  1  0.11526461  0.73708316  0.77124522  1
  O  O383  1  0.62206764  0.25366294  0.25193324  1
  O  O384  1  0.61731730  0.23945590  0.75576449  1
  O  O385  1  0.62490882  0.74790948  0.26163168  1
  O  O386  1  0.61660911  0.74257536  0.76026044  1
  O  O387  1  0.38027114  0.24286924  0.24573293  1
  O  O388  1  0.38107331  0.24916053  0.74193559  1
  O  O389  1  0.37973567  0.74169749  0.25155387  1
  O  O390  1  0.39510797  0.74299097  0.75521468  1
  O  O391  1  0.87982028  0.25090340  0.24437424  1
  O  O392  1  0.88005642  0.24062194  0.74932828  1
  O  O393  1  0.87986871  0.74165064  0.24890894  1
  O  O394  1  0.87434050  0.73770487  0.75137065  1
  O  O395  1  0.37624563  0.49511355  0.49005568  1
  O  O396  1  0.38743506  0.50810497  1.00537231  1
  O  O397  1  0.38360464  1.00906125  0.49036099  1
  O  O398  1  0.37419467  0.99509124  0.99073161  1
  O  O399  1  0.87578352  0.49088315  0.49388246  1
  O  O400  1  0.87688364  0.49405821  0.99572522  1
  O  O401  1  0.88213911  0.99776437  0.49294836  1
  O  O402  1  0.86547066  0.99042475  0.98698262  1
  O  O403  1  0.13438089  0.01968701  -0.00296699  1
  O  O404  1  0.11903345  0.00994412  0.50789448  1
  O  O405  1  0.11479553  0.50929268  0.00302648  1
  O  O406  1  0.10927474  0.50830480  0.48220852  1
  O  O407  1  0.62611949  0.00540077  0.00378969  1
  O  O408  1  0.62013940  0.00595339  0.50522950  1
  O  O409  1  0.62577481  0.50157196  0.00873310  1
  O  O410  1  0.63313439  0.49881645  0.51011147  1
  O  O411  1  0.37735253  0.36103798  0.13062854  1
  O  O412  1  0.37870898  0.37539072  0.61177700  1
  O  O413  1  0.36590458  0.87725228  0.11819712  1
  O  O414  1  0.35770069  0.88458430  0.64094972  1
  O  O415  1  0.87181233  0.35935966  0.11631636  1
  O  O416  1  0.86027329  0.37412915  0.61372544  1
  O  O417  1  0.86803853  0.87015226  0.11857118  1
  O  O418  1  0.86892989  0.87402862  0.62614585  1
  O  O419  1  0.11820765  0.13187489  0.38946265  1
  O  O420  1  0.13052306  0.13399861  0.87992208  1
  O  O421  1  0.13188590  0.63415859  0.37597935  1
  O  O422  1  0.11511850  0.63519456  0.89726297  1
  O  O423  1  0.62068011  0.12737984  0.38679663  1
  O  O424  1  0.62193504  0.13509079  0.88067525  1
  O  O425  1  0.63834713  0.62009691  0.37468322  1
  O  O426  1  0.63482548  0.63442526  0.87896907  1
