# generated using pymatgen
data_V85Zn86O256
_symmetry_space_group_name_H-M   'P 1'
_cell_length_a   16.92575317
_cell_length_b   16.92338380
_cell_length_c   16.91595113
_cell_angle_alpha   90.08892664
_cell_angle_beta   89.95322495
_cell_angle_gamma   89.90504812
_symmetry_Int_Tables_number   1
_chemical_formula_structural   V85Zn86O256
_chemical_formula_sum   'V85 Zn86 O256'
_cell_volume   4845.40813383
_cell_formula_units_Z   1
loop_
 _symmetry_equiv_pos_site_id
 _symmetry_equiv_pos_as_xyz
  1  'x, y, z'
loop_
 _atom_site_type_symbol
 _atom_site_label
 _atom_site_symmetry_multiplicity
 _atom_site_fract_x
 _atom_site_fract_y
 _atom_site_fract_z
 _atom_site_occupancy
  V  V0  1  0.63124535  0.87351769  0.24686442  1
  V  V1  1  0.62521538  0.12623297  0.50105863  1
  V  V2  1  0.75122082  0.87710230  0.62514969  1
  V  V3  1  0.74663105  0.75266084  0.00924238  1
  V  V4  1  0.24821823  -0.01024613  0.22715408  1
  V  V5  1  0.24838355  0.62712028  0.87334484  1
  V  V6  1  0.37496628  0.37413981  0.50017072  1
  V  V7  1  0.11637594  0.37108109  0.74985381  1
  V  V8  1  0.87916080  0.25501207  0.63214507  1
  V  V9  1  0.37387473  0.50176726  0.37296530  1
  V  V10  1  0.61964573  0.75391763  0.87833743  1
  V  V11  1  0.75498677  0.12638672  0.87461471  1
  V  V12  1  0.36258505  0.00228713  0.37526184  1
  V  V13  1  0.12918516  0.12021045  0.00237967  1
  V  V14  1  0.63208066  0.37113510  0.23797015  1
  V  V15  1  -0.00069293  0.24806814  0.25036850  1
  V  V16  1  0.62656155  0.62281488  0.50137798  1
  V  V17  1  0.37912372  0.25121492  0.63085564  1
  V  V18  1  0.37999115  0.76304818  0.12143716  1
  V  V19  1  0.62513733  0.00232757  0.62614553  1
  V  V20  1  0.50009311  0.50226189  0.50308657  1
  V  V21  1  0.11294349  0.62196011  0.00397075  1
  V  V22  1  0.24887887  0.24795789  -0.00858030  1
  V  V23  1  -0.00194272  0.62924484  0.62556061  1
  V  V24  1  -0.00377136  0.50061791  0.49444265  1
  V  V25  1  0.11605776  0.87522780  0.24811270  1
  V  V26  1  0.50001628  0.12664926  0.63181156  1
  V  V27  1  0.13177479  0.24792227  0.37269669  1
  V  V28  1  0.75384172  0.11647818  0.37574047  1
  V  V29  1  0.50133281  0.37356576  0.37328489  1
  V  V30  1  0.61581777  0.25538298  0.87400258  1
  V  V31  1  0.74819243  0.62753088  0.88406020  1
  V  V32  1  0.87983312  -0.00775032  0.87453220  1
  V  V33  1  0.61991102  0.87580674  0.75390144  1
  V  V34  1  0.62614224  0.24949313  0.37536831  1
  V  V35  1  0.25010319  0.37896885  0.12146388  1
  V  V36  1  0.24822247  0.63371155  0.37363499  1
  V  V37  1  0.74708506  0.49411342  0.75393205  1
  V  V38  1  0.12582627  0.37496923  0.24865401  1
  V  V39  1  0.75178888  0.25522453  0.00553703  1
  V  V40  1  0.24747534  0.37556235  0.62465551  1
  V  V41  1  0.75041490  0.74800105  0.49803329  1
  V  V42  1  0.24978538  0.24740204  0.49785402  1
  V  V43  1  0.24600117  0.50605329  0.74861416  1
  V  V44  1  0.24828759  0.75307622  0.00563231  1
  V  V45  1  0.25279827  0.87701256  0.62447220  1
  V  V46  1  0.87254028  0.87596686  0.00929922  1
  V  V47  1  0.38233435  0.62108676  0.23628831  1
  V  V48  1  0.63206508  -0.00506916  0.12330590  1
  V  V49  1  0.36737555  0.12390100  0.25268851  1
  V  V50  1  0.87727560  0.11517461  0.25481618  1
  V  V51  1  0.49922261  0.00048741  0.50082567  1
  V  V52  1  0.00654025  -0.00949014  -0.00020968  1
  V  V53  1  0.11760231  0.87562187  0.75544878  1
  V  V54  1  0.37149439  0.74533146  0.62975637  1
  V  V55  1  0.62620874  0.12476384  -0.00090112  1
  V  V56  1  -0.00103468  0.37293818  0.88142277  1
  V  V57  1  0.11065798  0.50138653  0.12111082  1
  V  V58  1  0.49582449  -0.00754018  -0.01386833  1
  V  V59  1  0.86763467  0.62387899  0.25672972  1
  V  V60  1  0.37338522  0.24999257  0.12330347  1
  V  V61  1  0.37235002  0.12588489  0.76054694  1
  V  V62  1  0.00209116  0.12736375  0.63178134  1
  V  V63  1  0.62555788  0.51897623  0.12058338  1
  V  V64  1  0.37854751  0.49960100  0.86857446  1
  V  V65  1  0.62436740  0.74423666  0.37585311  1
  V  V66  1  0.87672983  0.87988907  0.48556433  1
  V  V67  1  0.88038010  0.50097111  0.88285470  1
  V  V68  1  0.87363477  0.62749223  0.75139336  1
  V  V69  1  0.49916989  0.87344816  0.37281187  1
  V  V70  1  -0.00261881  -0.00195229  0.48650912  1
  V  V71  1  0.38298644  0.37585632  -0.00821125  1
  V  V72  1  0.37343893  0.87330832  0.50072445  1
  V  V73  1  0.00296676  0.11745991  0.12522021  1
  V  V74  1  0.25559678  0.00230734  0.76382012  1
  V  V75  1  0.49823090  0.62688669  0.63943141  1
  V  V76  1  0.49865076  0.12065584  0.12444541  1
  V  V77  1  0.12958385  0.12244283  0.49453913  1
  V  V78  1  0.12002407  0.24256278  0.87088936  1
  V  V79  1  0.60871210  0.37393485  0.75350318  1
  V  V80  1  0.00654791  0.74255323  0.26396928  1
  V  V81  1  0.12123725  0.50144438  0.62308642  1
  V  V82  1  0.88653979  0.74401580  0.12540199  1
  V  V83  1  0.12644184  0.00067763  0.62301814  1
  V  V84  1  0.87462317  0.37895731  0.01076553  1
  Zn  Zn85  1  0.62458516  0.49954887  0.62958138  1
  Zn  Zn86  1  0.87411893  0.75363842  0.62536219  1
  Zn  Zn87  1  0.24787643  0.50272228  0.24684166  1
  Zn  Zn88  1  -0.00796405  0.76014749  0.75558922  1
  Zn  Zn89  1  0.11695497  0.75527827  0.88172525  1
  Zn  Zn90  1  0.49925431  0.50967693  0.01018043  1
  Zn  Zn91  1  0.87155919  0.37397985  0.49653594  1
  Zn  Zn92  1  0.49896867  0.24711324  0.24869357  1
  Zn  Zn93  1  0.50616956  0.74277240  0.23936738  1
  Zn  Zn94  1  0.37224156  0.87698520  -0.01689888  1
  Zn  Zn95  1  0.87068042  0.25071821  0.12940215  1
  Zn  Zn96  1  -0.00309611  0.37642260  0.37483387  1
  Zn  Zn97  1  0.75392810  0.00133607  0.75038832  1
  Zn  Zn98  1  0.75402938  0.25101468  0.50196264  1
  Zn  Zn99  1  0.74882277  0.37522568  0.62430054  1
  Zn  Zn100  1  0.88309563  0.12758483  0.75519519  1
  Zn  Zn101  1  0.85844383  0.50076287  0.38020745  1
  Zn  Zn102  1  0.74786295  0.49772552  0.25166180  1
  Zn  Zn103  1  0.24049774  0.75452678  0.49582740  1
  Zn  Zn104  1  0.75662790  -0.00686838  0.24815243  1
  Zn  Zn105  1  0.11951968  0.63204290  0.49109942  1
  Zn  Zn106  1  0.48878883  0.75749865  0.75921616  1
  Zn  Zn107  1  0.19021050  0.18524300  0.18386753  1
  Zn  Zn108  1  0.18938545  0.18658284  0.68686504  1
  Zn  Zn109  1  0.18981551  0.68928014  0.18579111  1
  Zn  Zn110  1  0.18331963  0.69078037  0.68349964  1
  Zn  Zn111  1  0.68847383  0.18427418  0.18874108  1
  Zn  Zn112  1  0.69208648  0.19188742  0.69064359  1
  Zn  Zn113  1  0.69130758  0.69006647  0.18515715  1
  Zn  Zn114  1  0.68692964  0.68796106  0.68981542  1
  Zn  Zn115  1  0.31179891  0.31329254  0.31034155  1
  Zn  Zn116  1  0.30669012  0.31394142  0.81047465  1
  Zn  Zn117  1  0.31538046  0.81222057  0.30658078  1
  Zn  Zn118  1  0.30368835  0.80866879  0.81186153  1
  Zn  Zn119  1  0.81323242  0.31044950  0.31650344  1
  Zn  Zn120  1  0.81321084  0.31118191  0.81524016  1
  Zn  Zn121  1  0.81139273  0.80671208  0.31213028  1
  Zn  Zn122  1  0.80944500  0.81468933  0.81585308  1
  Zn  Zn123  1  0.18505378  0.44035657  0.43643634  1
  Zn  Zn124  1  0.18673325  0.43810439  0.93678331  1
  Zn  Zn125  1  0.18338663  0.93253648  0.43200376  1
  Zn  Zn126  1  0.19014311  0.93625905  0.93923451  1
  Zn  Zn127  1  0.69157667  0.43679096  0.43547702  1
  Zn  Zn128  1  0.68786727  0.43793780  0.93968956  1
  Zn  Zn129  1  0.68720262  0.93565162  0.43704251  1
  Zn  Zn130  1  0.69098358  0.93695381  0.93877815  1
  Zn  Zn131  1  0.31596281  0.06355588  0.05469447  1
  Zn  Zn132  1  0.31304324  0.06219444  0.56638950  1
  Zn  Zn133  1  0.30799256  0.56198170  0.05614839  1
  Zn  Zn134  1  0.31168073  0.56438774  0.56098980  1
  Zn  Zn135  1  0.81616394  0.06527298  0.06292787  1
  Zn  Zn136  1  0.81586494  0.06482278  0.56182579  1
  Zn  Zn137  1  0.80975971  0.56361288  0.06992677  1
  Zn  Zn138  1  0.81038024  0.56113771  0.56561832  1
  Zn  Zn139  1  0.44310547  0.43662208  0.18583472  1
  Zn  Zn140  1  0.43646540  0.44200498  0.69245355  1
  Zn  Zn141  1  0.44231569  0.93839383  0.18784203  1
  Zn  Zn142  1  0.43750735  0.93873027  0.81027134  1
  Zn  Zn143  1  0.93700088  0.43808641  0.19140204  1
  Zn  Zn144  1  0.93726260  0.44059874  0.69082323  1
  Zn  Zn145  1  0.94195990  0.93467332  0.18683844  1
  Zn  Zn146  1  0.93622261  0.94451229  0.67992842  1
  Zn  Zn147  1  0.07232259  0.06097627  0.31031425  1
  Zn  Zn148  1  0.06501203  0.05825618  0.81542823  1
  Zn  Zn149  1  0.06172728  0.56353926  0.30779695  1
  Zn  Zn150  1  0.06029199  0.56471757  0.81591230  1
  Zn  Zn151  1  0.56069703  0.06018851  0.31110305  1
  Zn  Zn152  1  0.56966150  0.07100370  0.80809656  1
  Zn  Zn153  1  0.56520824  0.55845430  0.31109888  1
  Zn  Zn154  1  0.55094671  0.57462477  0.83930267  1
  Zn  Zn155  1  0.43818882  0.18654982  0.43819618  1
  Zn  Zn156  1  0.43885609  0.18588344  0.93981162  1
  Zn  Zn157  1  0.43625050  0.68743601  0.44018769  1
  Zn  Zn158  1  0.43466294  0.68383985  0.93866675  1
  Zn  Zn159  1  0.93989133  0.18744899  0.44023659  1
  Zn  Zn160  1  0.93950632  0.18740362  0.94022030  1
  Zn  Zn161  1  0.93575871  0.68861986  0.43808886  1
  Zn  Zn162  1  0.93886427  0.69284319  0.93589003  1
  Zn  Zn163  1  0.06093824  0.31018686  0.06272348  1
  Zn  Zn164  1  0.05811146  0.31195850  0.56041456  1
  Zn  Zn165  1  0.06797655  0.81450059  0.07236776  1
  Zn  Zn166  1  0.06189357  0.81222343  0.56026650  1
  Zn  Zn167  1  0.55974943  0.31019306  0.05884006  1
  Zn  Zn168  1  0.56409876  0.31384976  0.56520133  1
  Zn  Zn169  1  0.56068794  0.81142042  0.06166919  1
  Zn  Zn170  1  0.56008739  0.81244628  0.56641767  1
  O  O171  1  0.11818371  0.12958180  0.11182562  1
  O  O172  1  0.12004716  0.12175443  0.61730878  1
  O  O173  1  0.13224664  0.61542019  0.11339533  1
  O  O174  1  0.11261870  0.61794026  0.62740912  1
  O  O175  1  0.61634237  0.11910298  0.11961990  1
  O  O176  1  0.61907155  0.12534312  0.62379069  1
  O  O177  1  0.62099623  0.61860352  0.12836060  1
  O  O178  1  0.61586800  0.62522570  0.61901216  1
  O  O179  1  0.38055572  0.38104667  0.37791258  1
  O  O180  1  0.36155963  0.38377339  0.88285581  1
  O  O181  1  0.38151553  0.88077533  0.37830952  1
  O  O182  1  0.37896908  0.86603552  0.87024060  1
  O  O183  1  0.87923943  0.37988510  0.37618813  1
  O  O184  1  0.88219536  0.38140029  0.88216742  1
  O  O185  1  0.86719793  0.87504625  0.38637149  1
  O  O186  1  0.87174735  0.88673824  0.88593833  1
  O  O187  1  0.26155998  -0.00077649  0.37001286  1
  O  O188  1  0.24928617  0.00120911  0.86264780  1
  O  O189  1  0.26301090  0.50376437  0.37211107  1
  O  O190  1  0.25053640  0.50535180  0.86559346  1
  O  O191  1  0.74141014  0.01313676  0.37098681  1
  O  O192  1  0.76028328  0.00940917  0.87736559  1
  O  O193  1  0.74470586  0.50403454  0.36528568  1
  O  O194  1  0.75679006  0.50859283  0.87214340  1
  O  O195  1  0.24586501  0.48790703  0.12282899  1
  O  O196  1  0.24140781  0.49647971  0.62817077  1
  O  O197  1  0.25502480  0.99908613  0.12910295  1
  O  O198  1  0.24545319  0.99294542  0.63107195  1
  O  O199  1  0.73315550  0.50462088  0.13492296  1
  O  O200  1  0.74593113  0.49926099  0.63970763  1
  O  O201  1  0.73542207  1.00693902  0.12430899  1
  O  O202  1  0.74369892  0.99497738  0.62444413  1
  O  O203  1  0.00706576  0.36414465  0.25012396  1
  O  O204  1  0.01003496  0.37998960  0.76107766  1
  O  O205  1  0.00952447  0.86724708  0.25149570  1
  O  O206  1  0.01478350  0.88117496  0.73955107  1
  O  O207  1  0.50750416  0.36885753  0.25753323  1
  O  O208  1  0.51077254  0.36864275  0.74393101  1
  O  O209  1  0.50907778  0.87150525  0.25808037  1
  O  O210  1  0.51560337  0.87647424  0.74729872  1
  O  O211  1  0.48884969  0.12249035  0.24049024  1
  O  O212  1  0.49187547  0.12224226  0.73848943  1
  O  O213  1  0.48503575  0.62642748  0.25800987  1
  O  O214  1  0.50562288  0.63137867  0.74133630  1
  O  O215  1  0.99814449  0.12697581  0.24492213  1
  O  O216  1  1.00487600  0.11903933  0.73587031  1
  O  O217  1  0.99320826  0.63762572  0.25110518  1
  O  O218  1  0.98604584  0.62045138  0.74431026  1
  O  O219  1  0.36693539  0.25544961  0.00168019  1
  O  O220  1  0.36908434  0.25448765  0.50593877  1
  O  O221  1  0.37038637  0.74865798  0.00847904  1
  O  O222  1  0.37191785  0.75876967  0.50826152  1
  O  O223  1  0.86882241  0.25829707  0.00180574  1
  O  O224  1  0.87663786  0.25084697  0.51386946  1
  O  O225  1  0.87300186  0.75701452  0.00845970  1
  O  O226  1  0.86561364  0.75674680  0.50224875  1
  O  O227  1  0.12798158  0.24364705  0.49173862  1
  O  O228  1  0.13061358  0.24331450  0.99286385  1
  O  O229  1  0.12737019  0.74461718  0.50223256  1
  O  O230  1  0.13080344  0.73991811  1.00563830  1
  O  O231  1  0.62519571  0.24327046  0.49240702  1
  O  O232  1  0.63268139  0.24602601  0.99367694  1
  O  O233  1  0.62853606  0.74495881  0.49478765  1
  O  O234  1  0.63578172  0.75833786  0.99300340  1
  O  O235  1  0.49254231  0.23598383  0.12200726  1
  O  O236  1  0.48810886  0.24181503  0.61804356  1
  O  O237  1  0.48584931  0.74565925  0.12075715  1
  O  O238  1  0.49048825  0.74363072  0.62750204  1
  O  O239  1  1.00210479  0.23955396  0.13714384  1
  O  O240  1  0.99091943  0.24182779  0.62330437  1
  O  O241  1  0.98961633  0.75456582  0.13581979  1
  O  O242  1  0.99593463  0.73908876  0.63189378  1
  O  O243  1  0.01153183  0.24757727  0.36422148  1
  O  O244  1  0.00866208  0.25806809  0.87723619  1
  O  O245  1  -0.00107489  0.75032408  0.36254569  1
  O  O246  1  0.00574127  0.74686730  0.86666418  1
  O  O247  1  0.51028338  0.25266984  0.37380480  1
  O  O248  1  0.51657867  0.24517584  0.88050334  1
  O  O249  1  0.50421626  0.76142473  0.37632868  1
  O  O250  1  0.51598001  0.74766484  0.87552364  1
  O  O251  1  0.23780788  0.13026060  0.50683883  1
  O  O252  1  0.24239040  0.13482213  1.00309922  1
  O  O253  1  0.25175523  0.62467032  0.48277866  1
  O  O254  1  0.24310102  0.63408395  0.99226332  1
  O  O255  1  0.74322758  0.12672916  0.49316224  1
  O  O256  1  0.74624227  0.12956583  0.99124569  1
  O  O257  1  0.73533193  0.63319711  0.50875479  1
  O  O258  1  0.75709296  0.63583544  0.99282281  1
  O  O259  1  0.25460577  0.36806405  0.00557084  1
  O  O260  1  0.25472431  0.37100248  0.50568886  1
  O  O261  1  0.25135617  0.85851533  -0.00497671  1
  O  O262  1  0.25487168  0.87711827  0.50661891  1
  O  O263  1  0.76132656  0.36560595  -0.00587803  1
  O  O264  1  0.75111676  0.37020256  0.50632155  1
  O  O265  1  0.76183763  0.86724633  -0.00092657  1
  O  O266  1  0.75388435  0.86965423  0.50674470  1
  O  O267  1  0.12690502  0.49399897  0.23986184  1
  O  O268  1  0.12754944  0.49237072  0.74482892  1
  O  O269  1  0.13963745  0.99132365  0.24754130  1
  O  O270  1  0.13511785  0.99414298  0.74543552  1
  O  O271  1  0.62145924  0.48574702  0.24012067  1
  O  O272  1  0.63022698  0.48665627  0.75614732  1
  O  O273  1  0.62454740  0.99161039  0.24073855  1
  O  O274  1  0.63036903  0.99542385  0.74299653  1
  O  O275  1  0.36748356  0.00437153  0.25325473  1
  O  O276  1  0.36376510  0.00839777  0.75023121  1
  O  O277  1  0.37497930  0.50688604  0.25466512  1
  O  O278  1  0.35085871  0.49388370  0.74883305  1
  O  O279  1  0.87566573  0.01045480  0.24559349  1
  O  O280  1  0.87506129  0.00308238  0.76009756  1
  O  O281  1  0.87519691  0.51446530  0.24898925  1
  O  O282  1  0.86674749  0.50587644  0.76084922  1
  O  O283  1  0.12334518  0.36791008  0.36692401  1
  O  O284  1  0.11711660  0.36850347  0.87082345  1
  O  O285  1  0.14429320  0.86932297  0.34738437  1
  O  O286  1  0.12727634  0.87840541  0.85854789  1
  O  O287  1  0.61913151  0.36546359  0.36797550  1
  O  O288  1  0.62744291  0.36927111  0.86472299  1
  O  O289  1  0.61717788  0.86591187  0.37103020  1
  O  O290  1  0.63517552  0.86741530  0.86522344  1
  O  O291  1  0.38101439  0.12880745  0.12923799  1
  O  O292  1  0.38251455  0.13249135  0.63059078  1
  O  O293  1  0.37393591  0.62037371  0.13414467  1
  O  O294  1  0.38431133  0.63372694  0.61744309  1
  O  O295  1  0.88572233  0.12820986  0.13266264  1
  O  O296  1  0.88499999  0.13342774  0.62776571  1
  O  O297  1  0.87492476  0.63421676  0.13745028  1
  O  O298  1  0.87975256  0.62696193  0.63457866  1
  O  O299  1  0.25353524  0.25936017  0.11472925  1
  O  O300  1  0.25607450  0.25669315  0.61767068  1
  O  O301  1  0.26780446  0.74150995  0.11746446  1
  O  O302  1  0.25524467  0.75705530  0.62216980  1
  O  O303  1  0.75116289  0.24042696  0.10995604  1
  O  O304  1  0.76580229  0.24999789  0.62451008  1
  O  O305  1  0.76101422  0.74865890  0.11446213  1
  O  O306  1  0.74743044  0.75888255  0.61448487  1
  O  O307  1  0.23971339  0.25419097  0.37996606  1
  O  O308  1  0.23816407  0.25533505  0.88558328  1
  O  O309  1  0.26089639  0.73631101  0.37378428  1
  O  O310  1  0.23847257  0.74078371  0.88064253  1
  O  O311  1  0.73797138  0.23901644  0.37537380  1
  O  O312  1  0.74664489  0.24317583  0.88493754  1
  O  O313  1  0.73890209  0.75347562  0.38926360  1
  O  O314  1  0.74799493  0.74469539  0.88712001  1
  O  O315  1  0.00681002  0.11721439  0.00842843  1
  O  O316  1  0.01184388  0.11971905  0.50699067  1
  O  O317  1  0.01437366  0.62766079  0.00040635  1
  O  O318  1  -0.00261447  0.61970649  0.50914964  1
  O  O319  1  0.50517329  0.11520967  0.00592584  1
  O  O320  1  0.50560616  0.12061850  0.50789663  1
  O  O321  1  0.50662398  0.59976150  -0.05428044  1
  O  O322  1  0.50916888  0.62199476  0.50736227  1
  O  O323  1  0.49517031  0.38098973  0.49441612  1
  O  O324  1  0.48565912  0.37622602  0.99995360  1
  O  O325  1  0.49434422  0.88081831  0.49457103  1
  O  O326  1  0.50096837  0.89089845  0.99930330  1
  O  O327  1  0.99837595  0.38689206  0.49800014  1
  O  O328  1  0.99260768  0.37075018  0.98955808  1
  O  O329  1  0.98843129  0.88544396  0.50735063  1
  O  O330  1  0.99796150  0.88600031  1.00769020  1
  O  O331  1  0.49033482  0.49522394  0.38022408  1
  O  O332  1  0.47346174  0.48797794  0.83821124  1
  O  O333  1  0.49360775  0.98930496  0.37916984  1
  O  O334  1  0.50620194  1.00611536  0.88295980  1
  O  O335  1  1.00197840  0.50328312  0.38744687  1
  O  O336  1  0.98721498  0.49313469  0.87404310  1
  O  O337  1  1.00755885  1.00474722  0.38709941  1
  O  O338  1  0.99164341  1.00483169  0.88701379  1
  O  O339  1  0.00003824  0.01037595  0.11806146  1
  O  O340  1  0.00838004  0.00975219  0.61492169  1
  O  O341  1  0.01169271  0.49397440  0.12367557  1
  O  O342  1  0.00116233  0.50910493  0.61781325  1
  O  O343  1  0.50714573  0.00762789  0.11673015  1
  O  O344  1  0.50965649  0.01258589  0.61596306  1
  O  O345  1  0.51694027  0.49663730  0.12409716  1
  O  O346  1  0.49958091  0.50949088  0.62161973  1
  O  O347  1  0.24457770  0.37600787  0.23860996  1
  O  O348  1  0.23445219  0.38130393  0.74330929  1
  O  O349  1  0.25866667  0.88911048  0.24407500  1
  O  O350  1  0.24292179  0.88646489  0.74297409  1
  O  O351  1  0.73481942  0.36945813  0.25107690  1
  O  O352  1  0.75024566  0.38632377  0.75232415  1
  O  O353  1  0.73623286  0.87554612  0.25611403  1
  O  O354  1  0.74328963  0.87785256  0.74060134  1
  O  O355  1  0.26085091  0.11270762  0.24267237  1
  O  O356  1  0.25713480  0.11022995  0.74234837  1
  O  O357  1  0.26307307  0.62345436  0.25746595  1
  O  O358  1  0.23458487  0.61691578  0.75819484  1
  O  O359  1  0.76036552  0.12252857  0.25655303  1
  O  O360  1  0.75260298  0.12429883  0.76462743  1
  O  O361  1  0.76571641  0.63244456  0.25178829  1
  O  O362  1  0.75935086  0.61740132  0.75562463  1
  O  O363  1  0.38206778  0.11521754  0.36430955  1
  O  O364  1  0.37664885  0.13475230  0.85995659  1
  O  O365  1  0.36959977  0.61743088  0.36834233  1
  O  O366  1  0.35535231  0.61655717  0.87403914  1
  O  O367  1  0.86631676  0.13042579  0.36790715  1
  O  O368  1  0.87097069  0.11706312  0.87691727  1
  O  O369  1  0.87845115  0.62442758  0.36077480  1
  O  O370  1  0.86883448  0.61879310  0.87130732  1
  O  O371  1  0.13191872  0.37959811  0.12649569  1
  O  O372  1  0.12510149  0.37903352  0.63219772  1
  O  O373  1  0.13527281  0.86889625  0.14645150  1
  O  O374  1  0.13503354  0.88189864  0.63084116  1
  O  O375  1  0.62206771  0.36611481  0.13787633  1
  O  O376  1  0.62736094  0.37555315  0.64016555  1
  O  O377  1  0.61823490  0.88244650  0.13456425  1
  O  O378  1  0.63391635  0.88094903  0.62913273  1
  O  O379  1  0.12252557  0.25140521  0.25549963  1
  O  O380  1  0.13133001  0.25705359  0.75998438  1
  O  O381  1  0.11196040  0.75282430  0.24608983  1
  O  O382  1  0.12547348  0.76970052  0.74694598  1
  O  O383  1  0.62207461  0.25508066  0.25595166  1
  O  O384  1  0.63298179  0.26517158  0.75968163  1
  O  O385  1  0.62368478  0.75419238  0.25733124  1
  O  O386  1  0.62743718  0.76048511  0.75885011  1
  O  O387  1  0.37432237  0.24071026  0.24343192  1
  O  O388  1  0.36350867  0.24373925  0.73774496  1
  O  O389  1  0.37861430  0.74118009  0.23500231  1
  O  O390  1  0.37247462  0.75189335  0.73469986  1
  O  O391  1  0.88460994  0.24011556  0.24981244  1
  O  O392  1  0.87519282  0.24697490  0.73845510  1
  O  O393  1  0.88384644  0.74433377  0.24620794  1
  O  O394  1  0.87131708  0.74188488  0.74850298  1
  O  O395  1  0.37983569  0.49382144  0.49248087  1
  O  O396  1  0.37552032  0.49243700  0.98841557  1
  O  O397  1  0.37876190  0.99571850  0.49260429  1
  O  O398  1  0.39111219  0.99884798  0.99757612  1
  O  O399  1  0.88206124  0.50007396  0.49950557  1
  O  O400  1  0.86691086  0.49234888  0.99384092  1
  O  O401  1  0.88470531  0.99335883  0.50192412  1
  O  O402  1  0.88293768  0.99284728  0.99778684  1
  O  O403  1  0.11961016  0.00797554  -0.00561332  1
  O  O404  1  0.12255954  0.00557375  0.50226303  1
  O  O405  1  0.12943698  0.51241403  0.00627062  1
  O  O406  1  0.11665697  0.50593217  0.50664687  1
  O  O407  1  0.61707428  0.00371337  0.00457666  1
  O  O408  1  0.62043355  0.00653495  0.50521584  1
  O  O409  1  0.62634068  0.49438555  0.01773546  1
  O  O410  1  0.61808223  0.50795814  0.50309421  1
  O  O411  1  0.36856990  0.37015559  0.11771997  1
  O  O412  1  0.37073846  0.36819704  0.62125832  1
  O  O413  1  0.38060483  0.86434279  0.11999325  1
  O  O414  1  0.36073372  0.86864830  0.61872112  1
  O  O415  1  0.88046626  0.37195003  0.11466426  1
  O  O416  1  0.87784459  0.36375128  0.62738913  1
  O  O417  1  0.87723886  0.86855821  0.11585558  1
  O  O418  1  0.86174291  0.87607716  0.62014304  1
  O  O419  1  0.12617562  0.13402257  0.38267854  1
  O  O420  1  0.11874546  0.13477767  0.88539574  1
  O  O421  1  0.14535835  0.61728109  0.36947619  1
  O  O422  1  0.13082311  0.62150298  0.88876938  1
  O  O423  1  0.62760553  0.13109526  0.37816584  1
  O  O424  1  0.63522449  0.13270793  0.88058979  1
  O  O425  1  0.61515149  0.63754183  0.38306951  1
  O  O426  1  0.64439259  0.63815903  0.86334991  1
