# generated using pymatgen
data_V85Zn86O256
_symmetry_space_group_name_H-M   'P 1'
_cell_length_a   16.92291730
_cell_length_b   16.92128800
_cell_length_c   16.93091154
_cell_angle_alpha   89.98194873
_cell_angle_beta   90.04588890
_cell_angle_gamma   90.02691790
_symmetry_Int_Tables_number   1
_chemical_formula_structural   V85Zn86O256
_chemical_formula_sum   'V85 Zn86 O256'
_cell_volume   4848.29214536
_cell_formula_units_Z   1
loop_
 _symmetry_equiv_pos_site_id
 _symmetry_equiv_pos_as_xyz
  1  'x, y, z'
loop_
 _atom_site_type_symbol
 _atom_site_label
 _atom_site_symmetry_multiplicity
 _atom_site_fract_x
 _atom_site_fract_y
 _atom_site_fract_z
 _atom_site_occupancy
  V  V0  1  0.37217382  0.49471237  0.37518641  1
  V  V1  1  0.12924293  0.38732941  0.74115215  1
  V  V2  1  0.36879512  0.62200295  0.25078293  1
  V  V3  1  0.62993284  0.50512187  0.62205294  1
  V  V4  1  0.73914908  0.88718569  0.12972269  1
  V  V5  1  0.86166186  0.11753630  0.26007447  1
  V  V6  1  0.12039612  0.87311849  0.74624495  1
  V  V7  1  -0.00630142  0.62369106  0.13171087  1
  V  V8  1  0.86948010  0.74666374  0.13653475  1
  V  V9  1  0.12563628  0.23849194  0.37392507  1
  V  V10  1  -0.00076267  0.50573694  0.49423593  1
  V  V11  1  0.74730334  0.37649328  0.12995666  1
  V  V12  1  -0.00258719  0.24895414  0.25523144  1
  V  V13  1  0.37544758  0.12432281  0.25263099  1
  V  V14  1  0.25179410  0.76063122  0.49874347  1
  V  V15  1  0.37378129  0.75106732  0.12387326  1
  V  V16  1  0.51356947  0.00692143  -0.00031655  1
  V  V17  1  0.62368515  0.74259852  0.39370654  1
  V  V18  1  0.12473782  0.62327146  0.00117198  1
  V  V19  1  0.49956041  0.24704876  0.25084534  1
  V  V20  1  0.75491387  0.63098790  0.38010705  1
  V  V21  1  0.62751067  0.37329101  0.75080825  1
  V  V22  1  0.88129158  0.63686223  0.75362398  1
  V  V23  1  0.12276413  0.74966505  0.38013980  1
  V  V24  1  0.62283463  0.74730886  0.87482752  1
  V  V25  1  0.00032520  0.62626752  0.62515730  1
  V  V26  1  0.49084242  -0.00534756  0.50310913  1
  V  V27  1  0.75459501  0.24611027  0.49873893  1
  V  V28  1  0.24731259  0.62110894  0.86617968  1
  V  V29  1  0.61818716  0.61537533  -0.00080703  1
  V  V30  1  0.75336143  -0.00172051  0.74735598  1
  V  V31  1  0.25905143  0.25177590  0.49423752  1
  V  V32  1  0.88344764  0.37578953  0.49352945  1
  V  V33  1  -0.00117019  -0.00262357  0.00197862  1
  V  V34  1  0.74756344  0.74800085  0.00239381  1
  V  V35  1  0.25005759  0.00408428  0.25053658  1
  V  V36  1  0.74235234  0.24516651  -0.00077466  1
  V  V37  1  0.50522887  0.62680339  0.62070820  1
  V  V38  1  0.63059307  0.12007757  0.49309549  1
  V  V39  1  0.62972266  0.25002300  0.37620749  1
  V  V40  1  0.37655977  0.75842901  0.62135690  1
  V  V41  1  0.12568960  0.49980549  0.12753312  1
  V  V42  1  0.12062221  0.12782128  -0.00024462  1
  V  V43  1  -0.00524302  -0.00332582  0.50193629  1
  V  V44  1  0.25017021  0.75005307  -0.00188263  1
  V  V45  1  0.76317206  0.49938559  0.75135692  1
  V  V46  1  0.89150322  0.12730630  0.74758935  1
  V  V47  1  0.12148879  0.87508397  0.25192926  1
  V  V48  1  0.51154643  0.12642938  0.11874786  1
  V  V49  1  0.37169400  0.49823072  0.86626001  1
  V  V50  1  0.49832389  0.12824565  0.62561128  1
  V  V51  1  0.75501994  0.37497256  0.62354558  1
  V  V52  1  0.37751883  0.38352463  0.00044383  1
  V  V53  1  0.50266907  0.75156586  0.24945386  1
  V  V54  1  0.16805799  0.56630669  0.55572152  1
  V  V55  1  0.12237646  0.37364713  0.25415239  1
  V  V56  1  0.87494770  0.38057571  -0.00758666  1
  V  V57  1  0.24855087  0.37920197  0.12846730  1
  V  V58  1  0.25043029  0.87508185  0.12442436  1
  V  V59  1  0.89160227  0.24756118  0.62639668  1
  V  V60  1  0.12396996  0.12703319  0.51262731  1
  V  V61  1  0.75384714  0.87159322  0.61280116  1
  V  V62  1  0.50639791  0.49875398  0.49724135  1
  V  V63  1  0.37336781  0.88769187  -0.00053067  1
  V  V64  1  0.87484182  -0.00066968  0.87435411  1
  V  V65  1  0.87469126  0.75365323  0.60907169  1
  V  V66  1  0.37400628  0.25961496  0.62548340  1
  V  V67  1  0.87283860  0.87263004  0.00224400  1
  V  V68  1  0.50227156  0.38045903  0.87888252  1
  V  V69  1  0.74225128  0.12287923  0.87558887  1
  V  V70  1  0.49651508  0.61580689  0.12185528  1
  V  V71  1  0.75427863  0.61984245  0.87590016  1
  V  V72  1  0.11435749  0.74835674  0.87352991  1
  V  V73  1  0.37345425  0.24962745  0.12411528  1
  V  V74  1  0.37105508  0.00049545  0.37872554  1
  V  V75  1  0.87475750  0.24738260  0.12410142  1
  V  V76  1  0.49958098  0.74824192  0.75076868  1
  V  V77  1  0.87514179  0.50055863  0.36288408  1
  V  V78  1  0.49658471  0.37125646  0.38104459  1
  V  V79  1  0.25627460  0.11847637  0.87367629  1
  V  V80  1  0.49480377  0.87914508  0.87392564  1
  V  V81  1  0.24644281  0.25375877  -0.00598736  1
  V  V82  1  0.24407096  0.62056990  0.37425345  1
  V  V83  1  0.49142866  0.87284762  0.37891811  1
  V  V84  1  0.62537948  0.00009693  0.62603037  1
  Zn  Zn85  1  0.62106386  0.24586034  0.87616932  1
  Zn  Zn86  1  0.37255168  0.62149643  0.74640594  1
  Zn  Zn87  1  0.74524596  0.50965651  0.24841722  1
  Zn  Zn88  1  0.25385800  0.88213068  0.62422211  1
  Zn  Zn89  1  0.25188343  0.39111526  0.62293046  1
  Zn  Zn90  1  -0.00510409  0.86927340  0.87091193  1
  Zn  Zn91  1  0.12347270  -0.00073613  0.12528061  1
  Zn  Zn92  1  -0.00251348  0.12183421  0.12754677  1
  Zn  Zn93  1  0.37563961  0.12359337  0.75182257  1
  Zn  Zn94  1  -0.00064352  0.37734770  0.86165730  1
  Zn  Zn95  1  -0.00482732  0.74827320  0.25460383  1
  Zn  Zn96  1  0.85187379  -0.00804228  0.38285286  1
  Zn  Zn97  1  0.12496244  0.00638411  0.63141114  1
  Zn  Zn98  1  0.10733840  0.25002602  0.85964649  1
  Zn  Zn99  1  0.62333795  0.37788264  0.25156205  1
  Zn  Zn100  1  0.25726671  -0.00535805  0.75090733  1
  Zn  Zn101  1  0.49767457  0.25184504  0.75114054  1
  Zn  Zn102  1  0.62702929  0.87404884  0.75092743  1
  Zn  Zn103  1  0.62798802  0.88171746  0.25513359  1
  Zn  Zn104  1  -0.00990171  0.87537001  0.37976363  1
  Zn  Zn105  1  0.62034063  0.49696806  0.12592808  1
  Zn  Zn106  1  -0.00487485  0.50109189  -0.00477633  1
  Zn  Zn107  1  0.18734140  0.18639876  0.18370408  1
  Zn  Zn108  1  0.18864423  0.19843436  0.68900467  1
  Zn  Zn109  1  0.18536654  0.68785449  0.19004818  1
  Zn  Zn110  1  0.18895467  0.69697825  0.69112389  1
  Zn  Zn111  1  0.68689392  0.19251776  0.18678226  1
  Zn  Zn112  1  0.69291216  0.18605611  0.68479177  1
  Zn  Zn113  1  0.68481660  0.68632013  0.19146411  1
  Zn  Zn114  1  0.69129400  0.68862661  0.68727617  1
  Zn  Zn115  1  0.31047768  0.31245279  0.31267419  1
  Zn  Zn116  1  0.30390516  0.31322410  0.80676725  1
  Zn  Zn117  1  0.31204665  0.81326287  0.31210152  1
  Zn  Zn118  1  0.31103896  0.81076376  0.81174608  1
  Zn  Zn119  1  0.81421470  0.31268730  0.31347011  1
  Zn  Zn120  1  0.81587878  0.30646147  0.81149290  1
  Zn  Zn121  1  0.80700079  0.81511115  0.31654249  1
  Zn  Zn122  1  0.81159316  0.81157236  0.81165427  1
  Zn  Zn123  1  0.19172590  0.42785455  0.43225559  1
  Zn  Zn124  1  0.18171488  0.43796704  0.93218224  1
  Zn  Zn125  1  0.18361281  0.94112915  0.43667901  1
  Zn  Zn126  1  0.18302000  0.93667655  0.93556502  1
  Zn  Zn127  1  0.69218217  0.43829696  0.43615387  1
  Zn  Zn128  1  0.69131764  0.43682875  0.93861145  1
  Zn  Zn129  1  0.67995944  0.93158954  0.43740802  1
  Zn  Zn130  1  0.68646179  0.93478276  0.93755964  1
  Zn  Zn131  1  0.31236821  0.06434567  0.06396727  1
  Zn  Zn132  1  0.30702743  0.06876558  0.56618402  1
  Zn  Zn133  1  0.30957735  0.56030335  0.05954896  1
  Zn  Zn134  1  0.33250167  0.57169250  0.55314154  1
  Zn  Zn135  1  0.81111638  0.06396411  0.06262777  1
  Zn  Zn136  1  0.81551231  0.06453609  0.56508662  1
  Zn  Zn137  1  0.80915376  0.56195064  0.06533044  1
  Zn  Zn138  1  0.81399874  0.56670642  0.55772582  1
  Zn  Zn139  1  0.43620693  0.43612552  0.19385658  1
  Zn  Zn140  1  0.43989202  0.43650398  0.68765132  1
  Zn  Zn141  1  0.49086865  0.97808216  0.22015828  1
  Zn  Zn142  1  0.43401474  0.94126513  0.69306173  1
  Zn  Zn143  1  0.93935157  0.43330619  0.18311049  1
  Zn  Zn144  1  0.94484834  0.43927740  0.68209989  1
  Zn  Zn145  1  0.93243890  0.93522867  0.18937288  1
  Zn  Zn146  1  0.94281778  0.93815510  0.68192279  1
  Zn  Zn147  1  0.05779990  0.06273285  0.31459634  1
  Zn  Zn148  1  0.06815719  0.05735643  0.81870168  1
  Zn  Zn149  1  0.06231293  0.56014385  0.31043365  1
  Zn  Zn150  1  0.05766824  0.55214392  0.81265188  1
  Zn  Zn151  1  0.67503617  0.05418167  0.30421383  1
  Zn  Zn152  1  0.56005717  0.05945376  0.81092645  1
  Zn  Zn153  1  0.56430276  0.56428373  0.30978579  1
  Zn  Zn154  1  0.56345713  0.55809522  0.80946890  1
  Zn  Zn155  1  0.43891798  0.18147597  0.43776523  1
  Zn  Zn156  1  0.43670168  0.19405786  0.93726901  1
  Zn  Zn157  1  0.43669331  0.68449615  0.43904547  1
  Zn  Zn158  1  0.43429772  0.68676070  0.93714312  1
  Zn  Zn159  1  0.94210469  0.18429900  0.43664468  1
  Zn  Zn160  1  0.93386737  0.18891507  0.93418745  1
  Zn  Zn161  1  0.93862782  0.68470692  0.43606690  1
  Zn  Zn162  1  0.93512253  0.68307678  0.94464765  1
  Zn  Zn163  1  0.05871146  0.31024381  0.06169168  1
  Zn  Zn164  1  0.06882019  0.31931274  0.56418794  1
  Zn  Zn165  1  0.06014360  0.81050360  0.06468568  1
  Zn  Zn166  1  0.06096109  0.81066367  0.56262231  1
  Zn  Zn167  1  0.56191943  0.31281333  0.06127399  1
  Zn  Zn168  1  0.56510452  0.31378873  0.56228076  1
  Zn  Zn169  1  0.55966095  0.80993705  0.06084092  1
  Zn  Zn170  1  0.56342302  0.81752548  0.56594946  1
  O  O171  1  0.12331049  0.12120675  0.11181480  1
  O  O172  1  0.12646266  0.13065695  0.61477749  1
  O  O173  1  0.12110839  0.61700433  0.12253616  1
  O  O174  1  0.11843152  0.63017901  0.62546581  1
  O  O175  1  0.61097816  0.13444019  0.12366246  1
  O  O176  1  0.62047240  0.12062879  0.61555388  1
  O  O177  1  0.61350727  0.62555098  0.11707712  1
  O  O178  1  0.62277361  0.61254888  0.62993652  1
  O  O179  1  0.38229876  0.38294774  0.37044183  1
  O  O180  1  0.37901021  0.38040531  0.88051953  1
  O  O181  1  0.38369895  0.87897308  0.37579459  1
  O  O182  1  0.38762393  0.86581459  0.88447731  1
  O  O183  1  0.87094832  0.38485229  0.38384528  1
  O  O184  1  0.86647087  0.37286118  0.89080752  1
  O  O185  1  0.87805302  0.88262592  0.36524346  1
  O  O186  1  0.87399326  0.87986336  0.88266792  1
  O  O187  1  0.26319369  -0.00777489  0.36653340  1
  O  O188  1  0.24611868  0.01619326  0.87952040  1
  O  O189  1  0.25941328  0.50719120  0.38147449  1
  O  O190  1  0.25940640  0.51060111  0.88382203  1
  O  O191  1  0.73934309  0.00713770  0.38309090  1
  O  O192  1  0.75397442  0.00321590  0.86848028  1
  O  O193  1  0.75782978  0.50806622  0.37125874  1
  O  O194  1  0.74595824  0.51119672  0.86587504  1
  O  O195  1  0.24148543  0.49030761  0.12351160  1
  O  O196  1  0.24562520  0.51183171  0.60184884  1
  O  O197  1  0.24968747  0.99218211  0.13303599  1
  O  O198  1  0.24360868  0.99881686  0.62832549  1
  O  O199  1  0.74707251  0.49099720  0.12978575  1
  O  O200  1  0.74612050  0.49748406  0.62951596  1
  O  O201  1  0.74936859  0.98578307  0.12002844  1
  O  O202  1  0.74857184  0.99354958  0.63108217  1
  O  O203  1  0.00890976  0.35914905  0.24061115  1
  O  O204  1  0.01658291  0.38197240  0.74424479  1
  O  O205  1  0.01359049  0.87420310  0.24716726  1
  O  O206  1  0.01435738  0.87843800  0.75325511  1
  O  O207  1  0.49972840  0.36557183  0.26227753  1
  O  O208  1  0.51191139  0.37478287  0.75614807  1
  O  O209  1  0.49437787  0.86481959  0.26224020  1
  O  O210  1  0.50208907  0.86905160  0.75933075  1
  O  O211  1  0.48834831  0.13225050  0.23565196  1
  O  O212  1  0.50485740  0.12947728  0.73627800  1
  O  O213  1  0.48858908  0.63252820  0.24446451  1
  O  O214  1  0.50146543  0.62881505  0.73836128  1
  O  O215  1  0.99130163  0.13383907  0.24742674  1
  O  O216  1  0.99018362  0.11805079  0.75889438  1
  O  O217  1  1.00522226  0.62827155  0.23582993  1
  O  O218  1  0.99047303  0.61816651  0.74023388  1
  O  O219  1  0.36672483  0.26263642  0.00455407  1
  O  O220  1  0.36373080  0.24381619  0.50098086  1
  O  O221  1  0.36795396  0.75640685  0.00467496  1
  O  O222  1  0.36468100  0.74175377  0.50820026  1
  O  O223  1  0.86340976  0.25565210  0.00880099  1
  O  O224  1  0.87164718  0.25517811  0.50142524  1
  O  O225  1  0.86651174  0.75579503  0.00731014  1
  O  O226  1  0.87262934  0.74695507  0.51055140  1
  O  O227  1  0.12832331  0.24369201  0.49250463  1
  O  O228  1  0.13147778  0.24342604  1.00191112  1
  O  O229  1  0.13204321  0.75214619  0.48721138  1
  O  O230  1  0.13110936  0.74478381  0.99501488  1
  O  O231  1  0.63400129  0.24369196  0.49632164  1
  O  O232  1  0.63830680  0.25473673  0.99620424  1
  O  O233  1  0.61789240  0.74730781  0.49197308  1
  O  O234  1  0.62817479  0.73915469  0.99341904  1
  O  O235  1  0.49186838  0.24648993  0.12772887  1
  O  O236  1  0.49465860  0.24474380  0.62300624  1
  O  O237  1  0.49244139  0.74303309  0.13223118  1
  O  O238  1  0.49829953  0.74419766  0.62937466  1
  O  O239  1  0.98932518  0.24470349  0.13101572  1
  O  O240  1  0.98966459  0.25220598  0.61480973  1
  O  O241  1  0.98852246  0.74304727  0.12700507  1
  O  O242  1  0.98779422  0.73956320  0.61893857  1
  O  O243  1  0.00936980  0.24908520  0.36591832  1
  O  O244  1  -0.00374121  0.26346541  0.88304243  1
  O  O245  1  0.00856117  0.75135465  0.37328753  1
  O  O246  1  0.01123280  0.74747462  0.88285783  1
  O  O247  1  0.50594298  0.25492834  0.37424244  1
  O  O248  1  0.50270088  0.26269141  0.87148422  1
  O  O249  1  0.50440755  0.75141455  0.37176979  1
  O  O250  1  0.50385582  0.75426626  0.86971015  1
  O  O251  1  0.23591162  0.13874313  0.49880446  1
  O  O252  1  0.24324878  0.13247267  0.99412244  1
  O  O253  1  0.23984060  0.62883331  0.49435337  1
  O  O254  1  0.24305074  0.63120799  0.99381969  1
  O  O255  1  0.74169645  0.13409749  0.50732176  1
  O  O256  1  0.75479736  0.13291588  0.98948427  1
  O  O257  1  0.74500053  0.61795164  0.48110390  1
  O  O258  1  0.74284394  0.62788164  0.99246208  1
  O  O259  1  0.25352450  0.36991528  0.00830172  1
  O  O260  1  0.24502386  0.35662268  0.50474937  1
  O  O261  1  0.25514056  0.87111134  0.00198596  1
  O  O262  1  0.24668358  0.86360100  0.50025388  1
  O  O263  1  0.75697904  0.36887629  0.00956800  1
  O  O264  1  0.76140704  0.36994744  0.50516390  1
  O  O265  1  0.75301777  0.86784922  0.00757710  1
  O  O266  1  0.74628280  0.87621177  0.51391934  1
  O  O267  1  0.11867868  0.48829300  0.23788728  1
  O  O268  1  0.13279760  0.48929253  0.75435300  1
  O  O269  1  0.13398059  0.99517119  0.25034463  1
  O  O270  1  0.13038345  0.98640973  0.75272777  1
  O  O271  1  0.62511182  0.49505724  0.24557436  1
  O  O272  1  0.63585071  0.49054170  0.74236729  1
  O  O273  1  0.59989374  0.99239458  0.25126101  1
  O  O274  1  0.63438710  0.99872759  0.74295959  1
  O  O275  1  0.37555033  0.00711168  0.25720900  1
  O  O276  1  0.37095506  0.00968790  0.75164027  1
  O  O277  1  0.37988221  0.50944044  0.26384125  1
  O  O278  1  0.37771467  0.50094832  0.76173914  1
  O  O279  1  0.87653504  0.01696378  0.24853301  1
  O  O280  1  0.87072371  0.00441828  0.75241691  1
  O  O281  1  0.87571839  0.49266027  0.26028344  1
  O  O282  1  0.86506625  0.50879661  0.74055163  1
  O  O283  1  0.12995890  0.36471204  0.35792269  1
  O  O284  1  0.12700805  0.37047405  0.86303568  1
  O  O285  1  0.12491233  0.86702297  0.36682111  1
  O  O286  1  0.12196872  0.86474554  0.86863592  1
  O  O287  1  0.61862012  0.36370404  0.37727225  1
  O  O288  1  0.61946455  0.37674100  0.86839764  1
  O  O289  1  0.61101443  0.85885738  0.37681086  1
  O  O290  1  0.61292386  0.86659890  0.87625223  1
  O  O291  1  0.37797587  0.13298896  0.13119177  1
  O  O292  1  0.38558492  0.13718224  0.62275757  1
  O  O293  1  0.37694769  0.62850663  0.13103626  1
  O  O294  1  0.38779071  0.63619107  0.62848088  1
  O  O295  1  0.87092107  0.13563919  0.13406842  1
  O  O296  1  0.87395853  0.13519934  0.63532955  1
  O  O297  1  0.88176622  0.63348614  0.11860338  1
  O  O298  1  0.87855150  0.63608752  0.63029400  1
  O  O299  1  0.25424531  0.25570707  0.11408756  1
  O  O300  1  0.26147929  0.24751317  0.61185235  1
  O  O301  1  0.25302374  0.75434148  0.11871364  1
  O  O302  1  0.25972947  0.75082285  0.61619100  1
  O  O303  1  0.75468985  0.25584544  0.11792168  1
  O  O304  1  0.75637458  0.25651204  0.61305156  1
  O  O305  1  0.75400478  0.74902484  0.11874790  1
  O  O306  1  0.76335846  0.75727315  0.62985845  1
  O  O307  1  0.24348602  0.25304739  0.38578272  1
  O  O308  1  0.24961277  0.24476944  0.88760570  1
  O  O309  1  0.24743571  0.74147829  0.38196883  1
  O  O310  1  0.24296124  0.74150878  0.88223146  1
  O  O311  1  0.74341796  0.25594893  0.38841278  1
  O  O312  1  0.74894579  0.24027131  0.88164365  1
  O  O313  1  0.73429970  0.74306583  0.37520702  1
  O  O314  1  0.74247941  0.74056937  0.87963047  1
  O  O315  1  0.00471150  0.11719514  0.00097172  1
  O  O316  1  0.01721732  0.11890173  0.49494509  1
  O  O317  1  0.00832316  0.62399989  0.01251874  1
  O  O318  1  0.00144868  0.61740625  0.50679579  1
  O  O319  1  0.49437092  0.11479365  0.00138183  1
  O  O320  1  0.50868904  0.11777531  0.50880945  1
  O  O321  1  0.50585152  0.63039607  0.00942947  1
  O  O322  1  0.50034653  0.61684838  0.51249592  1
  O  O323  1  0.50307063  0.38062415  0.48861775  1
  O  O324  1  0.49021972  0.37196628  0.99191986  1
  O  O325  1  0.50030145  0.88679304  0.49743968  1
  O  O326  1  0.49360017  0.88534285  0.99621589  1
  O  O327  1  0.99043017  0.38625554  0.50394819  1
  O  O328  1  0.97969840  0.37552473  1.01030711  1
  O  O329  1  1.00912536  0.89171295  0.49899820  1
  O  O330  1  0.99145789  0.88062155  0.99994061  1
  O  O331  1  0.49847834  0.49292009  0.38060900  1
  O  O332  1  0.49243734  0.48830905  0.87206150  1
  O  O333  1  0.48587226  0.98800292  0.38553388  1
  O  O334  1  0.50204027  0.99235515  0.88674294  1
  O  O335  1  0.98964479  0.51011633  0.38360893  1
  O  O336  1  0.99800269  0.49087461  0.88330448  1
  O  O337  1  1.00512060  0.99777188  0.39082412  1
  O  O338  1  0.99332728  0.99650504  0.88786281  1
  O  O339  1  -0.00189222  0.00032645  0.11400083  1
  O  O340  1  0.00822491  0.00022105  0.61004345  1
  O  O341  1  0.00554594  0.50654991  0.12080485  1
  O  O342  1  -0.00649811  0.51657177  0.60992193  1
  O  O343  1  0.49317014  0.01259649  0.10791875  1
  O  O344  1  0.50322678  0.00639417  0.61934040  1
  O  O345  1  0.49548888  0.51249252  0.12858456  1
  O  O346  1  0.50751283  0.50540140  0.61840445  1
  O  O347  1  0.24101048  0.36585378  0.23527532  1
  O  O348  1  0.24304402  0.37905996  0.73971042  1
  O  O349  1  0.24283188  0.88320683  0.24541665  1
  O  O350  1  0.23827848  0.87369740  0.75011663  1
  O  O351  1  0.74801242  0.37140907  0.23808589  1
  O  O352  1  0.74888753  0.38245549  0.74615574  1
  O  O353  1  0.74389339  0.87009409  0.23377265  1
  O  O354  1  0.75061124  0.88705208  0.74620803  1
  O  O355  1  0.25747957  0.11168677  0.24252510  1
  O  O356  1  0.24537100  0.12882872  0.76790610  1
  O  O357  1  0.26163453  0.62893528  0.25673425  1
  O  O358  1  0.25203282  0.63055433  0.76283667  1
  O  O359  1  0.75652327  0.12699921  0.25056201  1
  O  O360  1  0.75647579  0.11294868  0.75366749  1
  O  O361  1  0.74074537  0.62499130  0.26946514  1
  O  O362  1  0.75726191  0.61880646  0.75751163  1
  O  O363  1  0.38068493  0.11628188  0.36123776  1
  O  O364  1  0.35903127  0.13179143  0.87801641  1
  O  O365  1  0.36566201  0.61948266  0.36928835  1
  O  O366  1  0.36740853  0.61553123  0.87486264  1
  O  O367  1  0.87489721  0.12387173  0.36162843  1
  O  O368  1  0.86397814  0.11780420  0.86742060  1
  O  O369  1  0.86293304  0.61961777  0.37585703  1
  O  O370  1  0.86553100  0.62991497  0.86827610  1
  O  O371  1  0.13025072  0.37950826  0.12944496  1
  O  O372  1  0.13206723  0.38219305  0.63221158  1
  O  O373  1  0.13255326  0.87493476  0.13251401  1
  O  O374  1  0.12772808  0.86894614  0.63891457  1
  O  O375  1  0.63250713  0.37577677  0.12585417  1
  O  O376  1  0.63268575  0.38493005  0.63062592  1
  O  O377  1  0.63701926  0.86895786  0.12186179  1
  O  O378  1  0.63416113  0.88210877  0.62947273  1
  O  O379  1  0.11866070  0.25075293  0.25391198  1
  O  O380  1  0.12962176  0.26942059  0.74917060  1
  O  O381  1  0.12674867  0.75901420  0.26101137  1
  O  O382  1  0.12528047  0.76062613  0.76130259  1
  O  O383  1  0.61829109  0.25095650  0.26124653  1
  O  O384  1  0.63055033  0.26451883  0.74836727  1
  O  O385  1  0.60939230  0.75228121  0.25412633  1
  O  O386  1  0.61823384  0.75027765  0.75666244  1
  O  O387  1  0.37745963  0.24252641  0.24621876  1
  O  O388  1  0.37614259  0.24533438  0.73993401  1
  O  O389  1  0.38167158  0.74289463  0.24590352  1
  O  O390  1  0.38429983  0.74633679  0.74347011  1
  O  O391  1  0.87945690  0.24246852  0.24579020  1
  O  O392  1  0.87176296  0.24019572  0.73825987  1
  O  O393  1  0.87328602  0.75142978  0.23902115  1
  O  O394  1  0.87366400  0.73933659  0.74523989  1
  O  O395  1  0.39222058  0.50269313  0.48563049  1
  O  O396  1  0.37229631  0.48825386  0.99208788  1
  O  O397  1  0.38176493  1.01296744  0.49307873  1
  O  O398  1  0.37759157  0.98967128  1.00088239  1
  O  O399  1  0.88121605  0.49379300  0.49130955  1
  O  O400  1  0.86957028  0.48324507  1.00576676  1
  O  O401  1  0.89094466  1.01061385  0.49847056  1
  O  O402  1  0.87938268  0.99351679  0.99606401  1
  O  O403  1  0.11507670  0.00622878  0.00069454  1
  O  O404  1  0.12494154  0.01623401  0.50093141  1
  O  O405  1  0.12502723  0.50475733  0.01252271  1
  O  O406  1  0.11735088  0.49910601  0.49012069  1
  O  O407  1  0.61210747  -0.00042950  -0.00063383  1
  O  O408  1  0.61327607  0.00632113  0.50593272  1
  O  O409  1  0.62772187  0.51201508  0.00211729  1
  O  O410  1  0.61621445  0.49361208  0.50759482  1
  O  O411  1  0.36798127  0.37288287  0.12027841  1
  O  O412  1  0.37561555  0.36476474  0.62484939  1
  O  O413  1  0.36542269  0.86597553  0.11367022  1
  O  O414  1  0.37757060  0.86207952  0.62712628  1
  O  O415  1  0.86601972  0.36335013  0.12137488  1
  O  O416  1  0.87146688  0.36902768  0.61713981  1
  O  O417  1  0.86318191  0.86689232  0.12103195  1
  O  O418  1  0.87130199  0.86040190  0.62967382  1
  O  O419  1  0.12711177  0.13585309  0.37694748  1
  O  O420  1  0.13229347  0.13030420  0.88644796  1
  O  O421  1  0.13767809  0.63161087  0.36420540  1
  O  O422  1  0.13011288  0.62981553  0.87979481  1
  O  O423  1  0.62235751  0.13737921  0.38719034  1
  O  O424  1  0.63795463  0.12602263  0.86684049  1
  O  O425  1  0.62545264  0.63833608  0.37623553  1
  O  O426  1  0.62908419  0.62730862  0.88025398  1
