# generated using pymatgen
data_V85Zn86O256
_symmetry_space_group_name_H-M   'P 1'
_cell_length_a   16.96285890
_cell_length_b   16.97310358
_cell_length_c   16.96507555
_cell_angle_alpha   90.09267677
_cell_angle_beta   90.01055943
_cell_angle_gamma   89.85142038
_symmetry_Int_Tables_number   1
_chemical_formula_structural   V85Zn86O256
_chemical_formula_sum   'V85 Zn86 O256'
_cell_volume   4884.43206431
_cell_formula_units_Z   1
loop_
 _symmetry_equiv_pos_site_id
 _symmetry_equiv_pos_as_xyz
  1  'x, y, z'
loop_
 _atom_site_type_symbol
 _atom_site_label
 _atom_site_symmetry_multiplicity
 _atom_site_fract_x
 _atom_site_fract_y
 _atom_site_fract_z
 _atom_site_occupancy
  V  V0  1  0.74841610  0.12154858  0.87409211  1
  V  V1  1  0.00213675  0.25008811  0.24915638  1
  V  V2  1  0.81264475  -0.04765360  0.31082782  1
  V  V3  1  0.12616329  0.12539445  0.00016027  1
  V  V4  1  -0.00501855  0.62727041  0.62638363  1
  V  V5  1  0.50432756  0.62465014  0.62620176  1
  V  V6  1  0.25287846  -0.00021586  0.75102272  1
  V  V7  1  0.75264378  0.49802404  0.75367474  1
  V  V8  1  0.50217246  -0.00436933  0.00469468  1
  V  V9  1  0.00268910  0.00126854  -0.00130548  1
  V  V10  1  -0.00640706  0.38439712  0.87220174  1
  V  V11  1  0.37425471  0.49852276  0.87648226  1
  V  V12  1  0.37400812  0.62442851  0.74784166  1
  V  V13  1  0.37629882  0.49675289  0.37393801  1
  V  V14  1  0.74756305  0.25110469  0.00001350  1
  V  V15  1  0.88671062  0.74302244  0.12511573  1
  V  V16  1  -0.00404808  -0.00590672  0.48038426  1
  V  V17  1  0.62151921  0.63356490  0.00398455  1
  V  V18  1  0.63669327  0.00284831  0.12923369  1
  V  V19  1  0.50130067  0.49830581  0.50600593  1
  V  V20  1  0.37619280  0.75421391  0.62151757  1
  V  V21  1  0.24131497  0.75097806  0.49579064  1
  V  V22  1  0.49595287  0.25280920  0.75199366  1
  V  V23  1  0.11907464  0.62670742  0.01006921  1
  V  V24  1  0.12961354  0.87561316  0.75087844  1
  V  V25  1  0.50289078  0.01307347  0.49367331  1
  V  V26  1  0.00131724  0.12227282  0.62150097  1
  V  V27  1  0.62261233  0.50524423  0.13721857  1
  V  V28  1  0.38241039  -0.00523606  0.87750386  1
  V  V29  1  0.35921104  -0.00182728  0.37016448  1
  V  V30  1  0.49893938  0.37567055  0.87961305  1
  V  V31  1  0.76329382  0.50163995  0.25170994  1
  V  V32  1  -0.00345858  0.75359883  0.74653093  1
  V  V33  1  0.06625637  0.70231089  0.31783713  1
  V  V34  1  0.12981759  0.37448662  0.74433129  1
  V  V35  1  0.36606687  0.37682757  0.50491976  1
  V  V36  1  -0.00169157  0.24982374  0.74810053  1
  V  V37  1  0.12424456  0.48306450  0.11842508  1
  V  V38  1  0.87082493  0.38442113  -0.00419758  1
  V  V39  1  0.87454434  0.12359562  0.26041490  1
  V  V40  1  0.12204763  0.62731979  0.49810285  1
  V  V41  1  0.25335993  0.62573464  0.37025585  1
  V  V42  1  0.00259192  0.87486783  0.87597531  1
  V  V43  1  0.50163006  0.50221816  0.00897987  1
  V  V44  1  0.74358884  0.62740061  0.87772677  1
  V  V45  1  0.38499900  0.62240204  0.23986634  1
  V  V46  1  0.25000255  0.12507020  0.87755925  1
  V  V47  1  0.37449654  0.25608300  0.13085684  1
  V  V48  1  0.74226775  0.37530816  0.13014653  1
  V  V49  1  0.13204684  0.49750044  0.62093677  1
  V  V50  1  0.74369318  0.37218403  0.62624948  1
  V  V51  1  0.86832422  0.12309524  0.74528749  1
  V  V52  1  0.13374150  -0.00154636  0.12771206  1
  V  V53  1  0.87560860  0.00053226  0.87057680  1
  V  V54  1  0.87825932  0.61657112  0.76150797  1
  V  V55  1  0.25116054  0.25746693  0.00617361  1
  V  V56  1  0.12302966  0.25052378  0.87415503  1
  V  V57  1  0.62869504  0.62419824  0.50149496  1
  V  V58  1  0.12667233  0.74923470  0.87409335  1
  V  V59  1  0.62109728  0.38397469  0.74828816  1
  V  V60  1  -0.00326672  0.37580187  0.37049118  1
  V  V61  1  0.36771727  0.25241037  0.62662863  1
  V  V62  1  0.36232624  0.12672313  0.25712094  1
  V  V63  1  0.25484726  0.87390180  0.13334369  1
  V  V64  1  0.13487317  0.24953705  0.37406683  1
  V  V65  1  0.25364720  0.75251604  -0.00045716  1
  V  V66  1  0.38645823  0.87175487  0.49125280  1
  V  V67  1  0.87360179  0.24907280  0.12275512  1
  V  V68  1  0.68885738  0.30089927  0.44199934  1
  V  V69  1  -0.00978470  0.50079979  0.49794629  1
  V  V70  1  0.62264697  0.24780491  0.87500322  1
  V  V71  1  0.24921881  0.62460871  0.87213604  1
  V  V72  1  -0.00109374  0.12327466  0.12525173  1
  V  V73  1  0.75953291  0.62305295  0.37648054  1
  V  V74  1  0.50362289  0.75732528  0.76421079  1
  V  V75  1  0.51742307  0.10911423  0.63989806  1
  V  V76  1  0.12634554  -0.00015822  0.62277534  1
  V  V77  1  0.75152278  0.76583503  0.50601273  1
  V  V78  1  0.87677596  0.36680806  0.49789009  1
  V  V79  1  0.11782772  0.87910399  0.25951110  1
  V  V80  1  0.13751331  0.12504623  0.49542225  1
  V  V81  1  0.61196151  0.87925241  0.25608837  1
  V  V82  1  0.37503386  0.12508359  0.75128034  1
  V  V83  1  0.51392098  0.25027197  0.25964049  1
  V  V84  1  0.73634349  0.12523378  0.37994804  1
  Zn  Zn85  1  0.62128051  0.75417038  0.37599541  1
  Zn  Zn86  1  0.37101223  0.37867534  0.00756800  1
  Zn  Zn87  1  0.65563292  0.86291127  0.74934506  1
  Zn  Zn88  1  0.65382302  -0.01298935  0.62274369  1
  Zn  Zn89  1  0.13619999  0.36898558  0.24467271  1
  Zn  Zn90  1  0.38463500  0.74748914  0.12204818  1
  Zn  Zn91  1  0.75417958  0.87256077  0.12565737  1
  Zn  Zn92  1  0.25185246  0.49621246  0.74525631  1
  Zn  Zn93  1  0.87073830  0.24748394  0.62009731  1
  Zn  Zn94  1  0.87002814  0.87381143  0.00149736  1
  Zn  Zn95  1  0.38420052  0.87148788  -0.00015025  1
  Zn  Zn96  1  0.50336940  0.74776665  0.24997676  1
  Zn  Zn97  1  0.88855518  0.62632149  0.24790478  1
  Zn  Zn98  1  0.62316151  0.12442248  0.00187189  1
  Zn  Zn99  1  0.25118660  0.25163741  0.50153052  1
  Zn  Zn100  1  0.50020162  0.12543119  0.12909083  1
  Zn  Zn101  1  0.25458821  0.49392365  0.23664484  1
  Zn  Zn102  1  0.51023461  0.37073338  0.37801523  1
  Zn  Zn103  1  0.24990383  0.87366658  0.62121361  1
  Zn  Zn104  1  -0.00893164  0.51011162  0.00044659  1
  Zn  Zn105  1  0.84634142  0.76724863  0.64424032  1
  Zn  Zn106  1  0.74781556  0.75342976  0.00194219  1
  Zn  Zn107  1  0.18873287  0.18833817  0.18602271  1
  Zn  Zn108  1  0.18893795  0.18785865  0.68622434  1
  Zn  Zn109  1  0.19692326  0.68485451  0.18401232  1
  Zn  Zn110  1  0.18627470  0.68703372  0.68342389  1
  Zn  Zn111  1  0.69168428  0.18277064  0.19222566  1
  Zn  Zn112  1  0.68640054  0.19237752  0.68816935  1
  Zn  Zn113  1  0.69254114  0.69092200  0.18586619  1
  Zn  Zn114  1  0.68163175  0.68482778  0.69203559  1
  Zn  Zn115  1  0.31516688  0.31579417  0.31263767  1
  Zn  Zn116  1  0.30995648  0.31356192  0.81720610  1
  Zn  Zn117  1  0.31348901  0.80948351  0.31175819  1
  Zn  Zn118  1  0.31892342  0.81360741  0.81007033  1
  Zn  Zn119  1  0.81675932  0.31344941  0.30702229  1
  Zn  Zn120  1  0.81133506  0.30960768  0.81116801  1
  Zn  Zn121  1  0.81114998  0.79114558  0.31116200  1
  Zn  Zn122  1  0.81592310  0.80769264  0.82066825  1
  Zn  Zn123  1  0.18647224  0.43792760  0.43278651  1
  Zn  Zn124  1  0.18407827  0.43839259  0.93464561  1
  Zn  Zn125  1  0.18740687  0.93511558  0.44087675  1
  Zn  Zn126  1  0.19229573  0.93702439  0.94013629  1
  Zn  Zn127  1  0.69123984  0.46237822  0.44101736  1
  Zn  Zn128  1  0.68417175  0.44253860  0.93821670  1
  Zn  Zn129  1  0.67935764  0.94186395  0.44064113  1
  Zn  Zn130  1  0.68408739  0.93076030  0.93425450  1
  Zn  Zn131  1  0.31613754  0.06628655  0.06611493  1
  Zn  Zn132  1  0.32094748  0.05890084  0.56507230  1
  Zn  Zn133  1  0.30711988  0.56141128  0.05930598  1
  Zn  Zn134  1  0.31291583  0.56607646  0.55960302  1
  Zn  Zn135  1  0.81417877  0.06278592  0.05899232  1
  Zn  Zn136  1  0.81565966  0.06538731  0.54934610  1
  Zn  Zn137  1  0.80940713  0.56745706  0.06685817  1
  Zn  Zn138  1  0.81156639  0.55987963  0.57137199  1
  Zn  Zn139  1  0.44193577  0.43157472  0.19247425  1
  Zn  Zn140  1  0.43558852  0.43831169  0.68684556  1
  Zn  Zn141  1  0.43684972  0.94156690  0.18608476  1
  Zn  Zn142  1  0.50220237  0.93283994  0.67904776  1
  Zn  Zn143  1  0.94013309  0.43824675  0.17998399  1
  Zn  Zn144  1  0.93645796  0.43765561  0.68256132  1
  Zn  Zn145  1  0.94448422  0.92986045  0.18156060  1
  Zn  Zn146  1  0.83226630  0.93446010  0.67738248  1
  Zn  Zn147  1  0.07201940  0.06534695  0.30913158  1
  Zn  Zn148  1  0.06120577  0.06276460  0.80864315  1
  Zn  Zn149  1  0.06412907  0.53987922  0.30848980  1
  Zn  Zn150  1  0.06562496  0.56122706  0.81240897  1
  Zn  Zn151  1  0.55636299  0.06261659  0.31015082  1
  Zn  Zn152  1  0.58254342  0.02965407  0.81887753  1
  Zn  Zn153  1  0.56539689  0.56278594  0.31856370  1
  Zn  Zn154  1  0.56089286  0.56489648  0.81602035  1
  Zn  Zn155  1  0.43725543  0.18642209  0.43629014  1
  Zn  Zn156  1  0.43843824  0.18273498  0.94295239  1
  Zn  Zn157  1  0.44166628  0.68798947  0.43167196  1
  Zn  Zn158  1  0.43659474  0.68144552  0.94143439  1
  Zn  Zn159  1  0.94563415  0.18561603  0.43716624  1
  Zn  Zn160  1  0.93603717  0.19112591  0.93591091  1
  Zn  Zn161  1  0.92966183  0.69468764  0.44693928  1
  Zn  Zn162  1  0.93411432  0.68928680  0.93804147  1
  Zn  Zn163  1  0.05617646  0.31104055  0.05620945  1
  Zn  Zn164  1  0.06209285  0.31058524  0.56102531  1
  Zn  Zn165  1  0.06513068  0.81366694  0.06371321  1
  Zn  Zn166  1  0.00991843  0.84801696  0.59310313  1
  Zn  Zn167  1  0.56031917  0.31221557  0.06677847  1
  Zn  Zn168  1  0.55196144  0.31129886  0.57009279  1
  Zn  Zn169  1  0.56143049  0.81562326  0.07278958  1
  Zn  Zn170  1  0.56599232  0.80973870  0.56533860  1
  O  O171  1  0.12106982  0.11658989  0.12136001  1
  O  O172  1  0.12154568  0.12059363  0.61948227  1
  O  O173  1  0.12772422  0.62459860  0.11220917  1
  O  O174  1  0.11757747  0.61559783  0.61811245  1
  O  O175  1  0.62596958  0.11350744  0.12721222  1
  O  O176  1  0.61010933  0.14357814  0.61925680  1
  O  O177  1  0.63188889  0.61426469  0.11798207  1
  O  O178  1  0.61040111  0.62563805  0.62090296  1
  O  O179  1  0.37830150  0.38683179  0.38396973  1
  O  O180  1  0.38143683  0.38230263  0.87751710  1
  O  O181  1  0.37013606  0.88730872  0.37676598  1
  O  O182  1  0.36472794  0.89156660  0.88098018  1
  O  O183  1  0.88777747  0.36872727  0.38103607  1
  O  O184  1  0.88127293  0.36823917  0.88268090  1
  O  O185  1  0.86363335  0.88556659  0.36212137  1
  O  O186  1  0.88652415  0.88408787  0.87731751  1
  O  O187  1  0.26098680  0.00154507  0.37629443  1
  O  O188  1  0.25465964  0.00963625  0.87273712  1
  O  O189  1  0.25812027  0.51193294  0.37849707  1
  O  O190  1  0.25566986  0.50683490  0.87351989  1
  O  O191  1  0.75379520  0.00885452  0.37877451  1
  O  O192  1  0.76402798  0.01583395  0.88346606  1
  O  O193  1  0.75548312  0.50763397  0.36283815  1
  O  O194  1  0.74533703  0.50587016  0.86148972  1
  O  O195  1  0.23034971  0.50283224  0.11876706  1
  O  O196  1  0.23577754  0.50495361  0.62286025  1
  O  O197  1  0.24008979  0.99125761  0.11577928  1
  O  O198  1  0.24165823  0.99856216  0.63021446  1
  O  O199  1  0.74327311  0.49372823  0.13253796  1
  O  O200  1  0.75047078  0.48576802  0.63870512  1
  O  O201  1  0.73918372  1.00064236  0.12125417  1
  O  O202  1  0.76191445  1.00696228  0.62658420  1
  O  O203  1  0.00131172  0.36934224  0.25584362  1
  O  O204  1  0.00408893  0.36967277  0.75415401  1
  O  O205  1  0.01886457  0.87452375  0.24944541  1
  O  O206  1  0.01569759  0.87318338  0.76732463  1
  O  O207  1  0.49713208  0.35691367  0.25897458  1
  O  O208  1  0.50453804  0.37284656  0.75663890  1
  O  O209  1  0.51068348  0.87919015  0.25108087  1
  O  O210  1  0.48023985  0.85540690  0.75726169  1
  O  O211  1  0.49030214  0.13727031  0.25056451  1
  O  O212  1  0.48389711  0.13676093  0.75058648  1
  O  O213  1  0.48645021  0.61629688  0.25244269  1
  O  O214  1  0.49338075  0.62915275  0.74308962  1
  O  O215  1  0.99574689  0.12982516  0.24255651  1
  O  O216  1  0.99236517  0.12965076  0.74234149  1
  O  O217  1  1.00948948  0.63432647  0.26591013  1
  O  O218  1  0.99432708  0.62586610  0.74574345  1
  O  O219  1  0.36768813  0.24949063  0.01099249  1
  O  O220  1  0.37495540  0.25836931  0.50765562  1
  O  O221  1  0.36755038  0.75114980  0.00050648  1
  O  O222  1  0.37091495  0.75427249  0.50173523  1
  O  O223  1  0.86678771  0.25723829  0.00466345  1
  O  O224  1  0.88380578  0.26241645  0.50120265  1
  O  O225  1  0.87234459  0.75167790  0.00873697  1
  O  O226  1  0.85470981  0.75249510  0.50982009  1
  O  O227  1  0.12719179  0.24343683  0.49290168  1
  O  O228  1  0.13130856  0.24382658  0.99563293  1
  O  O229  1  0.13998329  0.74118993  0.50235881  1
  O  O230  1  0.13218780  0.74368472  0.99406157  1
  O  O231  1  0.62503955  0.25276626  0.49861381  1
  O  O232  1  0.62953457  0.24824823  0.99374611  1
  O  O233  1  0.63072495  0.73874899  0.49991452  1
  O  O234  1  0.62244512  0.73630422  1.00782583  1
  O  O235  1  0.49220294  0.24799354  0.13578955  1
  O  O236  1  0.48629212  0.24282883  0.63674529  1
  O  O237  1  0.49593091  0.75250049  0.13635722  1
  O  O238  1  0.49195954  0.74086220  0.63092606  1
  O  O239  1  0.99473575  0.24411732  0.12900034  1
  O  O240  1  1.00088956  0.23825751  0.63048623  1
  O  O241  1  0.98672392  0.75390645  0.11834886  1
  O  O242  1  1.01133821  0.73310437  0.63182957  1
  O  O243  1  0.01012839  0.25615800  0.36773037  1
  O  O244  1  0.00570766  0.25649743  0.86741963  1
  O  O245  1  0.00686131  0.75036364  0.38102865  1
  O  O246  1  0.00539172  0.75833878  0.86950571  1
  O  O247  1  0.50031198  0.25034333  0.36516378  1
  O  O248  1  0.50220303  0.25559667  0.87231074  1
  O  O249  1  0.50906366  0.74269129  0.36411837  1
  O  O250  1  0.49139696  0.74160134  0.86146398  1
  O  O251  1  0.24011927  0.12646652  0.50789201  1
  O  O252  1  0.24523293  0.13355191  0.99546269  1
  O  O253  1  0.24319086  0.62905560  0.49031715  1
  O  O254  1  0.24338417  0.63622417  0.99227914  1
  O  O255  1  0.75875454  0.13473355  0.47825394  1
  O  O256  1  0.74977899  0.13472008  0.99142058  1
  O  O257  1  0.74322016  0.61689677  0.49559861  1
  O  O258  1  0.73875783  0.61957493  0.99201075  1
  O  O259  1  0.25091231  0.36042113  -0.01005398  1
  O  O260  1  0.26249826  0.37693486  0.49763990  1
  O  O261  1  0.24834954  0.86191485  0.00820047  1
  O  O262  1  0.25875575  0.86547737  0.50089914  1
  O  O263  1  0.75407570  0.37041981  0.00388729  1
  O  O264  1  0.75124423  0.37074521  0.50113553  1
  O  O265  1  0.75088691  0.87242057  0.00034805  1
  O  O266  1  0.73851250  0.86428838  0.50402349  1
  O  O267  1  0.12660415  0.49259417  0.22987025  1
  O  O268  1  0.12496683  0.49164626  0.73925973  1
  O  O269  1  0.12688087  0.99024803  0.23982475  1
  O  O270  1  0.13321006  0.99685397  0.74398854  1
  O  O271  1  0.63287880  0.50412927  0.24102874  1
  O  O272  1  0.62784498  0.48837913  0.75423934  1
  O  O273  1  0.62076351  0.99353835  0.23928519  1
  O  O274  1  0.57255437  1.02797593  0.70468169  1
  O  O275  1  0.38009686  0.01187996  0.26198111  1
  O  O276  1  0.36821308  0.01151024  0.76148048  1
  O  O277  1  0.37626683  0.50560867  0.25750195  1
  O  O278  1  0.37194800  0.50583226  0.75599325  1
  O  O279  1  0.87800973  0.00551135  0.24763865  1
  O  O280  1  0.87976275  0.01046290  0.76368176  1
  O  O281  1  0.86762371  0.50738361  0.23999528  1
  O  O282  1  0.86608226  0.50406258  0.74712433  1
  O  O283  1  0.11249356  0.36779496  0.37621208  1
  O  O284  1  0.11473218  0.36906344  0.86696649  1
  O  O285  1  0.13579932  0.87792219  0.35725296  1
  O  O286  1  0.12452455  0.86911036  0.87190948  1
  O  O287  1  0.63406491  0.37051209  0.39057343  1
  O  O288  1  0.61689381  0.37038290  0.87010568  1
  O  O289  1  0.62847144  0.88060130  0.35887285  1
  O  O290  1  0.62793109  0.92628630  0.83945445  1
  O  O291  1  0.37625335  0.13335133  0.13933292  1
  O  O292  1  0.37705437  0.13228496  0.63770169  1
  O  O293  1  0.37005304  0.61962101  0.13811907  1
  O  O294  1  0.38255079  0.63331022  0.62652169  1
  O  O295  1  0.87979364  0.12932309  0.13142822  1
  O  O296  1  0.88493190  0.12741505  0.63056601  1
  O  O297  1  0.87902005  0.63570378  0.12471460  1
  O  O298  1  0.88309912  0.62447764  0.63778007  1
  O  O299  1  0.25831073  0.24593789  0.11567556  1
  O  O300  1  0.26296527  0.24948614  0.62432811  1
  O  O301  1  0.25710405  0.75611707  0.11585696  1
  O  O302  1  0.25837489  0.74746524  0.61431494  1
  O  O303  1  0.75273332  0.25724706  0.12183316  1
  O  O304  1  0.75408071  0.26633166  0.63143736  1
  O  O305  1  0.76226204  0.75250654  0.12065401  1
  O  O306  1  0.74131157  0.73798150  0.60949758  1
  O  O307  1  0.23778459  0.25570444  0.37894867  1
  O  O308  1  0.24273124  0.24197434  0.88108645  1
  O  O309  1  0.25763840  0.73464853  0.38174244  1
  O  O310  1  0.24780270  0.74537705  0.88006674  1
  O  O311  1  0.74390905  0.24632422  0.37175629  1
  O  O312  1  0.74334951  0.24135875  0.87890337  1
  O  O313  1  0.74266935  0.74220637  0.39092619  1
  O  O314  1  0.75331987  0.73175004  0.88021532  1
  O  O315  1  0.00600745  0.12219481  0.00478803  1
  O  O316  1  0.01353232  0.12055293  0.50679931  1
  O  O317  1  0.01500348  0.62328325  -0.01511311  1
  O  O318  1  -0.00023333  0.61914331  0.50661330  1
  O  O319  1  0.50362929  0.11463495  0.00732680  1
  O  O320  1  0.49420849  0.11603611  0.50932263  1
  O  O321  1  0.50660766  0.61013748  -0.00199082  1
  O  O322  1  0.50576679  0.61937817  0.50723999  1
  O  O323  1  0.49137101  0.38351637  0.49995354  1
  O  O324  1  0.49843977  0.38494062  0.99586584  1
  O  O325  1  0.48800292  0.88245619  0.50178467  1
  O  O326  1  0.50207355  0.88975018  1.00260160  1
  O  O327  1  0.99250142  0.38122185  0.49510754  1
  O  O328  1  0.98777575  0.37406043  0.98830902  1
  O  O329  1  1.01662156  0.89535488  0.49225174  1
  O  O330  1  1.00603345  0.88266872  0.98796029  1
  O  O331  1  0.49411184  0.49784166  0.38783441  1
  O  O332  1  0.49317188  0.49444239  0.88310595  1
  O  O333  1  0.48927860  1.00833985  0.38940090  1
  O  O334  1  0.48670412  1.01164483  0.88625937  1
  O  O335  1  1.00154695  0.48894478  0.38587292  1
  O  O336  1  1.00293750  0.48661115  0.87576559  1
  O  O337  1  1.00612133  1.00858731  0.38160763  1
  O  O338  1  0.99718376  0.99497286  0.87891377  1
  O  O339  1  0.01206710  0.00346575  0.11730522  1
  O  O340  1  0.01622914  0.01435080  0.62075525  1
  O  O341  1  0.01625403  0.49748852  0.11667751  1
  O  O342  1  0.00689197  0.50947733  0.61826688  1
  O  O343  1  0.50926748  0.00386960  0.12025942  1
  O  O344  1  0.46818158  0.00954475  0.60189662  1
  O  O345  1  0.50980718  0.49176124  0.12019318  1
  O  O346  1  0.49061343  0.50938120  0.61384192  1
  O  O347  1  0.24756056  0.38316255  0.25722637  1
  O  O348  1  0.23338064  0.37571757  0.75549711  1
  O  O349  1  0.24339554  0.86651971  0.23655298  1
  O  O350  1  0.24545376  0.88021846  0.74564786  1
  O  O351  1  0.75735968  0.38496214  0.23989834  1
  O  O352  1  0.74201021  0.37976431  0.74668813  1
  O  O353  1  0.75279713  0.88831786  0.25449028  1
  O  O354  1  0.76738701  0.85549042  0.73310145  1
  O  O355  1  0.26336696  0.12678869  0.24898874  1
  O  O356  1  0.25710927  0.12238302  0.75706797  1
  O  O357  1  0.25874086  0.61643829  0.25590299  1
  O  O358  1  0.25551975  0.62322535  0.75497832  1
  O  O359  1  0.76173553  0.12711881  0.26412177  1
  O  O360  1  0.76182281  0.13307263  0.75698640  1
  O  O361  1  0.75064109  0.61817829  0.26022321  1
  O  O362  1  0.75446866  0.61653264  0.75577046  1
  O  O363  1  0.37282744  0.11738883  0.36501589  1
  O  O364  1  0.36665722  0.12259696  0.87042095  1
  O  O365  1  0.36975963  0.61300656  0.36924747  1
  O  O366  1  0.36697515  0.61705394  0.86995084  1
  O  O367  1  0.87627999  0.13147377  0.36266554  1
  O  O368  1  0.87192808  0.12109968  0.86668424  1
  O  O369  1  0.86316134  0.63411151  0.37346546  1
  O  O370  1  0.86854819  0.61990781  0.86660523  1
  O  O371  1  0.12479426  0.38047367  0.11767878  1
  O  O372  1  0.11598342  0.38393662  0.63264925  1
  O  O373  1  0.13279622  0.88171748  0.13085628  1
  O  O374  1  0.12144610  0.88581175  0.63435325  1
  O  O375  1  0.63817491  0.38288089  0.11975328  1
  O  O376  1  0.62916545  0.37004295  0.63638984  1
  O  O377  1  0.63200008  0.88691214  0.13818581  1
  O  O378  1  0.60496268  0.88300005  0.64179801  1
  O  O379  1  0.11938834  0.24982104  0.25546041  1
  O  O380  1  0.11834690  0.25620291  0.75233458  1
  O  O381  1  0.12623849  0.75550462  0.25084284  1
  O  O382  1  0.12084624  0.75540963  0.75489912  1
  O  O383  1  0.61211080  0.24637148  0.24688186  1
  O  O384  1  0.61709528  0.26039484  0.75860329  1
  O  O385  1  0.63263831  0.77092438  0.24959348  1
  O  O386  1  0.60849385  0.75058755  0.75262702  1
  O  O387  1  0.37745224  0.24015960  0.24852927  1
  O  O388  1  0.37477588  0.24663277  0.74681048  1
  O  O389  1  0.37260184  0.72978066  0.25014825  1
  O  O390  1  0.37745844  0.74109588  0.73991470  1
  O  O391  1  0.88250613  0.24201524  0.24210886  1
  O  O392  1  0.88307337  0.24144884  0.74772893  1
  O  O393  1  0.87545467  0.74307165  0.23360273  1
  O  O394  1  0.88438832  0.73288269  0.75537931  1
  O  O395  1  0.38055195  0.49580321  0.49465139  1
  O  O396  1  0.38181513  0.49895893  0.99635960  1
  O  O397  1  0.37514107  0.99230495  0.48488748  1
  O  O398  1  0.38240898  1.00149306  0.99484701  1
  O  O399  1  0.88522581  0.48978687  0.50735425  1
  O  O400  1  0.87294617  0.48759830  1.00526760  1
  O  O401  1  0.89775911  1.00427738  0.49903913  1
  O  O402  1  0.88684547  1.00206476  0.98902462  1
  O  O403  1  0.12144016  0.00659447  0.00501133  1
  O  O404  1  0.12528065  0.00862289  0.50672628  1
  O  O405  1  0.12265600  0.50724706  0.00523184  1
  O  O406  1  0.11427117  0.50556951  0.50395705  1
  O  O407  1  0.61971947  0.00175142  0.01419239  1
  O  O408  1  0.60570668  -0.00231582  0.50863020  1
  O  O409  1  0.61721728  0.50517613  0.01123879  1
  O  O410  1  0.61449582  0.51298129  0.50535953  1
  O  O411  1  0.37685682  0.36059587  0.12627020  1
  O  O412  1  0.37926293  0.36647149  0.61748214  1
  O  O413  1  0.36632696  0.87734637  0.12142517  1
  O  O414  1  0.37442528  0.85937345  0.61400546  1
  O  O415  1  0.86634808  0.36841169  0.11558964  1
  O  O416  1  0.86656617  0.37269032  0.61476295  1
  O  O417  1  0.87395604  0.86644452  0.12108081  1
  O  O418  1  0.91214472  0.85835903  0.64743185  1
  O  O419  1  0.12419163  0.13637004  0.38359635  1
  O  O420  1  0.12923375  0.13075301  0.87897478  1
  O  O421  1  0.12783951  0.62955901  0.37271633  1
  O  O422  1  0.13471028  0.63007210  0.87716117  1
  O  O423  1  0.63768419  0.11883498  0.37245343  1
  O  O424  1  0.63540110  0.12509954  0.87244059  1
  O  O425  1  0.63755394  0.62254991  0.38639080  1
  O  O426  1  0.63215627  0.61816503  0.88796033  1
