# generated using pymatgen
data_V85Zn86O256
_symmetry_space_group_name_H-M   'P 1'
_cell_length_a   16.98086927
_cell_length_b   16.95058768
_cell_length_c   16.97443680
_cell_angle_alpha   89.87382187
_cell_angle_beta   90.00104152
_cell_angle_gamma   89.97619792
_symmetry_Int_Tables_number   1
_chemical_formula_structural   V85Zn86O256
_chemical_formula_sum   'V85 Zn86 O256'
_cell_volume   4885.83685497
_cell_formula_units_Z   1
loop_
 _symmetry_equiv_pos_site_id
 _symmetry_equiv_pos_as_xyz
  1  'x, y, z'
loop_
 _atom_site_type_symbol
 _atom_site_label
 _atom_site_symmetry_multiplicity
 _atom_site_fract_x
 _atom_site_fract_y
 _atom_site_fract_z
 _atom_site_occupancy
  V  V0  1  0.71994746  0.09854713  0.89651472  1
  V  V1  1  0.12572306  0.62683182  0.49864846  1
  V  V2  1  0.12690604  0.24915778  0.87616427  1
  V  V3  1  0.00352221  0.49282540  0.49755525  1
  V  V4  1  -0.00237184  0.62844325  0.12408931  1
  V  V5  1  0.61879407  0.12505287  0.50233457  1
  V  V6  1  0.37317238  0.50462547  0.87383114  1
  V  V7  1  0.62410310  0.75743001  0.37979085  1
  V  V8  1  0.62159446  0.25258612  0.37472307  1
  V  V9  1  0.72500150  0.22852530  0.02064509  1
  V  V10  1  -0.00227820  0.74858295  0.74685217  1
  V  V11  1  0.49822214  0.75538898  0.26190780  1
  V  V12  1  0.76152333  0.87615911  0.12689803  1
  V  V13  1  0.12868269  0.62438224  -0.00105652  1
  V  V14  1  0.49650625  0.75218019  0.74942493  1
  V  V15  1  0.87368154  0.36651442  0.00215241  1
  V  V16  1  0.26134501  0.12021359  0.87072562  1
  V  V17  1  0.37564165  -0.00932160  0.37403439  1
  V  V18  1  0.63583855  0.38989270  0.75002298  1
  V  V19  1  0.37110912  0.62779655  0.74667807  1
  V  V20  1  0.86480113  0.25047027  0.63178254  1
  V  V21  1  0.49862000  0.25007882  0.23602672  1
  V  V22  1  0.24632583  0.62255593  0.37234393  1
  V  V23  1  0.49324061  -0.01481005  0.49744692  1
  V  V24  1  0.12342491  0.88893599  0.74378000  1
  V  V25  1  0.50079053  0.50542581  -0.00092161  1
  V  V26  1  0.12549662  0.49638423  0.13244529  1
  V  V27  1  0.12773165  0.75239537  0.87135604  1
  V  V28  1  0.26559473  0.00550875  0.74749536  1
  V  V29  1  -0.00155435  0.37506885  0.87650548  1
  V  V30  1  0.37865217  0.38104660  0.49915812  1
  V  V31  1  0.24946962  0.37631991  0.62557277  1
  V  V32  1  0.07032054  0.14495719  0.19967588  1
  V  V33  1  0.87028087  0.12291539  0.75788481  1
  V  V34  1  0.24849480  0.88069487  0.61713980  1
  V  V35  1  0.75580226  0.87215253  0.61299948  1
  V  V36  1  0.00523908  0.35272319  0.36759309  1
  V  V37  1  0.87315618  0.62894910  0.24492608  1
  V  V38  1  0.37221483  0.62187595  0.24900660  1
  V  V39  1  0.88061331  0.49818756  0.37043251  1
  V  V40  1  0.77112093  0.75074362  0.00582003  1
  V  V41  1  0.37633197  0.24835733  0.62810127  1
  V  V42  1  0.00183758  0.75511893  0.24410300  1
  V  V43  1  0.62735830  0.63430323  -0.00242753  1
  V  V44  1  -0.00416696  0.62359786  0.62778914  1
  V  V45  1  0.87527660  0.12607045  0.25201931  1
  V  V46  1  0.12537574  0.76222388  0.36898694  1
  V  V47  1  0.49976497  0.37855263  0.87331919  1
  V  V48  1  0.48873431  0.88650551  0.87539779  1
  V  V49  1  -0.00672868  0.87551069  0.87773504  1
  V  V50  1  0.23535527  0.88245236  0.13033710  1
  V  V51  1  0.49916039  0.24347506  0.75082950  1
  V  V52  1  0.12398389  0.11827691  -0.00030414  1
  V  V53  1  0.49897500  0.63346148  0.12574209  1
  V  V54  1  0.74483030  0.24912463  0.50854656  1
  V  V55  1  -0.02380140  0.87405569  0.37845443  1
  V  V56  1  0.75332920  -0.00732739  0.75028628  1
  V  V57  1  0.38508836  0.12193328  0.23977908  1
  V  V58  1  0.62275990  -0.00095941  0.62407383  1
  V  V59  1  0.37163478  0.88580063  0.00049985  1
  V  V60  1  0.74276740  -0.00181540  0.25023428  1
  V  V61  1  0.75267769  0.50286629  0.24702506  1
  V  V62  1  0.24817342  0.25239838  0.49666460  1
  V  V63  1  0.62575553  0.87878607  0.75046619  1
  V  V64  1  0.62710604  0.50504482  0.12569057  1
  V  V65  1  0.50412632  0.61709871  0.62036770  1
  V  V66  1  0.37724266  0.37245422  0.00265033  1
  V  V67  1  0.88144112  -0.00224658  0.88383183  1
  V  V68  1  0.87508682  0.36920071  0.49877806  1
  V  V69  1  0.25489199  0.37301232  0.12443027  1
  V  V70  1  0.37324259  0.75585987  0.61397195  1
  V  V71  1  0.62571649  0.24960934  0.87652033  1
  V  V72  1  0.74911998  0.11672930  0.37891853  1
  V  V73  1  0.75627022  0.37657880  0.12586314  1
  V  V74  1  0.62459308  0.75296781  0.88140761  1
  V  V75  1  0.12229326  0.37624229  0.74697985  1
  V  V76  1  -0.00415436  0.24964430  0.75110591  1
  V  V77  1  0.00072820  0.49618723  0.00150546  1
  V  V78  1  0.89261108  0.24346430  0.12939689  1
  V  V79  1  0.62461501  0.37817386  0.24550712  1
  V  V80  1  0.49605425  0.12509718  0.62651547  1
  V  V81  1  0.25203139  0.13114219  0.37402773  1
  V  V82  1  0.00314520  -0.00215500  0.01542379  1
  V  V83  1  0.12312962  0.49754919  0.62563216  1
  V  V84  1  0.86325086  0.50812150  0.87866336  1
  Zn  Zn85  1  0.79816797  0.56812455  0.72812190  1
  Zn  Zn86  1  0.63682997  0.61494559  0.50070582  1
  Zn  Zn87  1  0.37067998  0.75305029  0.12254790  1
  Zn  Zn88  1  0.88250855  0.75423786  0.61556505  1
  Zn  Zn89  1  0.12816924  0.11971233  0.50670999  1
  Zn  Zn90  1  0.76506153  0.75160265  0.48909047  1
  Zn  Zn91  1  0.25114422  0.75885542  0.49368917  1
  Zn  Zn92  1  0.59597972  0.90603092  0.21344179  1
  Zn  Zn93  1  0.73233070  0.41129479  0.60998082  1
  Zn  Zn94  1  0.49992407  0.37957115  0.37370577  1
  Zn  Zn95  1  0.22789762  0.00646396  0.24476700  1
  Zn  Zn96  1  0.24982044  0.49200103  0.25369981  1
  Zn  Zn97  1  -0.00703465  -0.01193476  0.51116164  1
  Zn  Zn98  1  0.12567511  0.34663583  0.25102767  1
  Zn  Zn99  1  0.51768110  0.49455523  0.49912631  1
  Zn  Zn100  1  0.01513383  0.11178540  0.62951539  1
  Zn  Zn101  1  0.25038646  0.75395037  0.00182164  1
  Zn  Zn102  1  0.25626739  0.24711608  -0.00431670  1
  Zn  Zn103  1  0.24705422  0.50177094  0.75062421  1
  Zn  Zn104  1  0.37924522  0.50179951  0.37777351  1
  Zn  Zn105  1  0.74669363  0.62605282  0.37146346  1
  Zn  Zn106  1  0.25040762  0.62785356  0.87430204  1
  Zn  Zn107  1  0.22024867  0.18532465  0.17751340  1
  Zn  Zn108  1  0.19003513  0.18929800  0.68803587  1
  Zn  Zn109  1  0.18709838  0.69087603  0.18504228  1
  Zn  Zn110  1  0.18601272  0.69173329  0.68469254  1
  Zn  Zn111  1  0.69512058  0.19302953  0.19249589  1
  Zn  Zn112  1  0.68332335  0.18252952  0.69784523  1
  Zn  Zn113  1  0.67972222  0.71256676  0.17727172  1
  Zn  Zn114  1  0.68054921  0.69517983  0.68290437  1
  Zn  Zn115  1  0.31907813  0.31195990  0.31007494  1
  Zn  Zn116  1  0.31225328  0.31334945  0.81162206  1
  Zn  Zn117  1  0.30729797  0.81272079  0.30433595  1
  Zn  Zn118  1  0.30927380  0.81562332  0.80777759  1
  Zn  Zn119  1  0.81231652  0.30798598  0.31533487  1
  Zn  Zn120  1  0.80537764  0.30799680  0.82558353  1
  Zn  Zn121  1  0.80948424  0.80861311  0.30544891  1
  Zn  Zn122  1  0.79306272  0.76656826  0.79350646  1
  Zn  Zn123  1  0.18520447  0.43188040  0.43450190  1
  Zn  Zn124  1  0.18899813  0.43865760  0.93716243  1
  Zn  Zn125  1  0.18682379  0.94501682  0.43616955  1
  Zn  Zn126  1  0.18759563  0.93869889  0.93342160  1
  Zn  Zn127  1  0.68919619  0.44035018  0.43256681  1
  Zn  Zn128  1  0.68624079  0.43319138  0.94345741  1
  Zn  Zn129  1  0.67871270  0.93665242  0.43302735  1
  Zn  Zn130  1  0.69558701  0.92285751  0.93656458  1
  Zn  Zn131  1  0.31184625  0.05899844  0.05951694  1
  Zn  Zn132  1  0.31315730  0.06328272  0.56170841  1
  Zn  Zn133  1  0.31179094  0.56072815  0.06357327  1
  Zn  Zn134  1  0.31083143  0.56319227  0.56277333  1
  Zn  Zn135  1  0.81221598  0.05559493  0.06854504  1
  Zn  Zn136  1  0.81785484  0.05871233  0.56503958  1
  Zn  Zn137  1  0.81262359  0.56656103  0.05713100  1
  Zn  Zn138  1  0.81708213  0.56714123  0.55059808  1
  Zn  Zn139  1  0.44085508  0.44106890  0.18723771  1
  Zn  Zn140  1  0.43758499  0.43606884  0.69053356  1
  Zn  Zn141  1  0.43481200  0.94171075  0.17638029  1
  Zn  Zn142  1  0.43682398  0.93638937  0.68517023  1
  Zn  Zn143  1  0.94416243  0.43444472  0.19019592  1
  Zn  Zn144  1  0.92547997  0.43782997  0.68613830  1
  Zn  Zn145  1  0.93295975  0.94303125  0.19797899  1
  Zn  Zn146  1  0.93727786  0.93748069  0.68974723  1
  Zn  Zn147  1  0.07549402  0.04725869  0.35121590  1
  Zn  Zn148  1  0.06307756  0.06498991  0.81336220  1
  Zn  Zn149  1  0.06093819  0.56352205  0.31172177  1
  Zn  Zn150  1  0.05812005  0.56118814  0.81409614  1
  Zn  Zn151  1  0.55773159  0.06430470  0.31688361  1
  Zn  Zn152  1  0.55219406  0.05401410  0.94250868  1
  Zn  Zn153  1  0.56228232  0.56689675  0.31774296  1
  Zn  Zn154  1  0.56258818  0.56807399  0.81107836  1
  Zn  Zn155  1  0.43415090  0.18725332  0.43531052  1
  Zn  Zn156  1  0.43567945  0.18947185  0.93248421  1
  Zn  Zn157  1  0.43501836  0.68384968  0.43797706  1
  Zn  Zn158  1  0.43606605  0.69604063  0.93815607  1
  Zn  Zn159  1  0.92624451  0.15283482  0.45295367  1
  Zn  Zn160  1  0.93757779  0.18255492  0.94114663  1
  Zn  Zn161  1  0.93884026  0.68690098  0.43503956  1
  Zn  Zn162  1  0.94597794  0.68480660  0.93397519  1
  Zn  Zn163  1  0.06496262  0.30740705  0.06521905  1
  Zn  Zn164  1  0.04337404  0.27709901  0.54463888  1
  Zn  Zn165  1  0.06055538  0.81193514  0.05867090  1
  Zn  Zn166  1  0.06405916  0.81447517  0.55829633  1
  Zn  Zn167  1  0.55604220  0.19000990  0.06274418  1
  Zn  Zn168  1  0.56358209  0.31829876  0.56752648  1
  Zn  Zn169  1  0.56000427  0.83525881  0.06916384  1
  Zn  Zn170  1  0.56393236  0.80829973  0.56293674  1
  O  O171  1  0.13190342  0.13664493  0.10577353  1
  O  O172  1  0.12807813  0.13116106  0.62007216  1
  O  O173  1  0.11880988  0.61707579  0.11768380  1
  O  O174  1  0.12097304  0.61880428  0.61594973  1
  O  O175  1  0.66335329  0.16222336  0.08874800  1
  O  O176  1  0.61830392  0.11744395  0.62312574  1
  O  O177  1  0.61845605  0.62851832  0.11521719  1
  O  O178  1  0.60685622  0.63383242  0.62217142  1
  O  O179  1  0.37743314  0.37902966  0.38478432  1
  O  O180  1  0.38105881  0.38628337  0.87620556  1
  O  O181  1  0.36379259  0.89193943  0.36813243  1
  O  O182  1  0.38251826  0.87081996  0.87869261  1
  O  O183  1  0.88358849  0.37776599  0.37763283  1
  O  O184  1  0.87752289  0.37595489  0.88940571  1
  O  O185  1  0.87776569  0.86743694  0.37650960  1
  O  O186  1  0.89097710  0.88243020  0.86829476  1
  O  O187  1  0.25980945  0.01008038  0.36719013  1
  O  O188  1  0.24700325  0.00714158  0.85885360  1
  O  O189  1  0.24773897  0.51109705  0.37278251  1
  O  O190  1  0.26205916  0.50443313  0.87299572  1
  O  O191  1  0.74409970  0.01154661  0.37201945  1
  O  O192  1  0.76573431  -0.00673416  0.86704601  1
  O  O193  1  0.76645834  0.49848614  0.36466781  1
  O  O194  1  0.76387684  0.49685567  0.88679358  1
  O  O195  1  0.24139664  0.49056606  0.12571689  1
  O  O196  1  0.24142630  0.49395551  0.62695955  1
  O  O197  1  0.24877754  0.98872331  0.12760625  1
  O  O198  1  0.25590725  0.99455663  0.63554107  1
  O  O199  1  0.74666861  0.49674115  0.12650792  1
  O  O200  1  0.78582312  0.50351916  0.63786536  1
  O  O201  1  0.74526910  0.98481890  0.13081048  1
  O  O202  1  0.74571271  0.99222883  0.62964318  1
  O  O203  1  0.00450898  0.36912602  0.26193016  1
  O  O204  1  0.00190614  0.36963646  0.75788472  1
  O  O205  1  -0.01103537  0.85746378  0.25193335  1
  O  O206  1  0.00943621  0.86875315  0.75562006  1
  O  O207  1  0.50871445  0.37052881  0.25117392  1
  O  O208  1  0.50910830  0.37285731  0.75935086  1
  O  O209  1  0.49134975  0.85562717  0.25491841  1
  O  O210  1  0.50370984  0.87175652  0.75737964  1
  O  O211  1  0.49418146  0.13354071  0.24916922  1
  O  O212  1  0.50316017  0.14265753  0.74116953  1
  O  O213  1  0.49024493  0.62915048  0.24354591  1
  O  O214  1  0.49011640  0.63100287  0.74047081  1
  O  O215  1  0.97820785  0.12475650  0.25924476  1
  O  O216  1  0.98986690  0.13379722  0.75120340  1
  O  O217  1  0.99454719  0.63037891  0.24067380  1
  O  O218  1  1.01053484  0.63445506  0.73921175  1
  O  O219  1  0.37591436  0.27013207  -0.00964413  1
  O  O220  1  0.37240415  0.26221531  0.50895860  1
  O  O221  1  0.36868262  0.76085811  0.00174032  1
  O  O222  1  0.36989542  0.74637768  0.51029738  1
  O  O223  1  0.87865455  0.25465779  0.01061836  1
  O  O224  1  0.86143425  0.24769127  0.51348961  1
  O  O225  1  0.86759663  0.74865353  -0.01239238  1
  O  O226  1  0.87852050  0.74903970  0.50268993  1
  O  O227  1  0.14888023  0.26322096  0.50163110  1
  O  O228  1  0.12458019  0.24564718  0.98556468  1
  O  O229  1  0.12694219  0.74092389  0.48885949  1
  O  O230  1  0.12554387  0.74112696  0.98933934  1
  O  O231  1  0.62879910  0.24857919  0.49621742  1
  O  O232  1  0.62351485  0.26201368  0.98556361  1
  O  O233  1  0.62324819  0.74792696  0.48610925  1
  O  O234  1  0.61874943  0.74824165  0.99564717  1
  O  O235  1  0.50589308  0.25875118  0.13742793  1
  O  O236  1  0.49463209  0.24869192  0.63168672  1
  O  O237  1  0.49790066  0.74134429  0.13660076  1
  O  O238  1  0.48996983  0.74494819  0.63016262  1
  O  O239  1  0.99618186  0.23573390  0.12896338  1
  O  O240  1  0.98389459  0.25662804  0.64531361  1
  O  O241  1  1.00639722  0.73864574  0.12946539  1
  O  O242  1  1.00772820  0.74156427  0.63073783  1
  O  O243  1  -0.00636130  0.25717464  0.37764779  1
  O  O244  1  0.00407301  0.25429068  0.86796731  1
  O  O245  1  0.00694957  0.75745539  0.36500223  1
  O  O246  1  0.00969498  0.75539936  0.86776511  1
  O  O247  1  0.51309134  0.25226089  0.37082082  1
  O  O248  1  0.50406191  0.26141997  0.86752444  1
  O  O249  1  0.50435268  0.74325856  0.36807733  1
  O  O250  1  0.50762745  0.75740639  0.86721396  1
  O  O251  1  0.25561384  0.13590058  0.49269162  1
  O  O252  1  0.24502734  0.12487406  0.98900322  1
  O  O253  1  0.23847681  0.62521491  0.49265595  1
  O  O254  1  0.23803827  0.62586468  0.99954004  1
  O  O255  1  0.73957148  0.13172197  0.49593675  1
  O  O256  1  0.77303316  0.13274133  0.98827354  1
  O  O257  1  0.75207037  0.63277361  0.48989214  1
  O  O258  1  0.74142004  0.64177994  1.00226315  1
  O  O259  1  0.26094905  0.37906215  0.00432573  1
  O  O260  1  0.25944370  0.37308142  0.50619225  1
  O  O261  1  0.25792095  0.87666683  0.00234698  1
  O  O262  1  0.24191307  0.87949338  0.51296316  1
  O  O263  1  0.75620253  0.36168200  0.00778436  1
  O  O264  1  0.75606194  0.36497107  0.50132138  1
  O  O265  1  0.74979882  0.86215629  0.01567331  1
  O  O266  1  0.74320503  0.87890435  0.51127142  1
  O  O267  1  0.12558436  0.50244826  0.23695602  1
  O  O268  1  0.12440913  0.49323339  0.74633297  1
  O  O269  1  0.11622260  1.05563397  0.24158626  1
  O  O270  1  0.12873796  0.99046121  0.75362812  1
  O  O271  1  0.63100982  0.49677787  0.24527729  1
  O  O272  1  0.62695684  0.48988874  0.75825327  1
  O  O273  1  0.63568965  1.00397155  0.25754117  1
  O  O274  1  0.63349798  0.98594755  0.74373241  1
  O  O275  1  0.38706298  0.01045351  0.25783286  1
  O  O276  1  0.36373727  -0.00070954  0.74971290  1
  O  O277  1  0.37204351  0.51148080  0.25084720  1
  O  O278  1  0.37329032  0.50923421  0.75683576  1
  O  O279  1  0.85797157  0.01776674  0.24726340  1
  O  O280  1  0.87168600  0.00687289  0.75908549  1
  O  O281  1  0.87510693  0.50609972  0.25264968  1
  O  O282  1  0.87930267  0.49657913  0.77369260  1
  O  O283  1  0.11126820  0.37147057  0.36957958  1
  O  O284  1  0.12101041  0.36899251  0.86845632  1
  O  O285  1  0.13035904  0.86281965  0.37187697  1
  O  O286  1  0.11897580  0.86788220  0.86582787  1
  O  O287  1  0.62788246  0.36919860  0.36164101  1
  O  O288  1  0.61759539  0.37235099  0.86895711  1
  O  O289  1  0.62201934  0.85904758  0.36959817  1
  O  O290  1  0.61271992  0.87119520  0.86973671  1
  O  O291  1  0.36970495  0.11938998  0.14035059  1
  O  O292  1  0.38020789  0.14037393  0.62090965  1
  O  O293  1  0.38117668  0.62691632  0.13119594  1
  O  O294  1  0.37968627  0.63263441  0.63083803  1
  O  O295  1  0.86647683  0.13270920  0.13998436  1
  O  O296  1  0.86616849  0.13730186  0.64517605  1
  O  O297  1  0.89032231  0.61554265  0.12891406  1
  O  O298  1  0.89319560  0.62683145  0.62378646  1
  O  O299  1  0.25451796  0.26828456  0.11184380  1
  O  O300  1  0.26102224  0.25853119  0.62240438  1
  O  O301  1  0.25041336  0.76383046  0.12398402  1
  O  O302  1  0.25671702  0.76005376  0.62205355  1
  O  O303  1  0.76684353  0.26158255  0.12127627  1
  O  O304  1  0.74824308  0.24535942  0.61889145  1
  O  O305  1  0.76918118  0.74804193  0.11097964  1
  O  O306  1  0.74820228  0.76548501  0.61708760  1
  O  O307  1  0.26629962  0.24375370  0.38571913  1
  O  O308  1  0.24076238  0.24444375  0.87294146  1
  O  O309  1  0.24312458  0.73982365  0.37291647  1
  O  O310  1  0.23747547  0.74941096  0.87324806  1
  O  O311  1  0.73713822  0.24532011  0.38573730  1
  O  O312  1  0.73664547  0.23764872  0.89076419  1
  O  O313  1  0.73470979  0.74975546  0.37027676  1
  O  O314  1  0.73213278  0.76608069  0.89328629  1
  O  O315  1  0.01128429  0.11154158  -0.00651377  1
  O  O316  1  0.01587819  0.16636540  0.51846218  1
  O  O317  1  0.01107570  0.61953060  0.00633063  1
  O  O318  1  0.01216037  0.61579250  0.50356976  1
  O  O319  1  0.49222185  0.12423235  0.00187474  1
  O  O320  1  0.50385648  0.12344564  0.50823758  1
  O  O321  1  0.50375059  0.62475980  0.00839661  1
  O  O322  1  0.49541370  0.62144847  0.51479355  1
  O  O323  1  0.49247291  0.37656626  0.49988359  1
  O  O324  1  0.49322164  0.38870950  0.98348013  1
  O  O325  1  0.49922620  0.88657078  0.50856635  1
  O  O326  1  0.48493348  0.86795285  0.98214310  1
  O  O327  1  0.99346696  0.37240410  0.49026129  1
  O  O328  1  0.99401150  0.37573577  0.99689137  1
  O  O329  1  1.00118699  0.87331559  0.48154057  1
  O  O330  1  1.00681592  0.88458169  0.98889205  1
  O  O331  1  0.49742834  0.49809389  0.38076281  1
  O  O332  1  0.49023370  0.49878424  0.87543481  1
  O  O333  1  0.48737087  1.00167206  0.38447662  1
  O  O334  1  0.49888586  0.98443591  0.86839570  1
  O  O335  1  0.99248493  0.49347452  0.37700947  1
  O  O336  1  0.99534116  0.49167301  0.88492247  1
  O  O337  1  0.99098109  0.97068238  0.35056391  1
  O  O338  1  0.99616869  0.99285390  0.87761985  1
  O  O339  1  -0.00693058  -0.00461796  0.11470298  1
  O  O340  1  -0.00078354  -0.00038884  0.62407982  1
  O  O341  1  0.00849524  0.50402083  0.11966768  1
  O  O342  1  0.00355013  0.50367358  0.61965905  1
  O  O343  1  0.53147275  -0.06396105  0.12199617  1
  O  O344  1  0.50176070  0.00652668  0.61976334  1
  O  O345  1  0.50837671  0.51441553  0.12184632  1
  O  O346  1  0.49487812  0.51546374  0.62768966  1
  O  O347  1  0.24605248  0.37207306  0.24160405  1
  O  O348  1  0.24115576  0.37673239  0.74349560  1
  O  O349  1  0.24703397  0.88348792  0.23571462  1
  O  O350  1  0.24308462  0.88759107  0.74277851  1
  O  O351  1  0.74699262  0.38152392  0.24502934  1
  O  O352  1  0.73543616  0.37117935  0.75834714  1
  O  O353  1  0.75408768  0.88703511  0.24441205  1
  O  O354  1  0.74103431  0.87109537  0.74226792  1
  O  O355  1  0.26983412  0.12310263  0.25708622  1
  O  O356  1  0.24637457  0.11160349  0.75448909  1
  O  O357  1  0.25576672  0.62333898  0.25517228  1
  O  O358  1  0.26088190  0.62546763  0.74887130  1
  O  O359  1  0.75115947  0.12063698  0.26026989  1
  O  O360  1  0.75155358  0.11321225  0.76818810  1
  O  O361  1  0.75913487  0.62023812  0.24630256  1
  O  O362  1  0.75340297  0.66157545  0.75981219  1
  O  O363  1  0.37173861  0.11732464  0.36623632  1
  O  O364  1  0.35955936  0.13432480  0.86951754  1
  O  O365  1  0.36358035  0.62331827  0.36829202  1
  O  O366  1  0.37530221  0.62188852  0.86599253  1
  O  O367  1  0.85654857  0.14307149  0.36158543  1
  O  O368  1  0.87660215  0.11618986  0.86710209  1
  O  O369  1  0.87958019  0.61341692  0.36220491  1
  O  O370  1  0.87865166  0.60737338  0.88517894  1
  O  O371  1  0.13143180  0.37986324  0.12860805  1
  O  O372  1  0.12784781  0.37888523  0.63451728  1
  O  O373  1  0.13733630  0.87453203  0.11692766  1
  O  O374  1  0.13460387  0.86898426  0.63448545  1
  O  O375  1  0.63495715  0.38371460  0.13892541  1
  O  O376  1  0.62813407  0.37553715  0.64370213  1
  O  O377  1  0.65505585  0.83345465  0.14286641  1
  O  O378  1  0.63059058  0.87927061  0.63169151  1
  O  O379  1  0.12282173  0.22706735  0.23536725  1
  O  O380  1  0.11498418  0.25471206  0.75966123  1
  O  O381  1  0.11290180  0.73991607  0.25835360  1
  O  O382  1  0.11910195  0.75772415  0.75591676  1
  O  O383  1  0.62189423  0.25813497  0.25724785  1
  O  O384  1  0.61832731  0.25953648  0.76083918  1
  O  O385  1  0.60540593  0.73884302  0.26353516  1
  O  O386  1  0.61575963  0.76275661  0.75785179  1
  O  O387  1  0.38842439  0.23739751  0.25310287  1
  O  O388  1  0.38649974  0.26189329  0.73957355  1
  O  O389  1  0.38253757  0.73851111  0.25034097  1
  O  O390  1  0.37735318  0.74367757  0.74266838  1
  O  O391  1  0.86633597  0.23999305  0.23947136  1
  O  O392  1  0.87457005  0.24485154  0.75309113  1
  O  O393  1  0.88279755  0.73397749  0.25228108  1
  O  O394  1  0.89507327  0.75733982  0.74186506  1
  O  O395  1  0.37501307  0.48852084  0.50274932  1
  O  O396  1  0.38168848  0.49963704  0.99067712  1
  O  O397  1  0.38027747  1.00416850  0.48475693  1
  O  O398  1  0.37464789  0.98575459  0.99649742  1
  O  O399  1  0.88434570  0.49060461  0.48765820  1
  O  O400  1  0.88067743  0.48897169  0.99635212  1
  O  O401  1  0.89563899  1.04510016  0.48878431  1
  O  O402  1  0.88401724  1.00362097  0.98932090  1
  O  O403  1  0.11703091  0.00857946  -0.00657906  1
  O  O404  1  0.10092373  0.01419642  0.46353681  1
  O  O405  1  0.12053142  0.50504721  0.00747892  1
  O  O406  1  0.11963496  0.50383189  0.50380718  1
  O  O407  1  0.66059932  0.02846509  -0.03850448  1
  O  O408  1  0.61351577  0.00578246  0.50395295  1
  O  O409  1  0.62031603  0.51008532  0.00574539  1
  O  O410  1  0.63227351  0.49863244  0.50769509  1
  O  O411  1  0.36907466  0.38897261  0.11308998  1
  O  O412  1  0.37110185  0.36973522  0.61988872  1
  O  O413  1  0.36349631  0.87451658  0.11163993  1
  O  O414  1  0.36376139  0.86533121  0.63109703  1
  O  O415  1  0.87951679  0.36756684  0.11743204  1
  O  O416  1  0.87005699  0.36025443  0.61973606  1
  O  O417  1  0.86143747  0.87395886  0.13327903  1
  O  O418  1  0.85775031  0.87653977  0.62930349  1
  O  O419  1  0.14970559  0.13550722  0.37788386  1
  O  O420  1  0.13180650  0.13317243  0.88044663  1
  O  O421  1  0.12899824  0.62981085  0.38064339  1
  O  O422  1  0.12482332  0.63117010  0.88228430  1
  O  O423  1  0.62960842  0.13440350  0.38192830  1
  O  O424  1  0.62152520  0.13809208  0.86948977  1
  O  O425  1  0.62707515  0.63581565  0.37998473  1
  O  O426  1  0.61572654  0.63572754  0.88950165  1
