# generated using pymatgen
data_V85Zn86O256
_symmetry_space_group_name_H-M   'P 1'
_cell_length_a   16.96394060
_cell_length_b   16.98082104
_cell_length_c   16.99279932
_cell_angle_alpha   90.08200155
_cell_angle_beta   89.97984996
_cell_angle_gamma   90.00329252
_symmetry_Int_Tables_number   1
_chemical_formula_structural   V85Zn86O256
_chemical_formula_sum   'V85 Zn86 O256'
_cell_volume   4894.96830731
_cell_formula_units_Z   1
loop_
 _symmetry_equiv_pos_site_id
 _symmetry_equiv_pos_as_xyz
  1  'x, y, z'
loop_
 _atom_site_type_symbol
 _atom_site_label
 _atom_site_symmetry_multiplicity
 _atom_site_fract_x
 _atom_site_fract_y
 _atom_site_fract_z
 _atom_site_occupancy
  V  V0  1  0.12293472  0.50185352  0.62559601  1
  V  V1  1  0.12738150  0.12607198  -0.00321951  1
  V  V2  1  0.87798821  0.49868743  0.37737210  1
  V  V3  1  0.49742852  0.88073821  0.89030672  1
  V  V4  1  0.50151589  0.36869217  0.86160533  1
  V  V5  1  0.24826897  0.25797178  0.00883066  1
  V  V6  1  0.13638763  0.00065094  0.12943903  1
  V  V7  1  0.61324069  -0.00330745  0.60623655  1
  V  V8  1  0.63626348  0.24832343  0.38769181  1
  V  V9  1  0.50197010  0.48973790  0.00075074  1
  V  V10  1  0.85988045  0.87826198  0.00500003  1
  V  V11  1  0.37692803  0.49674952  0.87567833  1
  V  V12  1  0.86230504  0.24883991  0.62468679  1
  V  V13  1  0.75193588  0.37229247  0.12295202  1
  V  V14  1  -0.00216449  0.25279056  0.25259824  1
  V  V15  1  0.50055418  0.74924944  0.25234870  1
  V  V16  1  0.37552430  0.62832762  0.74923093  1
  V  V17  1  0.75033805  0.51583138  0.75797140  1
  V  V18  1  0.88370872  0.63108176  0.25131141  1
  V  V19  1  0.62754330  0.49832826  0.12388504  1
  V  V20  1  0.12004037  0.12343115  0.49942195  1
  V  V21  1  0.87550053  0.37698184  -0.00330621  1
  V  V22  1  0.87722321  0.51272383  0.87456793  1
  V  V23  1  0.86700834  0.12036179  0.75421229  1
  V  V24  1  0.37275687  -0.00357498  0.36223818  1
  V  V25  1  0.62164892  0.24894413  0.86183458  1
  V  V26  1  0.37466741  0.74875213  0.10322230  1
  V  V27  1  -0.00092259  0.87214286  0.88282543  1
  V  V28  1  0.50164390  0.62025929  0.12415702  1
  V  V29  1  -0.00224651  0.37635343  0.87856280  1
  V  V30  1  0.86574003  0.75479628  0.12885406  1
  V  V31  1  0.50397196  0.25150754  0.24961026  1
  V  V32  1  0.13948700  0.87574303  0.24630970  1
  V  V33  1  0.50070112  0.62630187  0.62575508  1
  V  V34  1  0.37205497  0.62534158  0.25081542  1
  V  V35  1  0.00148234  0.62853199  0.12502224  1
  V  V36  1  -0.01212484  0.62662233  0.62942012  1
  V  V37  1  0.13017684  0.24594159  0.87314660  1
  V  V38  1  0.12254671  0.62644109  0.50228220  1
  V  V39  1  0.75199061  0.62548912  0.37435328  1
  V  V40  1  0.25528023  0.37327894  0.62530139  1
  V  V41  1  0.00265118  0.87789827  0.36211599  1
  V  V42  1  0.75583109  0.75215994  0.50355090  1
  V  V43  1  0.75428624  0.11975082  0.38486496  1
  V  V44  1  -0.00256054  0.24837170  0.75000043  1
  V  V45  1  0.62286495  0.12158630  0.00469081  1
  V  V46  1  0.24654574  0.11996698  0.37404506  1
  V  V47  1  0.50580187  0.76902308  0.74350687  1
  V  V48  1  0.37317501  0.88324071  0.49836890  1
  V  V49  1  0.62475335  0.75030427  0.37607887  1
  V  V50  1  -0.00695563  0.12149490  0.62408478  1
  V  V51  1  0.75020511  0.37551588  0.63569847  1
  V  V52  1  0.00171391  0.74256928  0.75713121  1
  V  V53  1  0.88121267  0.87055399  0.49059892  1
  V  V54  1  0.62891033  0.37324789  0.25211392  1
  V  V55  1  0.38766360  0.13363444  0.75776608  1
  V  V56  1  0.86359019  0.77835792  0.65169622  1
  V  V57  1  0.24678007  0.24828827  0.50488007  1
  V  V58  1  0.74099170  -0.00030381  0.23856016  1
  V  V59  1  0.25270483  0.62741421  0.88304625  1
  V  V60  1  0.12405094  0.37523020  0.74938096  1
  V  V61  1  0.75363796  0.49942049  0.25103961  1
  V  V62  1  0.12474257  0.86917257  0.75225686  1
  V  V63  1  0.12016340  0.62111874  -0.00302016  1
  V  V64  1  0.62602877  0.62615423  0.50188107  1
  V  V65  1  0.37610450  0.49768976  0.37976541  1
  V  V66  1  0.74569498  0.11471576  0.87582670  1
  V  V67  1  0.24573878  0.75258754  0.49882255  1
  V  V68  1  0.50232367  0.12136709  0.12878859  1
  V  V69  1  0.25003627  0.50120732  0.75068813  1
  V  V70  1  0.25039164  0.48918404  0.24519003  1
  V  V71  1  0.18450891  0.79271666  0.93673409  1
  V  V72  1  0.24727238  0.62412412  0.37433743  1
  V  V73  1  0.36988716  0.12499602  0.24830307  1
  V  V74  1  0.11862285  0.74839434  0.36576536  1
  V  V75  1  0.12379210  0.49386370  0.12265078  1
  V  V76  1  -0.01022522  -0.00015186  0.49110314  1
  V  V77  1  0.87412395  0.11744056  0.25041343  1
  V  V78  1  0.24836693  0.01110296  0.75176194  1
  V  V79  1  0.43331544  0.19234773  0.57943171  1
  V  V80  1  0.24739095  0.87507123  0.62635632  1
  V  V81  1  0.50585477  0.88140515  0.38028185  1
  V  V82  1  0.87221006  0.37198514  0.50267769  1
  V  V83  1  -0.00041240  0.12362215  0.12431191  1
  V  V84  1  0.62660790  0.49689709  0.63098992  1
  Zn  Zn85  1  0.36837242  0.00191665  0.88384350  1
  Zn  Zn86  1  0.36827476  0.25865606  0.13340718  1
  Zn  Zn87  1  0.87220909  -0.00240082  0.87612602  1
  Zn  Zn88  1  0.63595332  0.87375151  0.24186146  1
  Zn  Zn89  1  0.50429293  0.37629904  0.37942985  1
  Zn  Zn90  1  0.38029830  0.37032410  0.50274510  1
  Zn  Zn91  1  0.49258928  0.00270275  0.00545476  1
  Zn  Zn92  1  -0.00198253  -0.00159017  0.00131659  1
  Zn  Zn93  1  0.62923318  0.75444875  0.87149875  1
  Zn  Zn94  1  0.12612709  0.37211076  0.24984296  1
  Zn  Zn95  1  0.00007123  0.49906241  0.50317523  1
  Zn  Zn96  1  0.00234191  0.37317968  0.37922141  1
  Zn  Zn97  1  0.11724112  -0.00294653  0.62500328  1
  Zn  Zn98  1  0.87526720  0.24948719  0.12197238  1
  Zn  Zn99  1  0.74750258  0.24965663  -0.00331654  1
  Zn  Zn100  1  0.37578269  0.75260469  0.61997712  1
  Zn  Zn101  1  0.26170802  0.87471360  0.11253720  1
  Zn  Zn102  1  0.50247901  0.49848131  0.50041229  1
  Zn  Zn103  1  0.12391698  0.25301000  0.37487847  1
  Zn  Zn104  1  0.75147404  0.73855091  -0.01141326  1
  Zn  Zn105  1  0.37060415  0.37528258  0.00640672  1
  Zn  Zn106  1  0.63577770  0.62105624  -0.01592681  1
  Zn  Zn107  1  0.18423000  0.18766232  0.18884224  1
  Zn  Zn108  1  0.18187494  0.18878236  0.68259169  1
  Zn  Zn109  1  0.19192936  0.68814361  0.18258644  1
  Zn  Zn110  1  0.18649768  0.68883131  0.68921815  1
  Zn  Zn111  1  0.68834514  0.18587245  0.18896407  1
  Zn  Zn112  1  0.65425706  0.14345591  0.70255675  1
  Zn  Zn113  1  0.68839147  0.68447021  0.18536359  1
  Zn  Zn114  1  0.68719578  0.69154223  0.68866203  1
  Zn  Zn115  1  0.31270391  0.31111362  0.31855625  1
  Zn  Zn116  1  0.31340747  0.30973291  0.81561865  1
  Zn  Zn117  1  0.31185379  0.81014023  0.31048030  1
  Zn  Zn118  1  0.32338862  0.81681182  0.80834031  1
  Zn  Zn119  1  0.81641797  0.30968650  0.31109366  1
  Zn  Zn120  1  0.80714433  0.30898728  0.81168837  1
  Zn  Zn121  1  0.81146556  0.81482686  0.31242875  1
  Zn  Zn122  1  0.81571404  0.80838799  0.81717130  1
  Zn  Zn123  1  0.18646327  0.43609581  0.43688656  1
  Zn  Zn124  1  0.18488889  0.43903240  0.93693879  1
  Zn  Zn125  1  0.18256697  0.94048415  0.43775561  1
  Zn  Zn126  1  0.18658047  0.95537075  0.93750767  1
  Zn  Zn127  1  0.69086809  0.43520330  0.44341993  1
  Zn  Zn128  1  0.68658677  0.43393741  0.93328914  1
  Zn  Zn129  1  0.70820963  0.95796045  0.47126696  1
  Zn  Zn130  1  0.67741466  0.93662085  0.93532671  1
  Zn  Zn131  1  0.31388199  0.07005291  0.06094540  1
  Zn  Zn132  1  0.30938349  0.05696409  0.56265009  1
  Zn  Zn133  1  0.31281344  0.56020089  0.06244085  1
  Zn  Zn134  1  0.30999244  0.56311676  0.56274818  1
  Zn  Zn135  1  0.81135997  0.06216666  0.06167330  1
  Zn  Zn136  1  0.77334290  0.08187959  0.58469474  1
  Zn  Zn137  1  0.81618425  0.56043089  0.06090853  1
  Zn  Zn138  1  0.81078075  0.56153765  0.56306019  1
  Zn  Zn139  1  0.43662344  0.43206433  0.18889419  1
  Zn  Zn140  1  0.43777746  0.43872540  0.68607876  1
  Zn  Zn141  1  0.47119605  0.91226299  0.16453631  1
  Zn  Zn142  1  0.43581346  0.95253437  0.67843336  1
  Zn  Zn143  1  0.93985148  0.44061435  0.18497189  1
  Zn  Zn144  1  0.93481146  0.44022344  0.69314264  1
  Zn  Zn145  1  0.93786619  0.93977490  0.18714084  1
  Zn  Zn146  1  0.92564426  0.93403623  0.69190921  1
  Zn  Zn147  1  0.06404147  0.06174558  0.30886666  1
  Zn  Zn148  1  0.06018653  0.05906475  0.81131828  1
  Zn  Zn149  1  0.06234612  0.55901882  0.31019969  1
  Zn  Zn150  1  0.06342210  0.56162852  0.81645453  1
  Zn  Zn151  1  0.56613039  0.06407201  0.32152642  1
  Zn  Zn152  1  0.56163793  0.05097031  0.80782153  1
  Zn  Zn153  1  0.56314456  0.56158322  0.31275829  1
  Zn  Zn154  1  0.56360586  0.56128385  0.81069739  1
  Zn  Zn155  1  0.43913378  0.18910021  0.41889931  1
  Zn  Zn156  1  0.43542129  0.18395632  0.93600219  1
  Zn  Zn157  1  0.43494409  0.68874825  0.44025458  1
  Zn  Zn158  1  0.46713094  0.67718300  0.92524450  1
  Zn  Zn159  1  0.92943613  0.18807821  0.43719979  1
  Zn  Zn160  1  0.93703167  0.19008389  0.93824702  1
  Zn  Zn161  1  0.94044842  0.68826672  0.43886412  1
  Zn  Zn162  1  0.93956355  0.69342698  0.94528669  1
  Zn  Zn163  1  0.05955927  0.31198084  0.06216984  1
  Zn  Zn164  1  0.05886278  0.31115159  0.56307245  1
  Zn  Zn165  1  0.05356133  0.81291577  0.07318862  1
  Zn  Zn166  1  0.05557394  0.81205588  0.56400704  1
  Zn  Zn167  1  0.56373162  0.30593376  0.06079536  1
  Zn  Zn168  1  0.56615435  0.31690920  0.56380005  1
  Zn  Zn169  1  0.57715038  0.80977788  0.06243896  1
  Zn  Zn170  1  0.56586045  0.82255645  0.56253593  1
  O  O171  1  0.11922597  0.11823343  0.12092662  1
  O  O172  1  0.10904758  0.12306589  0.61771028  1
  O  O173  1  0.11990011  0.62119756  0.11829170  1
  O  O174  1  0.12055614  0.62171903  0.61879192  1
  O  O175  1  0.61485566  0.13210055  0.11857323  1
  O  O176  1  0.66016712  0.10590056  0.59842119  1
  O  O177  1  0.61409133  0.61356742  0.13173075  1
  O  O178  1  0.61883059  0.61836161  0.62226530  1
  O  O179  1  0.37683840  0.38469951  0.37975350  1
  O  O180  1  0.38209898  0.37911725  0.87922263  1
  O  O181  1  0.37424216  0.88189435  0.37934723  1
  O  O182  1  0.39112528  0.88465514  0.86627392  1
  O  O183  1  0.87368055  0.38179745  0.38474092  1
  O  O184  1  0.88036789  0.37750374  0.87883297  1
  O  O185  1  0.89077395  0.86414050  0.38078660  1
  O  O186  1  0.88406465  0.87706468  0.88787666  1
  O  O187  1  0.25438606  0.01339323  0.37938352  1
  O  O188  1  0.24973320  -0.00240730  0.85547805  1
  O  O189  1  0.25581631  0.50651582  0.36813418  1
  O  O190  1  0.25619103  0.50711439  0.86926468  1
  O  O191  1  0.74699967  0.01717574  0.37450780  1
  O  O192  1  0.74790549  0.01142007  0.87685481  1
  O  O193  1  0.76157958  0.50516541  0.37296269  1
  O  O194  1  0.75803579  0.49638652  0.86418647  1
  O  O195  1  0.23947264  0.50837682  0.13548659  1
  O  O196  1  0.24215616  0.49492652  0.63097264  1
  O  O197  1  0.23929331  0.99609813  0.11726666  1
  O  O198  1  0.24311861  0.98883678  0.63242806  1
  O  O199  1  0.74807576  0.48836687  0.13083250  1
  O  O200  1  0.74649853  0.49815393  0.63821191  1
  O  O201  1  0.74811484  1.00495288  0.13991875  1
  O  O202  1  0.73658616  0.97752694  0.58261236  1
  O  O203  1  -0.00510331  0.36135680  0.24954627  1
  O  O204  1  0.00340488  0.36857221  0.75780157  1
  O  O205  1  0.01062063  0.88026365  0.25847226  1
  O  O206  1  0.00828831  0.86707124  0.75942759  1
  O  O207  1  0.50927298  0.36769285  0.25607191  1
  O  O208  1  0.49614586  0.37975726  0.76284544  1
  O  O209  1  0.48225253  0.85332427  0.26834927  1
  O  O210  1  0.49156055  0.86725051  0.73738580  1
  O  O211  1  0.49331353  0.13264862  0.24999459  1
  O  O212  1  0.48637821  0.12848933  0.75357930  1
  O  O213  1  0.49245895  0.62774100  0.24436994  1
  O  O214  1  0.49190409  0.62858103  0.73758579  1
  O  O215  1  0.99319082  0.13140444  0.24448429  1
  O  O216  1  0.99378881  0.12914485  0.74168447  1
  O  O217  1  0.98915304  0.62276632  0.24636279  1
  O  O218  1  1.01625888  0.63453479  0.74177571  1
  O  O219  1  0.35415776  0.24705240  -0.00334156  1
  O  O220  1  0.36920502  0.24632005  0.50761071  1
  O  O221  1  0.38845460  0.73497762  0.00714260  1
  O  O222  1  0.36231404  0.76015264  0.49856600  1
  O  O223  1  0.87101722  0.26291323  0.00107811  1
  O  O224  1  0.87973106  0.26076674  0.51242803  1
  O  O225  1  0.87152578  0.75955892  0.01086088  1
  O  O226  1  0.87079506  0.75278707  0.50515225  1
  O  O227  1  0.13012570  0.24232764  0.49870905  1
  O  O228  1  0.12968237  0.24705026  0.99364843  1
  O  O229  1  0.12785770  0.74548278  0.49338834  1
  O  O230  1  0.12301375  0.74105007  1.00414785  1
  O  O231  1  0.62945840  0.25907039  0.48517520  1
  O  O232  1  0.62742795  0.23831048  0.99258750  1
  O  O233  1  0.63488535  0.74613117  0.49814460  1
  O  O234  1  0.62978084  0.74291794  0.99642913  1
  O  O235  1  0.50047901  0.24445999  0.13980804  1
  O  O236  1  0.49319960  0.25604006  0.62806730  1
  O  O237  1  0.48943700  0.73526143  0.13500297  1
  O  O238  1  0.49761392  0.74462424  0.63001658  1
  O  O239  1  1.00092112  0.23856831  0.13195110  1
  O  O240  1  0.99069201  0.23800087  0.62949809  1
  O  O241  1  0.98876571  0.73541185  0.12704694  1
  O  O242  1  0.99119546  0.74466820  0.63740644  1
  O  O243  1  -0.00144336  0.25031647  0.36574590  1
  O  O244  1  0.00748483  0.25760371  0.86935955  1
  O  O245  1  0.01386225  0.75709529  0.37748403  1
  O  O246  1  -0.00167528  0.75979816  0.86925177  1
  O  O247  1  0.51690343  0.25151185  0.36469082  1
  O  O248  1  0.51132100  0.25638779  0.88084287  1
  O  O249  1  0.50715130  0.74700546  0.36985838  1
  O  O250  1  0.49213847  0.76904340  0.85508759  1
  O  O251  1  0.24258453  0.12985979  0.49731010  1
  O  O252  1  0.23291606  0.13777784  1.00365433  1
  O  O253  1  0.24132128  0.63153696  0.49488503  1
  O  O254  1  0.24606413  0.62338159  0.98756511  1
  O  O255  1  0.77425102  0.13374089  0.48013290  1
  O  O256  1  0.74273232  0.12742074  0.99388517  1
  O  O257  1  0.74843125  0.63465433  0.49471109  1
  O  O258  1  0.74554398  0.62420860  1.00758209  1
  O  O259  1  0.24618789  0.36102654  -0.00427571  1
  O  O260  1  0.25145624  0.36535699  0.50706903  1
  O  O261  1  0.23526119  0.86527007  -0.00635109  1
  O  O262  1  0.25119412  0.87255050  0.50633473  1
  O  O263  1  0.75627430  0.37443714  0.00710128  1
  O  O264  1  0.76497996  0.38462989  0.51705291  1
  O  O265  1  0.75836849  0.87861453  -0.00222146  1
  O  O266  1  0.76714661  0.85690646  0.48311368  1
  O  O267  1  0.13461477  0.49907636  0.24257535  1
  O  O268  1  0.13198087  0.49413182  0.74680161  1
  O  O269  1  0.12571205  0.99131878  0.24034807  1
  O  O270  1  0.13143990  0.98756028  0.74855135  1
  O  O271  1  0.63346724  0.49253440  0.24671933  1
  O  O272  1  0.63828176  0.50363677  0.74533282  1
  O  O273  1  0.63907463  1.00356401  0.25501213  1
  O  O274  1  0.62761797  1.03187671  0.72202887  1
  O  O275  1  0.37181864  0.01049016  0.26046724  1
  O  O276  1  0.35977551  0.01368267  0.74542000  1
  O  O277  1  0.36983536  0.50789965  0.25817690  1
  O  O278  1  0.36993650  0.51105724  0.75374807  1
  O  O279  1  0.86838703  0.01243817  0.24660335  1
  O  O280  1  0.88095271  0.01684735  0.75689565  1
  O  O281  1  0.87159979  0.50609500  0.25818282  1
  O  O282  1  0.86419555  0.50120149  0.76379944  1
  O  O283  1  0.12027606  0.37249622  0.37034499  1
  O  O284  1  0.11570876  0.37115376  0.86886657  1
  O  O285  1  0.12428171  0.86822578  0.36458284  1
  O  O286  1  0.12461024  0.86619672  0.87456008  1
  O  O287  1  0.63177854  0.36657221  0.36952746  1
  O  O288  1  0.61817425  0.35837621  0.87610962  1
  O  O289  1  0.61266364  0.86552368  0.36598440  1
  O  O290  1  0.60429944  0.87469464  0.87152791  1
  O  O291  1  0.37683325  0.13786764  0.13742618  1
  O  O292  1  0.37228725  0.12523224  0.63286093  1
  O  O293  1  0.38084404  0.62727898  0.13382414  1
  O  O294  1  0.38115427  0.62559151  0.63119561  1
  O  O295  1  0.88348717  0.12714040  0.12931720  1
  O  O296  1  0.87125433  0.13153791  0.63389910  1
  O  O297  1  0.88284909  0.62812262  0.13346320  1
  O  O298  1  0.88753172  0.62368590  0.62323750  1
  O  O299  1  0.24392540  0.25105464  0.11170886  1
  O  O300  1  0.24238691  0.25859809  0.61370403  1
  O  O301  1  0.27018930  0.74708997  0.12117189  1
  O  O302  1  0.24997850  0.76183262  0.62026829  1
  O  O303  1  0.75213422  0.26315588  0.12573432  1
  O  O304  1  0.76092179  0.26024357  0.63167087  1
  O  O305  1  0.76309213  0.74864042  0.12798404  1
  O  O306  1  0.76287366  0.74504256  0.61835101  1
  O  O307  1  0.25113420  0.23946879  0.38955481  1
  O  O308  1  0.23332843  0.25433266  0.88245518  1
  O  O309  1  0.23907754  0.74390509  0.37888212  1
  O  O310  1  0.25337437  0.74423266  0.87093269  1
  O  O311  1  0.74061061  0.24308730  0.36685029  1
  O  O312  1  0.73611412  0.24461390  0.87631119  1
  O  O313  1  0.74442061  0.74204578  0.37967052  1
  O  O314  1  0.74316186  0.75283479  0.87349283  1
  O  O315  1  0.00830832  0.12814246  0.00892430  1
  O  O316  1  -0.00255099  0.11845162  0.50434474  1
  O  O317  1  0.01131702  0.62665268  0.00848601  1
  O  O318  1  0.00765571  0.62467298  0.51044522  1
  O  O319  1  0.50487503  0.13242005  0.01334742  1
  O  O320  1  0.48742784  0.14330020  0.51227954  1
  O  O321  1  0.49588681  0.60688260  0.01712241  1
  O  O322  1  0.50340716  0.62508875  0.51291597  1
  O  O323  1  0.49706848  0.38088487  0.49775517  1
  O  O324  1  0.50059237  0.38207106  0.99649128  1
  O  O325  1  0.48556489  0.86119547  0.48556666  1
  O  O326  1  0.49846029  0.87607035  0.99100280  1
  O  O327  1  0.98760318  0.37934193  0.50203806  1
  O  O328  1  0.99323366  0.37087751  0.98620216  1
  O  O329  1  1.00511288  0.88160168  0.48274153  1
  O  O330  1  0.99478277  0.87436577  0.99501819  1
  O  O331  1  0.49033011  0.50067408  0.37726657  1
  O  O332  1  0.49695026  0.48930878  0.88374276  1
  O  O333  1  0.48972720  0.98884449  0.36760893  1
  O  O334  1  0.49710994  0.98950362  0.87600466  1
  O  O335  1  0.98771165  0.49818405  0.37591942  1
  O  O336  1  0.98656422  0.48995669  0.86652356  1
  O  O337  1  1.00589631  0.99153172  0.37961828  1
  O  O338  1  1.00261504  0.98364227  0.87732008  1
  O  O339  1  0.00833662  0.01284183  0.12593197  1
  O  O340  1  -0.00600829  0.01138951  0.61958187  1
  O  O341  1  0.01024879  0.51537853  0.13183051  1
  O  O342  1  0.00595004  0.50862372  0.62940167  1
  O  O343  1  0.48821442  0.01990647  0.12949639  1
  O  O344  1  0.50993531  0.00980174  0.61999493  1
  O  O345  1  0.50628956  0.50115758  0.12165528  1
  O  O346  1  0.51016325  0.50772725  0.62603056  1
  O  O347  1  0.25071515  0.38644861  0.25445546  1
  O  O348  1  0.24471886  0.37890687  0.74357380  1
  O  O349  1  0.24237429  0.87200415  0.24239355  1
  O  O350  1  0.24467628  0.87913092  0.74213118  1
  O  O351  1  0.75027118  0.38055288  0.24267659  1
  O  O352  1  0.75648858  0.38601883  0.73931011  1
  O  O353  1  0.75180788  0.89483029  0.25724921  1
  O  O354  1  0.82893653  0.85870273  0.71605153  1
  O  O355  1  0.25923448  0.13494908  0.26091383  1
  O  O356  1  0.23947223  0.11090035  0.74274569  1
  O  O357  1  0.25680376  0.61804003  0.25564185  1
  O  O358  1  0.25675257  0.62339426  0.75880024  1
  O  O359  1  0.75692810  0.11693151  0.25490460  1
  O  O360  1  0.75985503  0.13445879  0.76337611  1
  O  O361  1  0.75986214  0.61761882  0.25547834  1
  O  O362  1  0.74918085  0.61406459  0.74907253  1
  O  O363  1  0.36743530  0.11686843  0.36851112  1
  O  O364  1  0.37338423  0.12159689  0.86200874  1
  O  O365  1  0.36894180  0.61871514  0.36915052  1
  O  O366  1  0.37326789  0.61953235  0.86624777  1
  O  O367  1  0.86391913  0.13318880  0.36038213  1
  O  O368  1  0.86599962  0.12618821  0.87132984  1
  O  O369  1  0.87362656  0.61946556  0.36955517  1
  O  O370  1  0.88528672  0.61016260  0.88430724  1
  O  O371  1  0.11552686  0.39045093  0.12639173  1
  O  O372  1  0.13140923  0.38039369  0.63013741  1
  O  O373  1  0.12584726  0.88207457  0.13196287  1
  O  O374  1  0.12842026  0.87516829  0.63437079  1
  O  O375  1  0.63326790  0.37891940  0.13034966  1
  O  O376  1  0.63528408  0.38945015  0.62196169  1
  O  O377  1  0.58010427  0.87953050  0.14510528  1
  O  O378  1  0.61981363  0.89329305  0.62758648  1
  O  O379  1  0.11377103  0.25172938  0.25229658  1
  O  O380  1  0.11875003  0.25459417  0.75627062  1
  O  O381  1  0.13058976  0.75731349  0.25619454  1
  O  O382  1  0.11875892  0.76171227  0.74804264  1
  O  O383  1  0.62126207  0.25671912  0.25509387  1
  O  O384  1  0.62385384  0.23874308  0.76329271  1
  O  O385  1  0.61577397  0.74707635  0.25532019  1
  O  O386  1  0.60789739  0.75043282  0.74601750  1
  O  O387  1  0.38530349  0.24251240  0.25818239  1
  O  O388  1  0.36104378  0.23108817  0.74958856  1
  O  O389  1  0.37970860  0.73404105  0.25290805  1
  O  O390  1  0.38339038  0.73973895  0.74262249  1
  O  O391  1  0.88181912  0.23996116  0.24358709  1
  O  O392  1  0.88079553  0.24253042  0.74481064  1
  O  O393  1  0.87114483  0.74042284  0.24553919  1
  O  O394  1  0.89290648  0.73304298  0.74924576  1
  O  O395  1  0.37304193  0.50320237  0.48750606  1
  O  O396  1  0.38214512  0.49747852  0.99279217  1
  O  O397  1  0.36751728  0.98771897  0.48859204  1
  O  O398  1  0.37827706  1.00938967  0.99677285  1
  O  O399  1  0.87723635  0.49595902  0.49237555  1
  O  O400  1  0.87174975  0.48677286  0.98596199  1
  O  O401  1  0.88843151  0.98703972  0.49509483  1
  O  O402  1  0.87877218  0.99283129  0.99921179  1
  O  O403  1  0.11886873  0.01146675  0.00791354  1
  O  O404  1  0.11292518  0.00684731  0.50359262  1
  O  O405  1  0.13040128  0.51049608  0.00915672  1
  O  O406  1  0.12322636  0.50821964  0.50644563  1
  O  O407  1  0.61569458  0.01687220  -0.00405573  1
  O  O408  1  0.60418542  -0.00937384  0.50099565  1
  O  O409  1  0.61737503  0.49877473  0.00438639  1
  O  O410  1  0.62863726  0.50975832  0.51076719  1
  O  O411  1  0.37645037  0.36985928  0.12058123  1
  O  O412  1  0.35866059  0.38452190  0.62289408  1
  O  O413  1  0.37946692  0.85336105  0.12253235  1
  O  O414  1  0.36492193  0.87784951  0.61511126  1
  O  O415  1  0.86994858  0.37742803  0.11477273  1
  O  O416  1  0.87175716  0.36962530  0.62261399  1
  O  O417  1  0.88351699  0.86593151  0.11791375  1
  O  O418  1  0.90721705  0.86659985  0.59695239  1
  O  O419  1  0.13177946  0.12664245  0.38023507  1
  O  O420  1  0.11423232  0.13428222  0.88378809  1
  O  O421  1  0.12615040  0.63116837  0.37942476  1
  O  O422  1  0.13516292  0.62161403  0.88617530  1
  O  O423  1  0.63901638  0.13878101  0.37470171  1
  O  O424  1  0.62873741  0.13203233  0.88078905  1
  O  O425  1  0.63108051  0.62902705  0.38241958  1
  O  O426  1  0.57860818  0.64190502  0.88521675  1
