# generated using pymatgen
data_V85Zn86O256
_symmetry_space_group_name_H-M   'P 1'
_cell_length_a   16.95129636
_cell_length_b   16.94235818
_cell_length_c   16.93005473
_cell_angle_alpha   89.97107361
_cell_angle_beta   89.99814528
_cell_angle_gamma   90.00434504
_symmetry_Int_Tables_number   1
_chemical_formula_structural   V85Zn86O256
_chemical_formula_sum   'V85 Zn86 O256'
_cell_volume   4862.22532428
_cell_formula_units_Z   1
loop_
 _symmetry_equiv_pos_site_id
 _symmetry_equiv_pos_as_xyz
  1  'x, y, z'
loop_
 _atom_site_type_symbol
 _atom_site_label
 _atom_site_symmetry_multiplicity
 _atom_site_fract_x
 _atom_site_fract_y
 _atom_site_fract_z
 _atom_site_occupancy
  V  V0  1  0.87613176  0.47842123  0.87880813  1
  V  V1  1  0.12725659  0.12564133  0.50812037  1
  V  V2  1  0.00034015  0.87458828  0.37731068  1
  V  V3  1  0.50886168  0.75638111  0.24609262  1
  V  V4  1  0.73536661  -0.00460890  0.25229319  1
  V  V5  1  0.87447114  0.87421866  0.50281099  1
  V  V6  1  0.40563570  0.08495040  0.77243494  1
  V  V7  1  0.87353723  0.49862135  0.37555157  1
  V  V8  1  0.38238907  0.49613106  0.37840089  1
  V  V9  1  0.00109982  0.87514489  0.88007873  1
  V  V10  1  0.12493455  0.37459402  0.24911206  1
  V  V11  1  0.74925850  0.62438167  0.37286397  1
  V  V12  1  -0.00212981  0.12654541  0.63437001  1
  V  V13  1  0.87459650  -0.00103557  0.37570247  1
  V  V14  1  0.37940766  0.75900791  0.62022262  1
  V  V15  1  0.62351766  0.24967640  0.37530071  1
  V  V16  1  0.62762009  0.11872175  -0.00317050  1
  V  V17  1  0.86638423  0.24888327  0.11730511  1
  V  V18  1  0.87530508  0.74705895  0.12673455  1
  V  V19  1  0.24579802  0.13044395  0.86898540  1
  V  V20  1  0.37942134  0.62889090  0.24796230  1
  V  V21  1  0.25152176  0.74501638  -0.00432679  1
  V  V22  1  0.76373130  0.01045398  0.75649190  1
  V  V23  1  0.75098075  0.49388371  0.24821907  1
  V  V24  1  0.25099332  0.12457886  0.37974057  1
  V  V25  1  0.37441090  0.37521868  -0.00304453  1
  V  V26  1  0.63301605  0.25350124  0.87919224  1
  V  V27  1  0.75197584  0.24874308  0.50401492  1
  V  V28  1  0.12314512  0.12555536  -0.00650827  1
  V  V29  1  0.49673107  -0.00782208  0.50691259  1
  V  V30  1  0.00677283  0.62195559  0.62225388  1
  V  V31  1  0.62456302  0.76515337  0.87177379  1
  V  V32  1  0.50561168  0.25876699  0.75051930  1
  V  V33  1  0.23851536  0.00239698  0.75082506  1
  V  V34  1  0.12538451  0.74632528  0.38001428  1
  V  V35  1  0.75018701  0.12436582  0.37751224  1
  V  V36  1  0.50332451  0.37983790  0.87012908  1
  V  V37  1  -0.00283769  0.74762104  0.74977947  1
  V  V38  1  0.50377441  0.62162726  0.62838668  1
  V  V39  1  0.12748638  0.74083212  0.87337021  1
  V  V40  1  0.75048409  0.74378153  -0.00582801  1
  V  V41  1  0.12632771  0.24949891  0.37900138  1
  V  V42  1  -0.00190802  0.24658029  0.25016090  1
  V  V43  1  0.11891622  -0.00135110  0.11929809  1
  V  V44  1  0.38273258  0.88625674  -0.02081030  1
  V  V45  1  0.01409576  0.50391909  0.50169120  1
  V  V46  1  0.87334701  0.12213095  0.25141130  1
  V  V47  1  0.74797632  0.87420532  0.63735895  1
  V  V48  1  0.37340647  0.26793815  0.62732835  1
  V  V49  1  0.50550771  0.75812434  0.75348754  1
  V  V50  1  0.25123840  0.37396329  0.12437943  1
  V  V51  1  0.25027586  0.88054035  0.62204064  1
  V  V52  1  0.36194925  0.62984180  0.75271947  1
  V  V53  1  0.49878601  0.50217737  0.00156217  1
  V  V54  1  0.62571562  0.61569615  0.50448279  1
  V  V55  1  0.37379891  0.24764360  0.12205739  1
  V  V56  1  0.00479567  0.00033031  0.50801614  1
  V  V57  1  0.87474058  0.87537386  -0.00271847  1
  V  V58  1  0.36125575  0.50870827  0.87360817  1
  V  V59  1  0.25389315  0.87634471  0.12056013  1
  V  V60  1  0.62534902  0.62453559  -0.00806775  1
  V  V61  1  0.74537670  0.36846443  0.11266324  1
  V  V62  1  0.12154846  0.87323736  0.74238183  1
  V  V63  1  0.13950698  0.39537964  0.75284597  1
  V  V64  1  0.49763902  0.12694789  0.62682173  1
  V  V65  1  0.87679801  0.25096364  0.63644380  1
  V  V66  1  0.37349231  -0.00720812  0.38232240  1
  V  V67  1  0.12425707  0.50309883  0.12329351  1
  V  V68  1  -0.00284472  0.11979127  0.12390171  1
  V  V69  1  0.74746612  0.75046744  0.50204207  1
  V  V70  1  0.74032853  0.87293495  0.12769742  1
  V  V71  1  0.01329445  0.26597843  0.75865463  1
  V  V72  1  0.50867557  0.87703373  0.37313793  1
  V  V73  1  0.62539631  -0.00359079  0.63405478  1
  V  V74  1  0.73650279  0.50162458  0.75398250  1
  V  V75  1  0.25637063  0.75693851  0.50054724  1
  V  V76  1  0.73692006  0.38080361  0.62965127  1
  V  V77  1  -0.06158249  0.04586162  -0.05880032  1
  V  V78  1  0.87716095  0.37689829  0.50432423  1
  V  V79  1  0.37500961  0.12386929  0.25235151  1
  V  V80  1  0.49564194  0.11670095  0.11487365  1
  V  V81  1  -0.00152925  0.37585307  0.37398954  1
  V  V82  1  0.87259469  0.62051194  0.75995572  1
  V  V83  1  0.25022825  0.62713138  0.37589625  1
  V  V84  1  0.12522804  0.87517576  0.25033676  1
  Zn  Zn85  1  0.50082524  0.49030694  0.50926031  1
  Zn  Zn86  1  0.50261015  0.62858326  0.12391956  1
  Zn  Zn87  1  0.62621278  0.12310331  0.50418350  1
  Zn  Zn88  1  0.87245516  0.74500123  0.62672778  1
  Zn  Zn89  1  0.49457919  0.36840248  0.37806215  1
  Zn  Zn90  1  0.24916762  0.00005213  0.25077284  1
  Zn  Zn91  1  0.37786149  0.75394331  0.12067038  1
  Zn  Zn92  1  0.76285142  0.12783217  0.87819521  1
  Zn  Zn93  1  0.12582369  0.62174306  -0.00178230  1
  Zn  Zn94  1  0.87718007  0.62248847  0.24756521  1
  Zn  Zn95  1  0.25387633  0.50219326  0.25035906  1
  Zn  Zn96  1  0.24340782  0.25142527  -0.00950604  1
  Zn  Zn97  1  0.23930117  0.40746498  0.61410331  1
  Zn  Zn98  1  0.62535481  0.50056654  0.12461932  1
  Zn  Zn99  1  0.50026097  0.25056016  0.24955486  1
  Zn  Zn100  1  -0.00156425  0.74877463  0.25085605  1
  Zn  Zn101  1  0.00332276  0.62735037  0.12535514  1
  Zn  Zn102  1  0.25985174  0.25878139  0.50198357  1
  Zn  Zn103  1  0.61474645  -0.00731284  0.12129518  1
  Zn  Zn104  1  0.62129103  0.37369473  0.24958336  1
  Zn  Zn105  1  0.00053669  0.49259875  -0.00804277  1
  Zn  Zn106  1  0.62737903  0.75399637  0.37138241  1
  Zn  Zn107  1  0.18814319  0.18575965  0.18634959  1
  Zn  Zn108  1  0.18673021  0.19246541  0.68688933  1
  Zn  Zn109  1  0.19030271  0.69120551  0.18870937  1
  Zn  Zn110  1  0.18832744  0.57919579  0.68552229  1
  Zn  Zn111  1  0.68319823  0.18359371  0.18737950  1
  Zn  Zn112  1  0.68528456  0.18849312  0.69171281  1
  Zn  Zn113  1  0.68640959  0.68395069  0.18379130  1
  Zn  Zn114  1  0.68755508  0.68418372  0.69029129  1
  Zn  Zn115  1  0.31173933  0.31075785  0.31215332  1
  Zn  Zn116  1  0.31307674  0.31521093  0.80792605  1
  Zn  Zn117  1  0.31611930  0.81407274  0.30967818  1
  Zn  Zn118  1  0.30967128  0.81024741  0.80850392  1
  Zn  Zn119  1  0.81012493  0.31204844  0.30924379  1
  Zn  Zn120  1  0.80906076  0.31318625  0.80753286  1
  Zn  Zn121  1  0.81110564  0.81271247  0.31216595  1
  Zn  Zn122  1  0.81330668  0.81324910  0.81577256  1
  Zn  Zn123  1  0.19396899  0.43856258  0.43569373  1
  Zn  Zn124  1  0.18341717  0.43408295  0.93592684  1
  Zn  Zn125  1  0.18623289  0.93814720  0.44016266  1
  Zn  Zn126  1  0.18931997  0.93829500  0.93481769  1
  Zn  Zn127  1  0.68677010  0.43414271  0.43959869  1
  Zn  Zn128  1  0.68719043  0.43944568  0.93408141  1
  Zn  Zn129  1  0.68529870  0.93909981  0.44538586  1
  Zn  Zn130  1  0.69067593  0.94007416  0.93769011  1
  Zn  Zn131  1  0.30743181  0.05967241  0.05769656  1
  Zn  Zn132  1  0.31548863  0.06424026  0.57013551  1
  Zn  Zn133  1  0.31191858  0.56340362  0.06390199  1
  Zn  Zn134  1  0.32029882  0.57506323  0.55640792  1
  Zn  Zn135  1  0.80113526  0.06450271  0.06845048  1
  Zn  Zn136  1  0.81614729  0.06248583  0.56692431  1
  Zn  Zn137  1  0.81055897  0.56061144  0.06043800  1
  Zn  Zn138  1  0.81671445  0.56207868  0.56781175  1
  Zn  Zn139  1  0.44028534  0.43673707  0.19175899  1
  Zn  Zn140  1  0.43217584  0.44505096  0.69243511  1
  Zn  Zn141  1  0.43488221  0.93778232  0.19096954  1
  Zn  Zn142  1  0.44000494  0.93601143  0.70238833  1
  Zn  Zn143  1  0.95200591  0.41480994  0.14858785  1
  Zn  Zn144  1  0.93778861  0.44005917  0.68781098  1
  Zn  Zn145  1  0.93416031  0.93378522  0.18746442  1
  Zn  Zn146  1  0.93629975  0.93627968  0.68691001  1
  Zn  Zn147  1  0.06338383  0.06018362  0.31529909  1
  Zn  Zn148  1  0.06742676  0.06509580  0.80593437  1
  Zn  Zn149  1  0.06130487  0.56274269  0.30783397  1
  Zn  Zn150  1  0.05451536  0.55979065  0.81563459  1
  Zn  Zn151  1  0.55821553  0.06763954  0.31503472  1
  Zn  Zn152  1  0.57412052  0.06153446  0.81133219  1
  Zn  Zn153  1  0.56555497  0.56508887  0.31070916  1
  Zn  Zn154  1  0.55721624  0.57038831  0.81662567  1
  Zn  Zn155  1  0.43922873  0.18427350  0.44323286  1
  Zn  Zn156  1  0.43864950  0.18851445  0.93598660  1
  Zn  Zn157  1  0.44042285  0.68830422  0.43701864  1
  Zn  Zn158  1  0.43738888  0.69282929  0.93596842  1
  Zn  Zn159  1  0.93790035  0.18809993  0.44225813  1
  Zn  Zn160  1  0.93713038  0.21414271  0.93599332  1
  Zn  Zn161  1  0.93555217  0.68636261  0.43806947  1
  Zn  Zn162  1  0.94131385  0.68098027  0.94191426  1
  Zn  Zn163  1  0.06038786  0.31008361  0.05762416  1
  Zn  Zn164  1  0.06815468  0.31745266  0.56773045  1
  Zn  Zn165  1  0.06271535  0.81156856  0.05974888  1
  Zn  Zn166  1  0.06445083  0.80458442  0.56335265  1
  Zn  Zn167  1  0.56168541  0.30935135  0.05933711  1
  Zn  Zn168  1  0.56050077  0.31202483  0.55574474  1
  Zn  Zn169  1  0.55836752  0.81360085  0.05531398  1
  Zn  Zn170  1  0.56522446  0.81184341  0.56375468  1
  O  O171  1  0.11792123  0.11615065  0.12077205  1
  O  O172  1  0.11687224  0.13139298  0.61357927  1
  O  O173  1  0.13101719  0.61590877  0.12568525  1
  O  O174  1  0.10588035  0.63478768  0.62892802  1
  O  O175  1  0.61407792  0.12470136  0.11250172  1
  O  O176  1  0.61329809  0.11932634  0.62818011  1
  O  O177  1  0.62285462  0.62266687  0.10981214  1
  O  O178  1  0.61653908  0.63159845  0.61668885  1
  O  O179  1  0.37104295  0.39317929  0.36788412  1
  O  O180  1  0.38066481  0.38445559  0.87913700  1
  O  O181  1  0.38365404  0.88892386  0.37179668  1
  O  O182  1  0.37226639  0.87483526  0.87971587  1
  O  O183  1  0.88026671  0.37739979  0.38176541  1
  O  O184  1  0.87319915  0.37895961  0.87627945  1
  O  O185  1  0.87995089  0.87896872  0.38265834  1
  O  O186  1  0.88153195  0.87391460  0.88909856  1
  O  O187  1  0.25753043  0.00586651  0.37713662  1
  O  O188  1  0.24255038  0.01171557  0.86227384  1
  O  O189  1  0.26061620  0.51176545  0.37226422  1
  O  O190  1  0.26316015  0.50205673  0.88568862  1
  O  O191  1  0.75332340  0.00296361  0.37119911  1
  O  O192  1  0.74929224  0.00326107  0.86048932  1
  O  O193  1  0.75272627  0.50522636  0.37050620  1
  O  O194  1  0.75843343  0.49240578  0.85998184  1
  O  O195  1  0.24373725  0.49062386  0.12812349  1
  O  O196  1  0.25879070  0.51730626  0.62613434  1
  O  O197  1  0.23618780  0.99436173  0.12719747  1
  O  O198  1  0.24678870  0.98562274  0.62304358  1
  O  O199  1  0.75038604  0.48691567  0.13096335  1
  O  O200  1  0.75235507  0.48794652  0.63482560  1
  O  O201  1  0.74445464  0.99069439  0.13584165  1
  O  O202  1  0.74583441  0.99480439  0.63179431  1
  O  O203  1  0.00833730  0.36648465  0.24949756  1
  O  O204  1  0.00929922  0.36941312  0.74526277  1
  O  O205  1  0.00709980  0.87313989  0.25788722  1
  O  O206  1  0.00129321  0.86931381  0.75747214  1
  O  O207  1  0.50357361  0.36906471  0.25773403  1
  O  O208  1  0.49804923  0.37623777  0.76200697  1
  O  O209  1  0.49741401  0.86912560  0.25948233  1
  O  O210  1  0.50998384  0.85680714  0.74137554  1
  O  O211  1  0.48652713  0.12664978  0.24295704  1
  O  O212  1  0.50312596  0.14105727  0.74596572  1
  O  O213  1  0.49503063  0.63458231  0.24807873  1
  O  O214  1  0.49703287  0.63606926  0.74268601  1
  O  O215  1  0.99406403  0.12665777  0.24655599  1
  O  O216  1  1.00749919  0.13616307  0.73744255  1
  O  O217  1  0.99486069  0.63169509  0.24653010  1
  O  O218  1  0.99206651  0.63155053  0.74519358  1
  O  O219  1  0.37158388  0.25652065  0.00573905  1
  O  O220  1  0.37828885  0.23820687  0.52427088  1
  O  O221  1  0.36670083  0.76112716  -0.00064216  1
  O  O222  1  0.37089824  0.75055591  0.50790828  1
  O  O223  1  0.87020787  0.24772456  0.01748179  1
  O  O224  1  0.87107749  0.25910459  0.50854919  1
  O  O225  1  0.86744291  0.75555294  0.00415222  1
  O  O226  1  0.86234179  0.75453521  0.50127161  1
  O  O227  1  0.12186369  0.24125138  0.49337049  1
  O  O228  1  0.12486398  0.23211973  1.00828041  1
  O  O229  1  0.13492347  0.75455786  0.48594715  1
  O  O230  1  0.13227128  0.75075197  0.99014310  1
  O  O231  1  0.63517380  0.24323191  0.49539109  1
  O  O232  1  0.61647919  0.23690720  0.98764690  1
  O  O233  1  0.63736603  0.74432713  0.49738177  1
  O  O234  1  0.63064820  0.74652817  0.99056527  1
  O  O235  1  0.48660385  0.24012146  0.12365988  1
  O  O236  1  0.49517936  0.24498641  0.63072016  1
  O  O237  1  0.49725336  0.75151026  0.13187161  1
  O  O238  1  0.49673138  0.74466226  0.62922165  1
  O  O239  1  0.98957746  0.23827388  0.13315901  1
  O  O240  1  0.99361674  0.24613839  0.63083178  1
  O  O241  1  0.98858174  0.75248309  0.12486768  1
  O  O242  1  0.99359603  0.74571044  0.63386723  1
  O  O243  1  0.00467882  0.25533006  0.36997353  1
  O  O244  1  0.00359300  0.25277707  0.85735646  1
  O  O245  1  0.00818359  0.75627077  0.37787113  1
  O  O246  1  0.00394085  0.75810927  0.87099686  1
  O  O247  1  0.50975483  0.24406973  0.37571983  1
  O  O248  1  0.50331976  0.26052810  0.86696006  1
  O  O249  1  0.50215103  0.76146956  0.36929405  1
  O  O250  1  0.51498159  0.74797338  0.86827553  1
  O  O251  1  0.24205472  0.12621093  0.49944256  1
  O  O252  1  0.24077383  0.12614378  0.98877152  1
  O  O253  1  0.25692417  0.64216164  0.48318069  1
  O  O254  1  0.25021652  0.64111886  1.00413653  1
  O  O255  1  0.75201998  0.13045140  0.49609236  1
  O  O256  1  0.73306903  0.12490718  0.99856875  1
  O  O257  1  0.74609570  0.63114185  0.49760102  1
  O  O258  1  0.74312595  0.63792530  1.00351697  1
  O  O259  1  0.25282293  0.37102943  0.01042728  1
  O  O260  1  0.24128994  0.36965567  0.50701255  1
  O  O261  1  0.25411025  0.86826605  0.00477290  1
  O  O262  1  0.24722632  0.86673471  0.50547912  1
  O  O263  1  0.74612271  0.37665304  0.01432971  1
  O  O264  1  0.75636538  0.37065779  0.51223402  1
  O  O265  1  0.75744778  0.86869082  0.00627515  1
  O  O266  1  0.75476099  0.86803161  0.50738701  1
  O  O267  1  0.13201099  0.48619142  0.24894460  1
  O  O268  1  0.12835831  0.50103581  0.75113499  1
  O  O269  1  0.12632751  0.98900392  0.24551361  1
  O  O270  1  0.12788313  0.98713348  0.74576692  1
  O  O271  1  0.63669143  0.50034800  0.24684332  1
  O  O272  1  0.63778909  0.50741124  0.75871509  1
  O  O273  1  0.63321643  1.00578439  0.24914431  1
  O  O274  1  0.64036108  1.00064771  0.73840492  1
  O  O275  1  0.37105061  0.00850825  0.26025389  1
  O  O276  1  0.34658773  -0.00348626  0.73770265  1
  O  O277  1  0.37485650  0.51126386  0.25682066  1
  O  O278  1  0.37751497  0.51763598  0.76137262  1
  O  O279  1  0.86749158  0.00422648  0.25699423  1
  O  O280  1  0.86252183  0.00185014  0.74539450  1
  O  O281  1  0.86067823  0.50027178  0.25904632  1
  O  O282  1  0.86859078  0.50330108  0.76026086  1
  O  O283  1  0.11965337  0.36981482  0.36590214  1
  O  O284  1  0.12869731  0.37861175  0.85388754  1
  O  O285  1  0.12071714  0.87099600  0.36752599  1
  O  O286  1  0.11598134  0.87015118  0.86713200  1
  O  O287  1  0.63037923  0.35776132  0.37515166  1
  O  O288  1  0.61508435  0.36602443  0.88239681  1
  O  O289  1  0.61286606  0.87714532  0.37913711  1
  O  O290  1  0.62533845  0.86412333  0.88004283  1
  O  O291  1  0.37559945  0.12875636  0.12858631  1
  O  O292  1  0.39148986  0.11677190  0.64795914  1
  O  O293  1  0.37605229  0.62805200  0.13751216  1
  O  O294  1  0.38478341  0.64185275  0.63314848  1
  O  O295  1  0.87638213  0.12718484  0.13261839  1
  O  O296  1  0.88596447  0.13904263  0.61880962  1
  O  O297  1  0.87159071  0.63688466  0.12442336  1
  O  O298  1  0.88220844  0.62578237  0.63882256  1
  O  O299  1  0.26032860  0.25433057  0.12308347  1
  O  O300  1  0.27108439  0.24481573  0.62953097  1
  O  O301  1  0.25042390  0.76132504  0.11603154  1
  O  O302  1  0.26175964  0.76093196  0.61243934  1
  O  O303  1  0.75170926  0.25853880  0.13052406  1
  O  O304  1  0.75750151  0.25885014  0.62694765  1
  O  O305  1  0.75542954  0.75667879  0.11849947  1
  O  O306  1  0.74991738  0.75757902  0.62078862  1
  O  O307  1  0.24640658  0.24181515  0.37976953  1
  O  O308  1  0.25569715  0.23605146  0.87101378  1
  O  O309  1  0.24569290  0.74963826  0.37809729  1
  O  O310  1  0.23741191  0.75762571  0.88188903  1
  O  O311  1  0.74646969  0.24191108  0.38132662  1
  O  O312  1  0.73753435  0.24590254  0.86602075  1
  O  O313  1  0.74889014  0.74272177  0.38225229  1
  O  O314  1  0.73940523  0.75504965  0.88299348  1
  O  O315  1  0.00069924  0.11911024  0.00062143  1
  O  O316  1  0.00626363  0.11840822  0.50795846  1
  O  O317  1  0.00552124  0.61462932  0.00708054  1
  O  O318  1  -0.00884300  0.61562229  0.50904706  1
  O  O319  1  0.50637131  0.12481676  0.00495136  1
  O  O320  1  0.50182803  0.11221171  0.51187904  1
  O  O321  1  0.50437586  0.61835346  0.00090046  1
  O  O322  1  0.51094991  0.62714371  0.50806336  1
  O  O323  1  0.50314886  0.37968071  0.49113499  1
  O  O324  1  0.49374773  0.38175557  0.99137765  1
  O  O325  1  0.50287015  0.88634787  0.49549557  1
  O  O326  1  0.48144921  0.87508986  0.99963948  1
  O  O327  1  0.99556955  0.38257429  0.49580424  1
  O  O328  1  0.98693422  0.38859445  1.03870168  1
  O  O329  1  0.99667493  0.88166434  0.49956500  1
  O  O330  1  0.99375593  0.87497232  0.98856151  1
  O  O331  1  0.48815604  0.50295175  0.37133713  1
  O  O332  1  0.49464837  0.49601286  0.88505903  1
  O  O333  1  0.49479232  0.99625258  0.38462470  1
  O  O334  1  0.47424250  1.00873457  0.80420233  1
  O  O335  1  0.99245860  0.49450620  0.37883370  1
  O  O336  1  0.98127677  0.49620778  0.87441426  1
  O  O337  1  0.99414447  0.99402601  0.38404352  1
  O  O338  1  1.00000987  0.99418574  0.87192500  1
  O  O339  1  0.01010839  0.00312102  0.13044612  1
  O  O340  1  -0.00661541  0.01029934  0.61763163  1
  O  O341  1  0.02007315  0.50619282  0.14090277  1
  O  O342  1  -0.00459267  0.50849349  0.61379785  1
  O  O343  1  0.49825920  0.01256129  0.13072795  1
  O  O344  1  0.50687304  0.00244768  0.62419472  1
  O  O345  1  0.50085203  0.49890064  0.11174288  1
  O  O346  1  0.49292883  0.51715911  0.62546180  1
  O  O347  1  0.24389040  0.37262239  0.23896594  1
  O  O348  1  0.24203081  0.37968676  0.74354301  1
  O  O349  1  0.24226681  0.87665045  0.24146170  1
  O  O350  1  0.23770674  0.87706447  0.74202497  1
  O  O351  1  0.74261870  0.38192237  0.24632473  1
  O  O352  1  0.75036922  0.38635455  0.73791322  1
  O  O353  1  0.75310537  0.88342540  0.24103599  1
  O  O354  1  0.75693786  0.88354963  0.74070633  1
  O  O355  1  0.25891209  0.12323461  0.25732612  1
  O  O356  1  0.24000829  0.11552087  0.75408657  1
  O  O357  1  0.26080511  0.62987991  0.25978483  1
  O  O358  1  0.26372606  0.64238502  0.74925577  1
  O  O359  1  0.75474414  0.11494914  0.25576536  1
  O  O360  1  0.75225481  0.11459231  0.75206853  1
  O  O361  1  0.75067542  0.61839813  0.25824504  1
  O  O362  1  0.75792275  0.60875179  0.74228728  1
  O  O363  1  0.37169162  0.11749124  0.36982377  1
  O  O364  1  0.36954210  0.12709554  0.86154709  1
  O  O365  1  0.37195773  0.62202580  0.36420449  1
  O  O366  1  0.38019683  0.62171273  0.86468461  1
  O  O367  1  0.86949001  0.11925488  0.37213431  1
  O  O368  1  0.88065046  0.11990949  0.89288951  1
  O  O369  1  0.86182480  0.61907892  0.37609850  1
  O  O370  1  0.87672007  0.62602866  0.86221824  1
  O  O371  1  0.13467341  0.37692207  0.13232216  1
  O  O372  1  0.12715091  0.37694093  0.64340538  1
  O  O373  1  0.13041577  0.88011778  0.12978845  1
  O  O374  1  0.13228130  0.86482421  0.63526365  1
  O  O375  1  0.63396062  0.37336016  0.12593788  1
  O  O376  1  0.63938602  0.36935548  0.62264954  1
  O  O377  1  0.63654763  0.87483102  0.11692777  1
  O  O378  1  0.63748883  0.88348794  0.61949961  1
  O  O379  1  0.12136491  0.25655999  0.25532870  1
  O  O380  1  0.11503020  0.25807347  0.74664861  1
  O  O381  1  0.12516316  0.76270665  0.25804909  1
  O  O382  1  0.10800463  0.75877461  0.75900338  1
  O  O383  1  0.62171550  0.24597656  0.26081752  1
  O  O384  1  0.61314883  0.24986481  0.75976157  1
  O  O385  1  0.61331098  0.74540047  0.25162032  1
  O  O386  1  0.62389964  0.74460267  0.76553176  1
  O  O387  1  0.37437408  0.24031132  0.24205458  1
  O  O388  1  0.39016334  0.25536236  0.73891504  1
  O  O389  1  0.38692524  0.74499953  0.24861710  1
  O  O390  1  0.38602014  0.74668851  0.74586313  1
  O  O391  1  0.87776421  0.23798489  0.24725146  1
  O  O392  1  0.88699848  0.25707558  0.74059266  1
  O  O393  1  0.87440485  0.75016521  0.23914823  1
  O  O394  1  0.88341306  0.74486781  0.75222797  1
  O  O395  1  0.38190309  0.51306968  0.48075825  1
  O  O396  1  0.38177245  0.49678592  0.99611441  1
  O  O397  1  0.38424683  1.00601776  0.49455882  1
  O  O398  1  0.36617030  0.98500640  0.99685742  1
  O  O399  1  0.87656585  0.49137115  0.49354698  1
  O  O400  1  0.86665539  0.50398439  0.97888470  1
  O  O401  1  0.88381915  0.99482355  0.49527807  1
  O  O402  1  0.87319952  0.99297771  1.00708094  1
  O  O403  1  0.12686469  0.00966429  0.00877205  1
  O  O404  1  0.11194905  0.00858570  0.49570996  1
  O  O405  1  0.12491202  0.50004280  0.00975864  1
  O  O406  1  0.11223618  0.50290659  0.48867924  1
  O  O407  1  0.62402506  0.01293377  -0.00019619  1
  O  O408  1  0.61827761  0.00376094  0.51473866  1
  O  O409  1  0.61772972  0.50784476  -0.00187173  1
  O  O410  1  0.62516611  0.51255717  0.49750775  1
  O  O411  1  0.36908328  0.36769400  0.12136545  1
  O  O412  1  0.37415488  0.36904643  0.62639175  1
  O  O413  1  0.36049693  0.87779670  0.12525063  1
  O  O414  1  0.36823269  0.86559758  0.63363002  1
  O  O415  1  0.85359236  0.35993926  0.13977953  1
  O  O416  1  0.86955037  0.36888752  0.62022109  1
  O  O417  1  0.86723891  0.86706031  0.11560602  1
  O  O418  1  0.86621603  0.87215093  0.61785477  1
  O  O419  1  0.13033092  0.12877797  0.38456338  1
  O  O420  1  0.13084925  0.12282691  0.88268751  1
  O  O421  1  0.13578067  0.63626914  0.36484690  1
  O  O422  1  0.11860329  0.63768016  0.87456334  1
  O  O423  1  0.63289861  0.13151995  0.37873248  1
  O  O424  1  0.62514968  0.13054583  0.88475792  1
  O  O425  1  0.63664944  0.62773861  0.38289637  1
  O  O426  1  0.62382465  0.63494039  0.88764603  1
