# generated using pymatgen
data_V85Zn86O256
_symmetry_space_group_name_H-M   'P 1'
_cell_length_a   16.91214324
_cell_length_b   16.90432999
_cell_length_c   16.90881167
_cell_angle_alpha   89.97344221
_cell_angle_beta   90.01854570
_cell_angle_gamma   90.05094963
_symmetry_Int_Tables_number   1
_chemical_formula_structural   V85Zn86O256
_chemical_formula_sum   'V85 Zn86 O256'
_cell_volume   4834.03128126
_cell_formula_units_Z   1
loop_
 _symmetry_equiv_pos_site_id
 _symmetry_equiv_pos_as_xyz
  1  'x, y, z'
loop_
 _atom_site_type_symbol
 _atom_site_label
 _atom_site_symmetry_multiplicity
 _atom_site_fract_x
 _atom_site_fract_y
 _atom_site_fract_z
 _atom_site_occupancy
  V  V0  1  0.49568057  0.24050897  0.25257193  1
  V  V1  1  0.62177265  0.37286885  0.25121202  1
  V  V2  1  0.37644144  0.37831038  -0.00158151  1
  V  V3  1  0.24789315  0.87199771  0.12418031  1
  V  V4  1  -0.01522571  0.12618363  0.12661779  1
  V  V5  1  0.00048405  0.37525767  0.37496515  1
  V  V6  1  0.50086063  0.24256635  0.74687004  1
  V  V7  1  0.50038078  0.49159833  0.50019378  1
  V  V8  1  0.12133828  0.37400564  0.24788483  1
  V  V9  1  0.38556973  0.74131873  0.12314243  1
  V  V10  1  0.49227714  0.00115308  0.50684494  1
  V  V11  1  0.75363389  0.63169814  0.87804803  1
  V  V12  1  0.00701044  0.62072274  0.11250485  1
  V  V13  1  0.62465031  0.62308393  0.50055913  1
  V  V14  1  0.75099305  0.87527457  0.62340951  1
  V  V15  1  0.12295866  -0.00097160  0.12552593  1
  V  V16  1  0.37851311  0.63404819  0.75432645  1
  V  V17  1  -0.00298790  -0.00496420  -0.00156108  1
  V  V18  1  0.00030606  0.62960057  0.64752560  1
  V  V19  1  0.37424172  0.24147412  0.13001931  1
  V  V20  1  0.62263306  0.75135152  0.37426876  1
  V  V21  1  0.49184586  0.87613478  0.37677246  1
  V  V22  1  0.11789615  0.24700242  0.86687905  1
  V  V23  1  0.12318855  0.74070623  0.87071321  1
  V  V24  1  0.50317329  0.11343260  0.11945864  1
  V  V25  1  0.75655690  0.50459379  0.75269105  1
  V  V26  1  0.75022661  0.01256138  0.24906089  1
  V  V27  1  0.36694271  0.49535799  0.38077769  1
  V  V28  1  0.62507546  0.12296422  0.50705822  1
  V  V29  1  0.62963844  0.24384012  0.37569375  1
  V  V30  1  0.12211549  0.37468725  0.74617971  1
  V  V31  1  0.25882711  0.87627364  0.61328640  1
  V  V32  1  0.25374770  0.61709292  0.88006648  1
  V  V33  1  0.62693253  0.37664433  0.75147125  1
  V  V34  1  0.49821347  0.87222845  0.87182215  1
  V  V35  1  0.25851821  0.49909537  0.75008162  1
  V  V36  1  0.87205100  0.50149953  0.37554550  1
  V  V37  1  0.75368578  0.37222934  0.12416549  1
  V  V38  1  0.12357779  0.24997686  0.37258401  1
  V  V39  1  0.62685579  0.88080671  0.24743623  1
  V  V40  1  0.87810231  0.87307106  0.49507881  1
  V  V41  1  0.87254689  0.01485645  0.37313476  1
  V  V42  1  0.25879253  0.12718960  0.37056191  1
  V  V43  1  0.00127658  0.37891763  0.88063417  1
  V  V44  1  0.37835815  0.25378922  0.62121872  1
  V  V45  1  0.87799338  0.50369013  0.88256984  1
  V  V46  1  0.12735465  0.50696392  0.62574428  1
  V  V47  1  0.88146258  0.25284077  0.63415399  1
  V  V48  1  0.12745574  0.12484305  0.49850507  1
  V  V49  1  0.37776343  0.11818996  0.74405894  1
  V  V50  1  0.25460654  0.00446806  0.24893679  1
  V  V51  1  0.00384157  0.12862868  0.63239915  1
  V  V52  1  0.12428686  0.12238654  -0.00114849  1
  V  V53  1  0.74554242  0.50061940  0.24885439  1
  V  V54  1  0.25061264  0.73591207  0.49058797  1
  V  V55  1  0.87273213  0.62851645  0.24452196  1
  V  V56  1  0.37951761  0.87670190  0.00224056  1
  V  V57  1  0.62193154  0.86589317  0.74667456  1
  V  V58  1  0.62406600  0.24811177  0.87959091  1
  V  V59  1  0.50151880  0.63206302  0.62970280  1
  V  V60  1  0.25443852  0.26229732  0.49814057  1
  V  V61  1  0.12875009  -0.00149672  0.62908535  1
  V  V62  1  0.75166023  0.12335126  0.87474916  1
  V  V63  1  0.62455383  0.75127120  0.88491080  1
  V  V64  1  -0.01564302  0.24587786  0.24548388  1
  V  V65  1  0.75840565  0.24764238  0.00392779  1
  V  V66  1  0.00172124  0.87091803  0.86657692  1
  V  V67  1  0.75143614  0.87134107  0.12138011  1
  V  V68  1  0.75160003  0.00030383  0.74655436  1
  V  V69  1  0.88063547  0.74753601  0.63539825  1
  V  V70  1  0.24945448  0.37616128  0.12703403  1
  V  V71  1  0.75087465  0.74923924  0.50111351  1
  V  V72  1  0.12417097  0.87221828  0.25761339  1
  V  V73  1  0.61988067  0.62856739  0.00346537  1
  V  V74  1  0.37640463  -0.00009247  0.87749909  1
  V  V75  1  0.00229114  0.51355982  0.50041618  1
  V  V76  1  0.24424010  0.74537958  0.00084618  1
  V  V77  1  0.75401532  0.24478106  0.49951777  1
  V  V78  1  0.13368277  0.87073555  0.74768478  1
  V  V79  1  0.37662654  0.62081161  0.25263177  1
  V  V80  1  0.87679921  0.37653975  0.50273572  1
  V  V81  1  0.25033794  0.11956590  0.86758263  1
  V  V82  1  0.61359624  0.50173778  0.12435989  1
  V  V83  1  0.25057684  0.24644353  -0.00180745  1
  V  V84  1  0.49544119  0.38197087  0.87498464  1
  Zn  Zn85  1  -0.00026260  0.87210237  0.37348106  1
  Zn  Zn86  1  0.12024758  0.49703816  0.11063000  1
  Zn  Zn87  1  0.62737799  0.50069962  0.62726479  1
  Zn  Zn88  1  0.87176558  0.74551341  0.11294645  1
  Zn  Zn89  1  0.49244946  0.50789069  0.00007211  1
  Zn  Zn90  1  0.87968535  0.12715041  0.75099967  1
  Zn  Zn91  1  0.50300236  0.74642078  0.24398304  1
  Zn  Zn92  1  0.37833368  0.75349275  0.62024011  1
  Zn  Zn93  1  0.23934479  0.50706872  0.25698613  1
  Zn  Zn94  1  0.62333329  0.11170213  0.00181330  1
  Zn  Zn95  1  0.87780634  -0.00127376  0.87091157  1
  Zn  Zn96  1  0.37533675  0.00064920  0.37424850  1
  Zn  Zn97  1  0.74776032  0.62424413  0.37335770  1
  Zn  Zn98  1  0.25411187  0.37897137  0.62069007  1
  Zn  Zn99  1  0.12134716  0.72815223  0.37783123  1
  Zn  Zn100  1  0.00166564  -0.00206603  0.49801231  1
  Zn  Zn101  1  0.86945335  0.86916350  -0.00698290  1
  Zn  Zn102  1  0.88170328  0.37535188  0.00607293  1
  Zn  Zn103  1  0.00052759  0.74899225  0.24752462  1
  Zn  Zn104  1  0.49652791  0.36978509  0.38036324  1
  Zn  Zn105  1  0.62189061  0.00354443  0.62741578  1
  Zn  Zn106  1  0.75313115  0.37711656  0.62734275  1
  Zn  Zn107  1  0.18097002  0.18736200  0.18649339  1
  Zn  Zn108  1  0.19235590  0.18910781  0.68609999  1
  Zn  Zn109  1  0.18884893  0.68515327  0.19107523  1
  Zn  Zn110  1  0.19025073  0.68855529  0.68623980  1
  Zn  Zn111  1  0.68417041  0.18655330  0.18518154  1
  Zn  Zn112  1  0.69088298  0.18975123  0.68662964  1
  Zn  Zn113  1  0.68342918  0.68872677  0.18560103  1
  Zn  Zn114  1  0.69002806  0.68738455  0.68974891  1
  Zn  Zn115  1  0.31224242  0.31555549  0.31277986  1
  Zn  Zn116  1  0.31167647  0.30948553  0.81059639  1
  Zn  Zn117  1  0.31086771  0.80877750  0.31003534  1
  Zn  Zn118  1  0.30898275  0.81102537  0.81042771  1
  Zn  Zn119  1  0.80994829  0.31306143  0.31436686  1
  Zn  Zn120  1  0.81371770  0.31449140  0.81556654  1
  Zn  Zn121  1  0.80943659  0.81290735  0.31129642  1
  Zn  Zn122  1  0.81211819  0.81243148  0.81415606  1
  Zn  Zn123  1  0.18378594  0.55703219  0.43934615  1
  Zn  Zn124  1  0.19308325  0.43212989  0.93455108  1
  Zn  Zn125  1  0.19071259  0.93889953  0.43943900  1
  Zn  Zn126  1  0.18940595  0.93529307  0.93573007  1
  Zn  Zn127  1  0.68701630  0.43264544  0.43771499  1
  Zn  Zn128  1  0.68734348  0.43979534  0.93977936  1
  Zn  Zn129  1  0.68814379  0.94005916  0.43440117  1
  Zn  Zn130  1  0.68751647  0.93844071  0.93329343  1
  Zn  Zn131  1  0.31381154  0.06149826  0.06199965  1
  Zn  Zn132  1  0.31177156  0.06626299  0.56258081  1
  Zn  Zn133  1  0.31082952  0.56132028  0.06681504  1
  Zn  Zn134  1  0.31940658  0.56322988  0.56615306  1
  Zn  Zn135  1  0.80858426  0.05509295  0.06141157  1
  Zn  Zn136  1  0.81508002  0.06377045  0.56143329  1
  Zn  Zn137  1  0.80642491  0.56314947  0.06062580  1
  Zn  Zn138  1  0.81480316  0.56490168  0.56728907  1
  Zn  Zn139  1  0.43514096  0.43233677  0.19209520  1
  Zn  Zn140  1  0.43986061  0.43882831  0.68636294  1
  Zn  Zn141  1  0.43257683  0.93155914  0.19344516  1
  Zn  Zn142  1  0.43778973  0.93833280  0.68952732  1
  Zn  Zn143  1  0.93633852  0.44192796  0.18583658  1
  Zn  Zn144  1  0.94103374  0.44172134  0.69354468  1
  Zn  Zn145  1  0.93390752  0.93808233  0.18972247  1
  Zn  Zn146  1  0.94068271  0.93748116  0.68503024  1
  Zn  Zn147  1  0.06010151  0.06085709  0.31136561  1
  Zn  Zn148  1  0.06537931  0.05669154  0.80920803  1
  Zn  Zn149  1  0.05495638  0.55980075  0.30266656  1
  Zn  Zn150  1  0.06410982  0.56130597  0.93555442  1
  Zn  Zn151  1  0.56366065  0.06398337  0.31592991  1
  Zn  Zn152  1  0.56365608  0.05713612  0.81649351  1
  Zn  Zn153  1  0.55576086  0.56333854  0.31340596  1
  Zn  Zn154  1  0.56374633  0.56369564  0.81326514  1
  Zn  Zn155  1  0.43985123  0.18449575  0.44071406  1
  Zn  Zn156  1  0.43706643  0.18959512  0.93828315  1
  Zn  Zn157  1  0.43463772  0.68490888  0.43828098  1
  Zn  Zn158  1  0.43736518  0.69075080  0.93717570  1
  Zn  Zn159  1  0.94177274  0.18901740  0.44278447  1
  Zn  Zn160  1  0.93804204  0.18641160  0.93743355  1
  Zn  Zn161  1  0.93722675  0.69045347  0.43201942  1
  Zn  Zn162  1  0.93242377  0.69465285  0.93470919  1
  Zn  Zn163  1  0.06276203  0.30690495  0.06126796  1
  Zn  Zn164  1  0.06461161  0.31550239  0.56056899  1
  Zn  Zn165  1  0.05945643  0.80791626  0.06203881  1
  Zn  Zn166  1  0.06565218  0.80689910  0.55893855  1
  Zn  Zn167  1  0.56275562  0.30965466  0.06400889  1
  Zn  Zn168  1  0.56529151  0.31029061  0.56699346  1
  Zn  Zn169  1  0.56170817  0.93507185  0.06370476  1
  Zn  Zn170  1  0.56149521  0.81523886  0.55993704  1
  O  O171  1  0.11954174  0.11620191  0.11603234  1
  O  O172  1  0.12478033  0.11930638  0.61966730  1
  O  O173  1  0.11020745  0.62217459  0.12927822  1
  O  O174  1  0.11290877  0.61909920  0.63190073  1
  O  O175  1  0.60728048  0.12593725  0.12221946  1
  O  O176  1  0.62806844  0.12628616  0.61246199  1
  O  O177  1  0.62771037  0.61637572  0.11556535  1
  O  O178  1  0.62018481  0.62378467  0.61882287  1
  O  O179  1  0.37970218  0.39036133  0.36998227  1
  O  O180  1  0.38357475  0.36491631  0.88466378  1
  O  O181  1  0.38860053  0.87483593  0.36793175  1
  O  O182  1  0.37857051  0.87882414  0.87815903  1
  O  O183  1  0.88013322  0.38177855  0.38139446  1
  O  O184  1  0.88590985  0.38079452  0.87576406  1
  O  O185  1  0.87331847  0.87733190  0.38612116  1
  O  O186  1  0.88735215  0.87764420  0.87144694  1
  O  O187  1  0.25151177  0.00897091  0.36837723  1
  O  O188  1  0.26061765  0.00734732  0.87573659  1
  O  O189  1  0.26374547  0.49571108  0.37658462  1
  O  O190  1  0.24818164  0.51006611  0.86569326  1
  O  O191  1  0.76319172  -0.00239876  0.36579622  1
  O  O192  1  0.75399885  0.00690871  0.86580906  1
  O  O193  1  0.75403771  0.49910856  0.36743316  1
  O  O194  1  0.75433594  0.50648873  0.86980973  1
  O  O195  1  0.24915021  0.48385682  0.12845469  1
  O  O196  1  0.24468710  0.49968115  0.62875076  1
  O  O197  1  0.24368168  0.99542093  0.13017116  1
  O  O198  1  0.24415880  0.98683811  0.61643902  1
  O  O199  1  0.73722192  0.49214558  0.13027010  1
  O  O200  1  0.75000463  0.49882495  0.63684496  1
  O  O201  1  0.75508889  0.99159648  0.14234762  1
  O  O202  1  0.74806100  0.99502709  0.63017259  1
  O  O203  1  0.00250795  0.36819774  0.25111747  1
  O  O204  1  0.01510578  0.38048121  0.76098086  1
  O  O205  1  0.01006970  0.87372554  0.24813987  1
  O  O206  1  0.01392044  0.88266003  0.75922665  1
  O  O207  1  0.50725782  0.35961610  0.24950877  1
  O  O208  1  0.50603961  0.36800798  0.75717707  1
  O  O209  1  0.50913865  0.87366491  0.25793894  1
  O  O210  1  0.50949729  0.87947696  0.75767003  1
  O  O211  1  0.50362315  0.13350687  0.24082566  1
  O  O212  1  0.49312321  0.13202581  0.75699763  1
  O  O213  1  0.48528829  0.62828715  0.24943007  1
  O  O214  1  0.49197363  0.61822040  0.74229783  1
  O  O215  1  1.00468063  0.13291820  0.23881883  1
  O  O216  1  1.00135933  0.12163776  0.73720942  1
  O  O217  1  0.98672665  0.62477002  0.23625080  1
  O  O218  1  0.99747164  0.62413290  0.74237215  1
  O  O219  1  0.36957887  0.25619680  0.00819597  1
  O  O220  1  0.36921326  0.24370757  0.50932801  1
  O  O221  1  0.36572988  0.75575436  0.00534785  1
  O  O222  1  0.35969944  0.74445093  0.50248004  1
  O  O223  1  0.86165851  0.25293336  -0.00516424  1
  O  O224  1  0.87034112  0.25597163  0.50732480  1
  O  O225  1  0.86771786  0.75656633  -0.00068150  1
  O  O226  1  0.86890452  0.75576326  0.50458072  1
  O  O227  1  0.13233194  0.24389791  0.49358988  1
  O  O228  1  0.13121678  0.24075065  0.99019464  1
  O  O229  1  0.14321044  0.75343227  0.49507746  1
  O  O230  1  0.13854828  0.75651883  0.99059539  1
  O  O231  1  0.63240069  0.24593194  0.49611337  1
  O  O232  1  0.62982321  0.24701165  0.98791363  1
  O  O233  1  0.62988172  0.74322802  0.49430189  1
  O  O234  1  0.62609502  0.74397050  0.98669951  1
  O  O235  1  0.49265596  0.24094736  0.13221583  1
  O  O236  1  0.49578168  0.25094040  0.63824597  1
  O  O237  1  0.48347894  0.75694250  0.12404333  1
  O  O238  1  0.49937296  0.73687357  0.61722943  1
  O  O239  1  1.00149133  0.23886258  0.13228475  1
  O  O240  1  0.99375023  0.24204976  0.61834666  1
  O  O241  1  0.99553933  0.73667612  0.12643856  1
  O  O242  1  0.99622101  0.73728240  0.62212310  1
  O  O243  1  0.00361688  0.25424886  0.36839810  1
  O  O244  1  0.01285031  0.25175871  0.87449799  1
  O  O245  1  0.00560377  0.75342793  0.36789656  1
  O  O246  1  0.01256551  0.75789317  0.87706726  1
  O  O247  1  0.50531293  0.24900701  0.36921414  1
  O  O248  1  0.50739402  0.25481719  0.86715831  1
  O  O249  1  0.50972132  0.75697006  0.37879873  1
  O  O250  1  0.50585369  0.76433118  0.87623880  1
  O  O251  1  0.24099602  0.13127863  0.49195917  1
  O  O252  1  0.24572449  0.12719830  0.98917968  1
  O  O253  1  0.24795602  0.63113288  0.50438879  1
  O  O254  1  0.25740732  0.63196590  0.99167574  1
  O  O255  1  0.74509518  0.13765674  0.50350362  1
  O  O256  1  0.74713080  0.12900239  0.99349860  1
  O  O257  1  0.73844441  0.62760402  0.50034775  1
  O  O258  1  0.73500811  0.61915815  0.98676811  1
  O  O259  1  0.25772477  0.36491318  0.00622616  1
  O  O260  1  0.24858079  0.36099937  0.49951580  1
  O  O261  1  0.25863118  0.86705802  0.00307900  1
  O  O262  1  0.25186014  0.86947548  0.50983111  1
  O  O263  1  0.74683422  0.36521605  0.00782562  1
  O  O264  1  0.75850975  0.36643736  0.50421619  1
  O  O265  1  0.74855082  0.88742544  0.01851080  1
  O  O266  1  0.75527400  0.87062181  0.50581020  1
  O  O267  1  0.12205322  0.48339323  0.24064992  1
  O  O268  1  0.13910314  0.49092481  0.73622795  1
  O  O269  1  0.13264381  0.99383520  0.24367611  1
  O  O270  1  0.12845944  0.99304062  0.73571878  1
  O  O271  1  0.62565728  0.49449008  0.24555977  1
  O  O272  1  0.63417346  0.49128611  0.75240234  1
  O  O273  1  0.64037445  0.99423995  0.26235769  1
  O  O274  1  0.63559494  0.99123222  0.74934057  1
  O  O275  1  0.35865796  -0.00153603  0.25112467  1
  O  O276  1  0.37731410  0.01187549  0.75630659  1
  O  O277  1  0.37509416  0.50552078  0.25950728  1
  O  O278  1  0.36360106  0.50653663  0.74344186  1
  O  O279  1  0.86521421  -0.00145197  0.26391699  1
  O  O280  1  0.86354928  0.00162935  0.74717539  1
  O  O281  1  0.86679980  0.50846198  0.25460375  1
  O  O282  1  0.86295069  0.49364716  0.76248704  1
  O  O283  1  0.11387884  0.36680634  0.36324032  1
  O  O284  1  0.12172603  0.36534468  0.86736910  1
  O  O285  1  0.12510535  0.88245296  0.36263248  1
  O  O286  1  0.12455127  0.86771971  0.86500522  1
  O  O287  1  0.62097786  0.36304895  0.36937852  1
  O  O288  1  0.61982716  0.36739828  0.86813663  1
  O  O289  1  0.61939144  0.86868126  0.36775589  1
  O  O290  1  0.61827282  0.86857187  0.86817294  1
  O  O291  1  0.38209540  0.13456285  0.12218655  1
  O  O292  1  0.36954429  0.13525336  0.63567133  1
  O  O293  1  0.37643479  0.63050686  0.13218196  1
  O  O294  1  0.38483549  0.62762479  0.63444278  1
  O  O295  1  0.88582331  0.11996650  0.11882528  1
  O  O296  1  0.88691293  0.13336949  0.62355634  1
  O  O297  1  0.87777574  0.62379885  0.12903704  1
  O  O298  1  0.88958609  0.63351389  0.62291474  1
  O  O299  1  0.25580288  0.25432361  0.12142218  1
  O  O300  1  0.25876851  0.25161157  0.61467336  1
  O  O301  1  0.25436091  0.75314533  0.11661163  1
  O  O302  1  0.25037563  0.76084297  0.61476245  1
  O  O303  1  0.74103782  0.25771769  0.11510190  1
  O  O304  1  0.76089092  0.25410905  0.61810997  1
  O  O305  1  0.74781513  0.76803241  0.13168339  1
  O  O306  1  0.75847016  0.75375231  0.61974891  1
  O  O307  1  0.24480597  0.24484681  0.37833501  1
  O  O308  1  0.24202734  0.24081606  0.87897730  1
  O  O309  1  0.24946596  0.75096013  0.38763227  1
  O  O310  1  0.24488995  0.74064096  0.88109266  1
  O  O311  1  0.74195411  0.25437044  0.38578513  1
  O  O312  1  0.74309008  0.24302071  0.87996700  1
  O  O313  1  0.73776488  0.74882039  0.38147743  1
  O  O314  1  0.74090408  0.74071559  0.86829661  1
  O  O315  1  0.00479960  0.11626028  0.00375863  1
  O  O316  1  0.01498740  0.12486068  0.50823151  1
  O  O317  1  -0.00130257  0.62782084  0.00789502  1
  O  O318  1  -0.00370868  0.61460202  0.50017852  1
  O  O319  1  0.49844146  0.12917229  0.01594778  1
  O  O320  1  0.50922522  0.11039927  0.49672744  1
  O  O321  1  0.51301690  0.62336636  -0.00812560  1
  O  O322  1  0.51041694  0.61715783  0.50493164  1
  O  O323  1  0.50675003  0.38744094  0.50342188  1
  O  O324  1  0.49271237  0.37027889  0.99213324  1
  O  O325  1  0.50720747  0.89047882  0.49074888  1
  O  O326  1  0.48511769  0.87532951  0.99348063  1
  O  O327  1  0.99395361  0.38365478  0.49462300  1
  O  O328  1  0.99969417  0.36631380  0.98632039  1
  O  O329  1  0.99177589  0.87629039  0.49878504  1
  O  O330  1  1.00445546  0.88167194  0.98771423  1
  O  O331  1  0.49307799  0.49602572  0.38466892  1
  O  O332  1  0.50332300  0.48495679  0.87690734  1
  O  O333  1  0.49735594  0.99398477  0.38195541  1
  O  O334  1  0.48562199  0.98943176  0.87133828  1
  O  O335  1  0.99263243  0.49426016  0.38218058  1
  O  O336  1  0.99076839  0.49225329  0.87576086  1
  O  O337  1  0.98598045  0.99676463  0.37554340  1
  O  O338  1  1.00131817  0.99311493  0.88161689  1
  O  O339  1  0.00365330  0.00346916  0.11778722  1
  O  O340  1  0.00985888  0.00828222  0.62025199  1
  O  O341  1  -0.00148558  0.51478467  0.12218346  1
  O  O342  1  0.00495041  0.51168532  0.62181872  1
  O  O343  1  0.49269874  0.00957614  0.12976856  1
  O  O344  1  0.50264601  -0.00476167  0.61107914  1
  O  O345  1  0.51052983  0.49055548  0.12381143  1
  O  O346  1  0.50247889  0.50981370  0.61704069  1
  O  O347  1  0.23935480  0.37343581  0.24246810  1
  O  O348  1  0.24348157  0.38207186  0.75012221  1
  O  O349  1  0.24342699  0.88158331  0.24399298  1
  O  O350  1  0.24036493  0.87170840  0.73727628  1
  O  O351  1  0.74126651  0.37896350  0.24409300  1
  O  O352  1  0.74199815  0.38214183  0.75289928  1
  O  O353  1  0.74360141  0.88309869  0.24525556  1
  O  O354  1  0.74410921  0.88201357  0.74405790  1
  O  O355  1  0.23949784  0.11744701  0.25898391  1
  O  O356  1  0.26008162  0.12995876  0.76121764  1
  O  O357  1  0.26783271  0.61960271  0.24231620  1
  O  O358  1  0.25828606  0.61855558  0.75620168  1
  O  O359  1  0.74658703  0.11207470  0.24616523  1
  O  O360  1  0.75107465  0.11796778  0.75637075  1
  O  O361  1  0.75322337  0.61711081  0.24890020  1
  O  O362  1  0.74368382  0.61449920  0.76226466  1
  O  O363  1  0.36173470  0.12638660  0.37546499  1
  O  O364  1  0.37002934  0.11822641  0.87144273  1
  O  O365  1  0.37915836  0.61181446  0.36386273  1
  O  O366  1  0.36718112  0.62786848  0.86794174  1
  O  O367  1  0.87674526  0.11330437  0.38316568  1
  O  O368  1  0.86432953  0.12420613  0.87150819  1
  O  O369  1  0.87097542  0.61761589  0.36608859  1
  O  O370  1  0.86488961  0.61787176  0.87754752  1
  O  O371  1  0.13325804  0.36905747  0.12951857  1
  O  O372  1  0.12694643  0.38175812  0.63194777  1
  O  O373  1  0.12960086  0.88026622  0.13039780  1
  O  O374  1  0.13213827  0.88007922  0.62823708  1
  O  O375  1  0.63110790  0.37938012  0.13141266  1
  O  O376  1  0.62757353  0.37550634  0.64074773  1
  O  O377  1  0.63247150  0.88010161  0.13970823  1
  O  O378  1  0.63170586  0.87564243  0.63134040  1
  O  O379  1  0.11596416  0.25773001  0.25341035  1
  O  O380  1  0.13280881  0.25924290  0.75608053  1
  O  O381  1  0.12774404  0.76070876  0.25208683  1
  O  O382  1  0.13036770  0.75714246  0.75880725  1
  O  O383  1  0.61964729  0.25178124  0.25865242  1
  O  O384  1  0.62058078  0.25411380  0.75921553  1
  O  O385  1  0.62259008  0.75732324  0.25875243  1
  O  O386  1  0.62896797  0.76186675  0.75662176  1
  O  O387  1  0.38252212  0.25293520  0.24231996  1
  O  O388  1  0.38358366  0.23986459  0.74691893  1
  O  O389  1  0.37516265  0.73932607  0.24195372  1
  O  O390  1  0.37142337  0.73757297  0.74548999  1
  O  O391  1  0.88507043  0.25234939  0.25377175  1
  O  O392  1  0.87150796  0.24935101  0.73776201  1
  O  O393  1  0.87087091  0.73613314  0.24845597  1
  O  O394  1  0.87423263  0.75767118  0.73426616  1
  O  O395  1  0.38373952  0.50549332  0.48821081  1
  O  O396  1  0.37587386  0.48319940  1.00707548  1
  O  O397  1  0.38856852  1.00617103  0.49761953  1
  O  O398  1  0.36888747  0.98939463  0.99089669  1
  O  O399  1  0.88041538  0.49559058  0.49690433  1
  O  O400  1  0.86506647  0.49368975  0.98686173  1
  O  O401  1  0.87468841  0.99273297  0.48972098  1
  O  O402  1  0.88709734  0.99350839  0.99670331  1
  O  O403  1  0.11651887  0.00236309  0.00320711  1
  O  O404  1  0.12538029  0.00823453  0.50825524  1
  O  O405  1  0.12972215  0.49653162  -0.00185252  1
  O  O406  1  0.11602540  0.49828344  0.51484842  1
  O  O407  1  0.61548823  -0.00022921  -0.00898233  1
  O  O408  1  0.61995949  0.00860839  0.49981661  1
  O  O409  1  0.62013957  0.50666013  0.00814660  1
  O  O410  1  0.62025858  0.50675124  0.50121413  1
  O  O411  1  0.36832385  0.36282876  0.12099987  1
  O  O412  1  0.37370956  0.35933912  0.63318632  1
  O  O413  1  0.36683039  0.86830787  0.11848516  1
  O  O414  1  0.36164651  0.87411885  0.63076266  1
  O  O415  1  0.85862957  0.38105705  0.12452255  1
  O  O416  1  0.87986620  0.36992469  0.62075115  1
  O  O417  1  0.86086085  0.87262891  0.12770962  1
  O  O418  1  0.87271712  0.87036660  0.61364209  1
  O  O419  1  0.12934551  0.12961795  0.38214256  1
  O  O420  1  0.13203337  0.12793217  0.87498303  1
  O  O421  1  0.13026870  0.61544014  0.36166527  1
  O  O422  1  0.13470636  0.63467534  0.87445040  1
  O  O423  1  0.62291728  0.13728144  0.38693290  1
  O  O424  1  0.63514773  0.13149036  0.87440925  1
  O  O425  1  0.62387603  0.63265840  0.38232218  1
  O  O426  1  0.62936974  0.63338060  0.87869010  1
