# generated using pymatgen
data_V85Zn86O256
_symmetry_space_group_name_H-M   'P 1'
_cell_length_a   16.95816175
_cell_length_b   16.93566821
_cell_length_c   16.94110047
_cell_angle_alpha   90.06343364
_cell_angle_beta   90.04239959
_cell_angle_gamma   90.03784797
_symmetry_Int_Tables_number   1
_chemical_formula_structural   V85Zn86O256
_chemical_formula_sum   'V85 Zn86 O256'
_cell_volume   4865.44142102
_cell_formula_units_Z   1
loop_
 _symmetry_equiv_pos_site_id
 _symmetry_equiv_pos_as_xyz
  1  'x, y, z'
loop_
 _atom_site_type_symbol
 _atom_site_label
 _atom_site_symmetry_multiplicity
 _atom_site_fract_x
 _atom_site_fract_y
 _atom_site_fract_z
 _atom_site_occupancy
  V  V0  1  0.74853587  0.00342622  0.75028511  1
  V  V1  1  0.36635769  0.12062745  0.74666590  1
  V  V2  1  0.12505064  0.62521656  0.00095292  1
  V  V3  1  0.12948356  0.12377226  0.50136697  1
  V  V4  1  0.87777115  0.75471247  0.62346881  1
  V  V5  1  0.49922517  0.13322696  0.12879634  1
  V  V6  1  0.37828342  0.87391526  0.00215996  1
  V  V7  1  0.86094432  0.00454504  0.36988873  1
  V  V8  1  0.13140670  0.25053558  0.37703961  1
  V  V9  1  0.00140072  0.87253597  0.87336222  1
  V  V10  1  0.48432895  0.49166108  0.49957150  1
  V  V11  1  0.25413204  0.37797908  0.11863539  1
  V  V12  1  0.75603621  0.24182902  0.50146850  1
  V  V13  1  -0.00351101  0.63075977  0.12563959  1
  V  V14  1  0.49807402  0.74804158  0.74433743  1
  V  V15  1  0.12591248  0.48751843  0.62250375  1
  V  V16  1  0.62772699  0.25000294  0.37329756  1
  V  V17  1  0.74787440  0.50305164  0.24670151  1
  V  V18  1  0.87776938  0.62181991  0.75085647  1
  V  V19  1  0.25181514  0.10805196  0.36897619  1
  V  V20  1  0.49564088  0.49524885  0.00126393  1
  V  V21  1  0.12189213  0.37555889  0.24793302  1
  V  V22  1  0.61274962  0.74599823  0.37493114  1
  V  V23  1  0.75349989  0.61643672  0.87359619  1
  V  V24  1  0.75090968  0.12488980  0.87244619  1
  V  V25  1  0.61743856  0.12342416  0.49332315  1
  V  V26  1  0.87110844  0.37683124  0.50522394  1
  V  V27  1  0.25352795  0.74953173  0.00297817  1
  V  V28  1  0.12390171  0.25870082  0.86242185  1
  V  V29  1  0.62510640  0.12332871  0.00549325  1
  V  V30  1  -0.00011713  0.00579952  0.50114746  1
  V  V31  1  0.75742242  0.74924917  0.00573507  1
  V  V32  1  0.12857606  0.00112269  0.63102184  1
  V  V33  1  0.49702428  0.37467701  0.87781951  1
  V  V34  1  0.25419102  0.87531966  0.63159744  1
  V  V35  1  0.37787731  0.75257333  0.13263881  1
  V  V36  1  -0.00146286  0.87796816  0.37390346  1
  V  V37  1  0.13582236  0.00252415  0.13123698  1
  V  V38  1  0.26412583  0.74992842  0.50445937  1
  V  V39  1  0.62066709  0.24929742  0.87557911  1
  V  V40  1  0.87276291  0.63666816  0.24794135  1
  V  V41  1  0.89772883  0.01821862  0.85475774  1
  V  V42  1  0.50089823  0.00286419  -0.00053146  1
  V  V43  1  0.87606616  0.50079094  0.37191095  1
  V  V44  1  0.49810325  0.24433946  0.74705769  1
  V  V45  1  0.25345127  0.49988049  0.25286626  1
  V  V46  1  -0.00301322  0.37223200  0.37597507  1
  V  V47  1  0.00267730  -0.00256328  0.00611117  1
  V  V48  1  0.25231713  0.62228754  0.37644656  1
  V  V49  1  0.62035217  0.37923590  0.74060706  1
  V  V50  1  0.13564338  0.88003428  0.25318179  1
  V  V51  1  0.87650075  0.87392575  0.00574275  1
  V  V52  1  0.62577550  0.62323121  -0.00000688  1
  V  V53  1  0.49445030  0.37676663  0.36975196  1
  V  V54  1  0.87714894  0.37860451  -0.01010793  1
  V  V55  1  0.12873754  0.74893133  0.87363177  1
  V  V56  1  0.12598011  0.75074889  0.37832095  1
  V  V57  1  0.00235880  0.75111732  0.74963831  1
  V  V58  1  0.74891786  0.62878181  0.37448802  1
  V  V59  1  0.62642703  0.61270056  0.50371601  1
  V  V60  1  0.37938891  0.62525322  0.25544181  1
  V  V61  1  0.50435176  0.61702530  0.62636792  1
  V  V62  1  0.12334647  0.50144230  0.12432194  1
  V  V63  1  0.62671662  0.36604196  0.24801913  1
  V  V64  1  0.37284274  0.10653920  0.25155660  1
  V  V65  1  0.38267950  0.89183062  0.50473530  1
  V  V66  1  0.37231387  0.26113341  0.61622425  1
  V  V67  1  -0.00255448  0.49770936  -0.01358763  1
  V  V68  1  0.49527026  0.88398494  0.37357239  1
  V  V69  1  0.00030210  0.12595525  0.13022270  1
  V  V70  1  0.61795845  0.00105394  0.61864893  1
  V  V71  1  0.50069179  0.62641830  0.12800968  1
  V  V72  1  0.74433759  0.50344868  0.73693963  1
  V  V73  1  -0.00493502  0.24757959  0.25304077  1
  V  V74  1  0.37179739  0.49571499  0.87748225  1
  V  V75  1  0.36622833  -0.00125484  0.87246900  1
  V  V76  1  0.25408628  0.24994583  -0.00083523  1
  V  V77  1  0.37199823  0.62551353  0.74502731  1
  V  V78  1  0.74931440  0.87326895  0.62409308  1
  V  V79  1  0.85457329  0.11854787  0.24951991  1
  V  V80  1  0.62386162  0.87418793  0.74963961  1
  V  V81  1  0.86780114  0.25258178  0.12413900  1
  V  V82  1  0.24844389  0.48562040  0.74297705  1
  V  V83  1  0.37363605  0.25569808  0.14071484  1
  V  V84  1  0.62854469  0.75127506  0.87488793  1
  Zn  Zn85  1  0.25046224  0.62314561  0.87220091  1
  Zn  Zn86  1  0.74804474  0.74828671  0.50139318  1
  Zn  Zn87  1  0.13320533  0.88034732  0.75291224  1
  Zn  Zn88  1  -0.03717303  0.32492837  0.82017544  1
  Zn  Zn89  1  0.12645806  0.12904759  -0.00012028  1
  Zn  Zn90  1  0.00676971  0.62741468  0.62056270  1
  Zn  Zn91  1  0.50128039  0.87530067  0.87501978  1
  Zn  Zn92  1  0.24795915  0.25981574  0.50944658  1
  Zn  Zn93  1  0.75011345  0.37800691  0.12144080  1
  Zn  Zn94  1  0.74741210  0.88811501  0.13327289  1
  Zn  Zn95  1  0.62891064  0.88023528  0.25270540  1
  Zn  Zn96  1  0.74434210  0.37480923  0.62068371  1
  Zn  Zn97  1  0.87443153  0.87530441  0.49789509  1
  Zn  Zn98  1  0.75004624  0.25448359  -0.00180082  1
  Zn  Zn99  1  0.26114308  0.88203196  0.13492644  1
  Zn  Zn100  1  0.00393888  0.50359855  0.49683094  1
  Zn  Zn101  1  -0.09889780  0.21669166  0.66506712  1
  Zn  Zn102  1  0.49400785  0.12012199  0.61585482  1
  Zn  Zn103  1  0.12663809  0.62593089  0.50354983  1
  Zn  Zn104  1  0.00007616  0.75384276  0.24700596  1
  Zn  Zn105  1  0.62405417  0.49956843  0.12645587  1
  Zn  Zn106  1  0.24797300  0.12238264  0.87586224  1
  Zn  Zn107  1  0.19101779  0.18811116  0.19291183  1
  Zn  Zn108  1  0.19199253  0.18664676  0.68599060  1
  Zn  Zn109  1  0.18827077  0.69048433  0.19000961  1
  Zn  Zn110  1  0.18869896  0.68583312  0.68455445  1
  Zn  Zn111  1  0.67840483  0.05216375  0.17890763  1
  Zn  Zn112  1  0.68893529  0.18669725  0.68217057  1
  Zn  Zn113  1  0.67000555  0.72161725  0.17337991  1
  Zn  Zn114  1  0.68580442  0.68729969  0.68551358  1
  Zn  Zn115  1  0.30014987  0.31941961  0.33241296  1
  Zn  Zn116  1  0.31428391  0.30934647  0.81283314  1
  Zn  Zn117  1  0.31812209  0.81298645  0.31716048  1
  Zn  Zn118  1  0.31599115  0.81139849  0.81412736  1
  Zn  Zn119  1  0.80812068  0.30973104  0.31250734  1
  Zn  Zn120  1  0.79854899  0.31369308  0.80918834  1
  Zn  Zn121  1  0.80676292  0.81562202  0.31398148  1
  Zn  Zn122  1  0.81631115  0.81613023  0.81349463  1
  Zn  Zn123  1  0.19049783  0.43474198  0.44127724  1
  Zn  Zn124  1  0.18676819  0.43682730  0.93606403  1
  Zn  Zn125  1  0.18980004  0.93447756  0.44342939  1
  Zn  Zn126  1  0.18860969  0.93465295  0.94500457  1
  Zn  Zn127  1  0.68733091  0.43717284  0.43485629  1
  Zn  Zn128  1  0.68685616  0.43756556  0.93566625  1
  Zn  Zn129  1  0.68286693  0.93332352  0.43856665  1
  Zn  Zn130  1  0.69193812  0.94022674  0.94254084  1
  Zn  Zn131  1  0.31607622  0.06653179  0.06180398  1
  Zn  Zn132  1  0.30869181  0.06643186  0.56150877  1
  Zn  Zn133  1  0.31406791  0.56417657  0.06370479  1
  Zn  Zn134  1  0.31255662  0.56290833  0.56554905  1
  Zn  Zn135  1  0.81716319  0.06327430  0.05447075  1
  Zn  Zn136  1  0.80676596  0.06145958  0.55401319  1
  Zn  Zn137  1  0.81533386  0.56301277  0.06298067  1
  Zn  Zn138  1  0.81641126  0.56557377  0.56198991  1
  Zn  Zn139  1  0.43679722  0.43887340  0.19165867  1
  Zn  Zn140  1  0.43785538  0.43752426  0.68743837  1
  Zn  Zn141  1  0.48124201  0.95601465  0.20138205  1
  Zn  Zn142  1  0.43655474  0.93578760  0.68825695  1
  Zn  Zn143  1  0.93639975  0.44032596  0.18375471  1
  Zn  Zn144  1  0.93684903  0.44440370  0.68567679  1
  Zn  Zn145  1  0.93865219  0.93639532  0.19050008  1
  Zn  Zn146  1  0.93419518  1.04101097  0.68039716  1
  Zn  Zn147  1  0.05947848  0.06206113  0.31405873  1
  Zn  Zn148  1  0.07123562  0.06645773  0.81627100  1
  Zn  Zn149  1  0.06308663  0.56490873  0.31242789  1
  Zn  Zn150  1  0.06550231  0.55939495  0.80568118  1
  Zn  Zn151  1  0.55862904  0.06715421  0.31440088  1
  Zn  Zn152  1  0.55944428  0.06193656  0.81419832  1
  Zn  Zn153  1  0.56246587  0.55896414  0.31453339  1
  Zn  Zn154  1  0.56333926  0.56162888  0.81462820  1
  Zn  Zn155  1  0.43859847  0.18987172  0.43000920  1
  Zn  Zn156  1  0.43108006  0.18834832  0.93957593  1
  Zn  Zn157  1  0.43778864  0.68274346  0.44145719  1
  Zn  Zn158  1  0.43893337  0.68330536  0.93477485  1
  Zn  Zn159  1  0.97609996  0.22320462  0.49803796  1
  Zn  Zn160  1  0.94098792  0.18726331  0.94168131  1
  Zn  Zn161  1  0.93922777  0.68854115  0.43914144  1
  Zn  Zn162  1  0.93802324  0.68454229  0.93635467  1
  Zn  Zn163  1  0.06253837  0.31198275  0.05848689  1
  Zn  Zn164  1  0.05962754  0.31288844  0.67112740  1
  Zn  Zn165  1  0.06689164  0.81383027  0.06588929  1
  Zn  Zn166  1  0.06471599  0.81771957  0.56147576  1
  Zn  Zn167  1  0.56228141  0.31218931  0.06489577  1
  Zn  Zn168  1  0.55820640  0.30873730  0.55843743  1
  Zn  Zn169  1  0.56187262  0.81348599  0.06157578  1
  Zn  Zn170  1  0.56101414  0.80659998  0.56093075  1
  O  O171  1  0.11798653  0.11881788  0.12852939  1
  O  O172  1  0.13747831  0.11715296  0.60991387  1
  O  O173  1  0.12108676  0.62083148  0.12008578  1
  O  O174  1  0.12648832  0.61461444  0.62197683  1
  O  O175  1  0.61431151  0.13119337  0.11189065  1
  O  O176  1  0.62292720  0.11711039  0.61525704  1
  O  O177  1  0.61577847  0.62811378  0.11888471  1
  O  O178  1  0.61294106  0.62484591  0.61987177  1
  O  O179  1  0.39681359  0.37454657  0.35854134  1
  O  O180  1  0.38111420  0.38721455  0.87074856  1
  O  O181  1  0.38675326  0.87021016  0.38944784  1
  O  O182  1  0.37948478  0.88065507  0.88246639  1
  O  O183  1  0.87760650  0.38308795  0.37571996  1
  O  O184  1  0.87391369  0.37182968  0.88737836  1
  O  O185  1  0.88398820  0.88227690  0.37523526  1
  O  O186  1  0.88702274  0.88753210  0.87942155  1
  O  O187  1  0.24572825  0.00856672  0.37604749  1
  O  O188  1  0.26200585  -0.00225115  0.88177746  1
  O  O189  1  0.24310143  0.51508310  0.36691778  1
  O  O190  1  0.25511697  0.50117521  0.86529082  1
  O  O191  1  0.76288369  -0.00734112  0.37985528  1
  O  O192  1  0.75580558  0.00868992  0.86808438  1
  O  O193  1  0.75649333  0.50630845  0.36510376  1
  O  O194  1  0.74436190  0.51260180  0.86421288  1
  O  O195  1  0.24440532  0.49585032  0.13040712  1
  O  O196  1  0.24527178  0.50120616  0.63556920  1
  O  O197  1  0.23890818  0.99910705  0.11835500  1
  O  O198  1  0.24105145  0.98840359  0.61584068  1
  O  O199  1  0.74894481  0.50200358  0.13668350  1
  O  O200  1  0.74755070  0.50217062  0.63389805  1
  O  O201  1  0.74160322  0.99819436  0.10297003  1
  O  O202  1  0.73937785  0.99206419  0.63163441  1
  O  O203  1  -0.00110165  0.36929995  0.25748314  1
  O  O204  1  0.01170231  0.38778036  0.74372728  1
  O  O205  1  0.01056988  0.87275423  0.25790412  1
  O  O206  1  0.00824550  0.86847338  0.76786244  1
  O  O207  1  0.51385142  0.38823031  0.26132696  1
  O  O208  1  0.50329461  0.36504449  0.75625344  1
  O  O209  1  0.49841056  0.86652288  0.27046304  1
  O  O210  1  0.50485761  0.86395081  0.75194787  1
  O  O211  1  0.48617414  0.12745991  0.24026995  1
  O  O212  1  0.49426609  0.13577868  0.75065136  1
  O  O213  1  0.49021042  0.61555498  0.24206536  1
  O  O214  1  0.49650821  0.62626911  0.74362741  1
  O  O215  1  0.99336364  0.12828981  0.24144723  1
  O  O216  1  0.96297943  0.07777557  0.78580350  1
  O  O217  1  0.99211917  0.62717222  0.24345286  1
  O  O218  1  0.99215035  0.63100141  0.74801496  1
  O  O219  1  0.36044252  0.24809171  0.01022110  1
  O  O220  1  0.37828027  0.24367341  0.51441393  1
  O  O221  1  0.37021052  0.75047800  0.00504114  1
  O  O222  1  0.36622310  0.75219730  0.50018965  1
  O  O223  1  0.87732910  0.25996286  0.00755247  1
  O  O224  1  0.86149243  0.26021984  0.48838395  1
  O  O225  1  0.86881914  0.76204111  -0.01383095  1
  O  O226  1  0.87204813  0.75291657  0.50899526  1
  O  O227  1  0.12768918  0.23780409  0.48832742  1
  O  O228  1  0.13883153  0.25025515  0.99837233  1
  O  O229  1  0.13535092  0.75491253  0.48827250  1
  O  O230  1  0.13425966  0.74596202  0.99560503  1
  O  O231  1  0.63387037  0.24416129  0.49436603  1
  O  O232  1  0.62303273  0.24434226  0.98976601  1
  O  O233  1  0.62498602  0.73463736  0.49483658  1
  O  O234  1  0.63413447  0.74366159  0.99019938  1
  O  O235  1  0.48771834  0.24116867  0.11765662  1
  O  O236  1  0.49151584  0.24544454  0.63231373  1
  O  O237  1  0.48939663  0.73438934  0.11636400  1
  O  O238  1  0.50410861  0.73879123  0.63825715  1
  O  O239  1  0.99215670  0.24217058  0.12976017  1
  O  O240  1  0.99280343  0.24993913  0.60718250  1
  O  O241  1  1.00697839  0.73582098  0.12622196  1
  O  O242  1  0.99431318  0.75339374  0.63084522  1
  O  O243  1  0.00991183  0.25591253  0.37612324  1
  O  O244  1  0.01982963  0.24785011  0.88473875  1
  O  O245  1  0.00878114  0.76195501  0.37617040  1
  O  O246  1  0.01002275  0.75437724  0.87365147  1
  O  O247  1  0.51251094  0.26776357  0.38171945  1
  O  O248  1  0.50226719  0.25395296  0.86950750  1
  O  O249  1  0.50949599  0.75398253  0.38651487  1
  O  O250  1  0.51393240  0.74667534  0.86785373  1
  O  O251  1  0.24647190  0.13082553  0.48550516  1
  O  O252  1  0.24765075  0.13502701  0.99969697  1
  O  O253  1  0.25232141  0.63184011  0.49285548  1
  O  O254  1  0.24646138  0.63490125  0.99796347  1
  O  O255  1  0.74071378  0.13821597  0.49719019  1
  O  O256  1  0.73925440  0.12939567  0.98867191  1
  O  O257  1  0.74223463  0.62295726  0.49369939  1
  O  O258  1  0.74901280  0.62774070  0.98968230  1
  O  O259  1  0.24713460  0.37307667  0.01399187  1
  O  O260  1  0.25501502  0.34685669  0.43958508  1
  O  O261  1  0.25796228  0.86218511  0.00571732  1
  O  O262  1  0.26479916  0.86870060  0.50482735  1
  O  O263  1  0.75895184  0.37602930  0.00118664  1
  O  O264  1  0.75397446  0.36786777  0.49988549  1
  O  O265  1  0.76022108  0.86512223  -0.00308458  1
  O  O266  1  0.75027185  0.87356862  0.51401121  1
  O  O267  1  0.13342851  0.49719209  0.24451590  1
  O  O268  1  0.14141913  0.50476687  0.73953387  1
  O  O269  1  0.12047808  0.99214366  0.24264453  1
  O  O270  1  0.12357904  1.00189240  0.73557084  1
  O  O271  1  0.63510223  0.49545163  0.24925692  1
  O  O272  1  0.63000632  0.49094176  0.75310262  1
  O  O273  1  0.59733478  0.99427700  0.23524769  1
  O  O274  1  0.63189867  0.99410111  0.74683394  1
  O  O275  1  0.38211350  0.00841210  0.24437950  1
  O  O276  1  0.38338435  0.00847481  0.75987806  1
  O  O277  1  0.36037803  0.50981931  0.24535864  1
  O  O278  1  0.36560957  0.50445071  0.75351879  1
  O  O279  1  0.87825676  0.00503601  0.26014019  1
  O  O280  1  0.85407481  -0.01571846  0.75434214  1
  O  O281  1  0.86932784  0.50603633  0.25801475  1
  O  O282  1  0.86395489  0.51497295  0.74362050  1
  O  O283  1  0.11301186  0.36861165  0.36667127  1
  O  O284  1  0.13015788  0.35783107  0.87638501  1
  O  O285  1  0.12036827  0.87142871  0.37093204  1
  O  O286  1  0.12313757  0.86385429  0.87753809  1
  O  O287  1  0.61996988  0.37125104  0.36771366  1
  O  O288  1  0.61844826  0.36603745  0.86696750  1
  O  O289  1  0.61272378  0.86160443  0.38144059  1
  O  O290  1  0.62551040  0.86685856  0.87007016  1
  O  O291  1  0.37872391  0.13309291  0.13550245  1
  O  O292  1  0.37758431  0.12758430  0.63241455  1
  O  O293  1  0.38022934  0.63049526  0.13478939  1
  O  O294  1  0.38728147  0.61987201  0.63699324  1
  O  O295  1  0.88239538  0.13011610  0.12951984  1
  O  O296  1  0.86868024  0.11580015  0.62874486  1
  O  O297  1  0.88518240  0.61931944  0.13605346  1
  O  O298  1  0.87688182  0.63780515  0.63243167  1
  O  O299  1  0.25471121  0.25939733  0.12157023  1
  O  O300  1  0.26629480  0.24984979  0.62427999  1
  O  O301  1  0.25984671  0.75017279  0.11868181  1
  O  O302  1  0.24425927  0.76027082  0.61367625  1
  O  O303  1  0.76590103  0.25041015  0.12029205  1
  O  O304  1  0.75084127  0.25341242  0.60936170  1
  O  O305  1  0.76229259  0.73786642  0.10551232  1
  O  O306  1  0.75578940  0.75665213  0.62547726  1
  O  O307  1  0.22926666  0.22748805  0.34603029  1
  O  O308  1  0.24353695  0.24987367  0.88192494  1
  O  O309  1  0.24571692  0.74158980  0.38150701  1
  O  O310  1  0.24501443  0.74820716  0.88337152  1
  O  O311  1  0.73699350  0.25630173  0.38668302  1
  O  O312  1  0.73582846  0.24325622  0.87625738  1
  O  O313  1  0.73853977  0.74379829  0.38148831  1
  O  O314  1  0.74157091  0.74190984  0.87546962  1
  O  O315  1  0.00295721  0.11586518  0.01390689  1
  O  O316  1  0.01331193  0.11214558  0.49079459  1
  O  O317  1  0.00344551  0.61910030  0.00727771  1
  O  O318  1  0.00623386  0.62157412  0.50055090  1
  O  O319  1  0.50438327  0.12214928  0.00311356  1
  O  O320  1  0.51266739  0.12999319  0.49835688  1
  O  O321  1  0.50422194  0.61460410  0.00527524  1
  O  O322  1  0.50332686  0.61207582  0.50746012  1
  O  O323  1  0.50395834  0.38594642  0.49040774  1
  O  O324  1  0.50472129  0.38856843  0.99619036  1
  O  O325  1  0.48718050  0.87040060  0.49814754  1
  O  O326  1  0.49698699  0.88418063  0.99911629  1
  O  O327  1  0.98709592  0.38002702  0.48286189  1
  O  O328  1  0.99206314  0.38693471  1.00583561  1
  O  O329  1  0.99971825  0.88629953  0.49085222  1
  O  O330  1  0.99731684  0.87758104  0.99538313  1
  O  O331  1  0.50385397  0.49021397  0.38900234  1
  O  O332  1  0.49247038  0.49574293  0.88154905  1
  O  O333  1  0.50462172  0.98254617  0.37903972  1
  O  O334  1  0.48903782  0.99997111  0.88457933  1
  O  O335  1  0.99224429  0.49281140  0.37146587  1
  O  O336  1  1.00536543  0.50650199  0.88726767  1
  O  O337  1  0.99475247  0.99051209  0.37974005  1
  O  O338  1  1.00826348  0.98820146  0.88996684  1
  O  O339  1  0.00698688  0.00601873  0.12230247  1
  O  O340  1  0.01233078  -0.00467797  0.61161743  1
  O  O341  1  0.00802091  0.51103189  0.12124595  1
  O  O342  1  0.01655940  0.50261916  0.61981292  1
  O  O343  1  0.49165467  0.01813333  0.10692463  1
  O  O344  1  0.51478408  0.00035352  0.63170703  1
  O  O345  1  0.49817947  0.50972041  0.11760094  1
  O  O346  1  0.49821476  0.50275203  0.61239632  1
  O  O347  1  0.24297482  0.38494659  0.24458801  1
  O  O348  1  0.25475089  0.38775274  0.75044411  1
  O  O349  1  0.24017766  0.87084675  0.25289712  1
  O  O350  1  0.25393906  0.86922742  0.73623655  1
  O  O351  1  0.74409174  0.38485505  0.24795396  1
  O  O352  1  0.73818516  0.38653520  0.74601374  1
  O  O353  1  0.74358332  0.87504041  0.24706123  1
  O  O354  1  0.74172417  0.87759308  0.74166902  1
  O  O355  1  0.26440415  0.11618478  0.24921457  1
  O  O356  1  0.26332883  0.12520860  0.75333837  1
  O  O357  1  0.25584359  0.62020145  0.25654904  1
  O  O358  1  0.26095820  0.62098541  0.75137908  1
  O  O359  1  0.75602195  0.11892971  0.24033371  1
  O  O360  1  0.74114153  0.11716488  0.76156384  1
  O  O361  1  0.75788088  0.61963353  0.25593021  1
  O  O362  1  0.75354400  0.62056890  0.75395210  1
  O  O363  1  0.36905223  0.12929823  0.35861108  1
  O  O364  1  0.37216946  0.11667587  0.86773541  1
  O  O365  1  0.36876630  0.63033956  0.36356553  1
  O  O366  1  0.37677277  0.61179929  0.86379383  1
  O  O367  1  0.87303340  0.10785570  0.36248440  1
  O  O368  1  0.86161994  0.11861502  0.88986014  1
  O  O369  1  0.87146900  0.61856603  0.36838773  1
  O  O370  1  0.86537924  0.63139118  0.86311903  1
  O  O371  1  0.13063163  0.38135619  0.13077847  1
  O  O372  1  0.13402734  0.38823207  0.61965083  1
  O  O373  1  0.12864020  0.88305123  0.13615457  1
  O  O374  1  0.13584978  0.88307993  0.62670131  1
  O  O375  1  0.62787168  0.37729346  0.13321263  1
  O  O376  1  0.62147946  0.36754200  0.63783078  1
  O  O377  1  0.63657182  0.83435580  0.14030954  1
  O  O378  1  0.62958475  0.87894207  0.62832650  1
  O  O379  1  0.11236662  0.25644940  0.25128812  1
  O  O380  1  0.12440717  0.24780879  0.75661275  1
  O  O381  1  0.12485935  0.75729650  0.26288087  1
  O  O382  1  0.12183747  0.75094499  0.75918332  1
  O  O383  1  0.63019482  0.26469239  0.25865307  1
  O  O384  1  0.61704697  0.25340666  0.75651678  1
  O  O385  1  0.62001671  0.73887030  0.27448454  1
  O  O386  1  0.61933918  0.75342817  0.75633797  1
  O  O387  1  0.36581579  0.24915760  0.24084183  1
  O  O388  1  0.38174039  0.24218607  0.74312036  1
  O  O389  1  0.37017842  0.74126401  0.24025689  1
  O  O390  1  0.38732170  0.73811802  0.75978366  1
  O  O391  1  0.87673977  0.23993735  0.24541764  1
  O  O392  1  0.88376032  0.26056198  0.76430927  1
  O  O393  1  0.87822373  0.73896743  0.25792204  1
  O  O394  1  0.88210838  0.74491735  0.74484763  1
  O  O395  1  0.38574706  0.50045882  0.49947583  1
  O  O396  1  0.38240935  0.50656376  0.98990723  1
  O  O397  1  0.37649656  0.99018803  0.50195941  1
  O  O398  1  0.38057657  0.99496019  0.99350037  1
  O  O399  1  0.87311428  0.49605798  0.48530098  1
  O  O400  1  0.88549586  0.49184594  1.00408592  1
  O  O401  1  0.88240172  0.99932038  0.48724579  1
  O  O402  1  0.89126596  0.99610994  0.98817109  1
  O  O403  1  0.11601342  -0.00075422  0.01066192  1
  O  O404  1  0.11949234  0.00438676  0.50554638  1
  O  O405  1  0.12002926  0.50658119  0.00425942  1
  O  O406  1  0.13058826  0.50046785  0.51091097  1
  O  O407  1  0.61327717  0.01224127  -0.01264323  1
  O  O408  1  0.63219897  0.01060981  0.50725751  1
  O  O409  1  0.61740173  0.50685980  0.00159951  1
  O  O410  1  0.61918019  0.50944804  0.49724539  1
  O  O411  1  0.36548779  0.37048245  0.13155719  1
  O  O412  1  0.38042569  0.35985710  0.62587087  1
  O  O413  1  0.37880781  0.86370442  0.12029564  1
  O  O414  1  0.37027823  0.87788134  0.61384736  1
  O  O415  1  0.87412183  0.36751047  0.11915455  1
  O  O416  1  0.87008301  0.38752971  0.60764438  1
  O  O417  1  0.87747892  0.88107374  0.10892517  1
  O  O418  1  0.86469757  0.86207750  0.62518019  1
  O  O419  1  0.13058037  0.12538386  0.38127937  1
  O  O420  1  0.13150046  0.13686485  0.87900792  1
  O  O421  1  0.13328495  0.63473256  0.37601805  1
  O  O422  1  0.12623192  0.63556871  0.88069183  1
  O  O423  1  0.61961915  0.13743022  0.37900700  1
  O  O424  1  0.62744246  0.13316550  0.88090407  1
  O  O425  1  0.62642554  0.62918873  0.38453062  1
  O  O426  1  0.63258564  0.63152748  0.87986379  1
