# generated using pymatgen
data_V85Zn86O256
_symmetry_space_group_name_H-M   'P 1'
_cell_length_a   16.93326655
_cell_length_b   16.94741834
_cell_length_c   16.94994812
_cell_angle_alpha   89.96005768
_cell_angle_beta   90.07781517
_cell_angle_gamma   90.07168272
_symmetry_Int_Tables_number   1
_chemical_formula_structural   V85Zn86O256
_chemical_formula_sum   'V85 Zn86 O256'
_cell_volume   4864.20447211
_cell_formula_units_Z   1
loop_
 _symmetry_equiv_pos_site_id
 _symmetry_equiv_pos_as_xyz
  1  'x, y, z'
loop_
 _atom_site_type_symbol
 _atom_site_label
 _atom_site_symmetry_multiplicity
 _atom_site_fract_x
 _atom_site_fract_y
 _atom_site_fract_z
 _atom_site_occupancy
  V  V0  1  0.62617903  0.75230063  0.87649759  1
  V  V1  1  0.25307219  0.62666575  0.87890485  1
  V  V2  1  0.37087728  -0.01107718  0.37639952  1
  V  V3  1  0.25793514  0.49959102  0.25487709  1
  V  V4  1  0.50172594  0.12671991  0.13169809  1
  V  V5  1  0.49157930  0.87519353  0.87950118  1
  V  V6  1  0.63662535  0.87652634  0.25499344  1
  V  V7  1  0.37916092  0.38509422  0.49364456  1
  V  V8  1  0.49404974  -0.00541064  0.00492331  1
  V  V9  1  0.62752473  0.62739506  0.00236792  1
  V  V10  1  0.12379561  0.12626728  0.49001015  1
  V  V11  1  0.87222106  0.00107067  0.86768599  1
  V  V12  1  0.62815116  0.88303384  0.74632546  1
  V  V13  1  0.17843402  0.93806127  0.18567040  1
  V  V14  1  0.25030742  0.87667741  0.62120613  1
  V  V15  1  0.91453856  0.55514551  0.81835007  1
  V  V16  1  0.37531165  0.75543342  0.62103095  1
  V  V17  1  0.88028289  0.75215213  0.13427116  1
  V  V18  1  0.75354602  0.62609805  0.38040483  1
  V  V19  1  0.12625582  0.75002626  0.87344540  1
  V  V20  1  0.25832380  0.62158845  0.38021947  1
  V  V21  1  0.87557232  0.87485392  -0.00033798  1
  V  V22  1  0.75367881  0.37942882  0.61545744  1
  V  V23  1  0.37139743  0.01306546  0.87839572  1
  V  V24  1  0.76376986  0.24836232  0.50328868  1
  V  V25  1  0.25112204  0.37394494  0.62483770  1
  V  V26  1  0.12448050  0.00010221  0.62123763  1
  V  V27  1  0.49938399  0.49944350  0.00272480  1
  V  V28  1  0.50375994  0.37404028  0.87439632  1
  V  V29  1  0.62481632  0.12316505  0.00096828  1
  V  V30  1  0.75200671  0.37613071  0.12786900  1
  V  V31  1  0.73754165  0.49838470  0.74748188  1
  V  V32  1  0.00472883  0.12586443  0.12245048  1
  V  V33  1  0.12351243  0.62581092  0.50432011  1
  V  V34  1  0.87578456  0.25044819  0.12507006  1
  V  V35  1  0.12053765  0.74915410  0.36333041  1
  V  V36  1  0.63468877  -0.00118861  0.13064711  1
  V  V37  1  -0.00424827  -0.00494655  0.49871317  1
  V  V38  1  0.62183000  0.60643886  0.50477008  1
  V  V39  1  0.37799625  0.24971144  0.13020746  1
  V  V40  1  0.37569667  0.50116418  0.87983900  1
  V  V41  1  0.37612803  0.11929477  0.25160322  1
  V  V42  1  0.75058523  0.12105223  0.36903461  1
  V  V43  1  0.49800615  0.12084281  0.63088069  1
  V  V44  1  0.00217760  0.63341109  0.13549667  1
  V  V45  1  0.49825792  0.39194797  0.37180371  1
  V  V46  1  0.12422273  0.49960540  0.62425380  1
  V  V47  1  0.74906909  0.24996216  -0.00110434  1
  V  V48  1  0.50006279  0.75016512  0.75032236  1
  V  V49  1  0.74952272  0.62196685  0.87066616  1
  V  V50  1  0.87463261  0.11033203  0.24608719  1
  V  V51  1  0.12059935  0.87268584  0.74635466  1
  V  V52  1  0.87544416  0.13582069  0.74002978  1
  V  V53  1  0.50336195  0.75382559  0.25471076  1
  V  V54  1  -0.00170370  0.87378523  0.86909221  1
  V  V55  1  0.12687129  0.37211533  0.25747793  1
  V  V56  1  0.49950248  0.62683685  0.12872184  1
  V  V57  1  0.37643804  0.62682286  0.75018617  1
  V  V58  1  0.37478302  0.24433291  0.62756837  1
  V  V59  1  0.24831027  0.12073863  0.36793390  1
  V  V60  1  0.49607252  -0.00603511  0.50329743  1
  V  V61  1  0.12707640  0.62631216  0.00300412  1
  V  V62  1  0.62677867  0.49996898  0.12928083  1
  V  V63  1  0.24821936  0.24948404  0.00291526  1
  V  V64  1  0.87447903  0.73773317  0.62937588  1
  V  V65  1  0.62365142  0.12219226  0.50576925  1
  V  V66  1  0.00505582  0.24854117  0.25426437  1
  V  V67  1  0.61287501  0.24577679  0.37141050  1
  V  V68  1  0.24961507  0.25079401  0.48824051  1
  V  V69  1  0.24965557  0.49372704  0.75089429  1
  V  V70  1  0.19645898  0.18128550  0.82508567  1
  V  V71  1  0.63082703  0.75348767  0.39058865  1
  V  V72  1  -0.00812705  0.37216082  0.37808056  1
  V  V73  1  0.00917838  0.37003159  0.86912840  1
  V  V74  1  0.25369727  0.00087043  0.75545367  1
  V  V75  1  -0.00028972  0.86930157  0.36774867  1
  V  V76  1  0.12567016  0.49916527  0.12856720  1
  V  V77  1  0.00457691  0.00439672  -0.00502139  1
  V  V78  1  -0.00637635  0.50048347  0.00292750  1
  V  V79  1  0.87351719  0.37695513  -0.00919484  1
  V  V80  1  0.74841918  0.12685747  0.87222049  1
  V  V81  1  -0.00792447  0.49753592  0.50331249  1
  V  V82  1  0.13190566  0.12609045  0.00138387  1
  V  V83  1  0.24940300  0.75613409  0.49817761  1
  V  V84  1  0.37385243  0.76405172  0.12507350  1
  Zn  Zn85  1  0.37446359  0.37448541  0.00408371  1
  Zn  Zn86  1  0.37954812  0.62288397  0.25712276  1
  Zn  Zn87  1  -0.00756897  0.13377957  0.61541184  1
  Zn  Zn88  1  0.62201221  0.25044432  0.87175763  1
  Zn  Zn89  1  0.87237437  0.49639727  0.37590827  1
  Zn  Zn90  1  0.75910558  0.87891706  0.13123356  1
  Zn  Zn91  1  0.00542662  0.25444680  0.74972931  1
  Zn  Zn92  1  0.61919828  0.37119939  0.73513121  1
  Zn  Zn93  1  0.49723972  0.87305255  0.38085285  1
  Zn  Zn94  1  0.86836459  0.86082981  0.49982048  1
  Zn  Zn95  1  -0.00232500  0.72509652  0.74731103  1
  Zn  Zn96  1  0.75095312  0.87540594  0.61040709  1
  Zn  Zn97  1  0.75392477  0.50014572  0.25367502  1
  Zn  Zn98  1  0.62080330  0.36808344  0.24772242  1
  Zn  Zn99  1  0.25167572  0.37508905  0.12759499  1
  Zn  Zn100  1  0.51211783  0.61391121  0.62586952  1
  Zn  Zn101  1  0.26347084  0.76642242  0.00066964  1
  Zn  Zn102  1  0.49787637  0.24530129  0.75114851  1
  Zn  Zn103  1  0.74339046  0.00603532  0.73709005  1
  Zn  Zn104  1  0.86863808  -0.00944122  0.36988642  1
  Zn  Zn105  1  0.87898385  0.62427852  0.25607201  1
  Zn  Zn106  1  0.75345598  0.75069598  0.00154620  1
  Zn  Zn107  1  0.18801126  0.18395364  0.18721927  1
  Zn  Zn108  1  0.15342022  0.21297373  0.65371536  1
  Zn  Zn109  1  0.19332998  0.68701207  0.18947840  1
  Zn  Zn110  1  0.19053835  0.68503502  0.68666885  1
  Zn  Zn111  1  0.68845514  0.18764375  0.18949429  1
  Zn  Zn112  1  0.68361397  0.19261080  0.68542976  1
  Zn  Zn113  1  0.69388172  0.69196031  0.19264984  1
  Zn  Zn114  1  0.69198336  0.69025454  0.68491768  1
  Zn  Zn115  1  0.31807803  0.30967392  0.31040199  1
  Zn  Zn116  1  0.32204956  0.31647258  0.81072754  1
  Zn  Zn117  1  0.30601958  0.81309675  0.30324940  1
  Zn  Zn118  1  0.31182166  0.81600059  0.81305547  1
  Zn  Zn119  1  0.81284691  0.30459281  0.31201816  1
  Zn  Zn120  1  0.80970975  0.31612166  0.80786870  1
  Zn  Zn121  1  0.81384959  0.80875927  0.31726782  1
  Zn  Zn122  1  0.81203558  0.80667155  0.80528053  1
  Zn  Zn123  1  0.18640742  0.43701071  0.43749896  1
  Zn  Zn124  1  0.18883665  0.43721527  0.94302886  1
  Zn  Zn125  1  0.18349437  0.93614120  0.43063450  1
  Zn  Zn126  1  0.19009953  0.93670818  0.94051954  1
  Zn  Zn127  1  0.68810535  0.43324489  0.43707065  1
  Zn  Zn128  1  0.68742766  0.44154635  0.93709798  1
  Zn  Zn129  1  0.68693089  0.94120819  0.44133026  1
  Zn  Zn130  1  0.68644959  0.93894959  0.93641449  1
  Zn  Zn131  1  0.31013568  0.05627410  0.06676484  1
  Zn  Zn132  1  0.31206659  0.06234646  0.55944093  1
  Zn  Zn133  1  0.31285501  0.56626020  0.06785936  1
  Zn  Zn134  1  0.34261822  0.55185704  0.57579197  1
  Zn  Zn135  1  0.81574945  0.06189197  0.05945141  1
  Zn  Zn136  1  0.80793115  0.05506176  0.56003244  1
  Zn  Zn137  1  0.81402386  0.56580840  0.06366561  1
  Zn  Zn138  1  0.80829772  0.56657884  0.56383248  1
  Zn  Zn139  1  0.43921829  0.43433023  0.19226805  1
  Zn  Zn140  1  0.43765932  0.43651774  0.68774070  1
  Zn  Zn141  1  0.44179249  0.93910622  0.19336562  1
  Zn  Zn142  1  0.43654123  0.93806147  0.68995214  1
  Zn  Zn143  1  0.93637003  0.43944328  0.18972249  1
  Zn  Zn144  1  0.93348202  0.42962573  0.67969155  1
  Zn  Zn145  1  0.97427123  0.92479927  0.17200854  1
  Zn  Zn146  1  0.93306286  0.93765505  0.68016692  1
  Zn  Zn147  1  0.06073138  0.05710023  0.31182258  1
  Zn  Zn148  1  0.05829272  0.05944342  0.80564647  1
  Zn  Zn149  1  0.06628281  0.55908894  0.31788814  1
  Zn  Zn150  1  0.07942039  0.54882321  0.81961165  1
  Zn  Zn151  1  0.56056439  0.05934367  0.31494933  1
  Zn  Zn152  1  0.55825655  0.06277740  0.81509790  1
  Zn  Zn153  1  0.57094696  0.56640265  0.31257977  1
  Zn  Zn154  1  0.56325079  0.56278164  0.81248330  1
  Zn  Zn155  1  0.43414545  0.18411995  0.44320341  1
  Zn  Zn156  1  0.43722403  0.18749284  0.94329587  1
  Zn  Zn157  1  0.44038664  0.68797247  0.44227908  1
  Zn  Zn158  1  0.43898491  0.68947859  0.94253340  1
  Zn  Zn159  1  0.93876168  0.18353470  0.43012907  1
  Zn  Zn160  1  0.93739618  0.19091597  0.93284292  1
  Zn  Zn161  1  0.93897736  0.68407178  0.44583334  1
  Zn  Zn162  1  0.94427940  0.69415489  0.94437719  1
  Zn  Zn163  1  0.06563037  0.31308900  0.06300221  1
  Zn  Zn164  1  0.06311485  0.31588761  0.55738810  1
  Zn  Zn165  1  0.09159433  0.82745771  0.05303477  1
  Zn  Zn166  1  0.05212950  0.80700639  0.56432883  1
  Zn  Zn167  1  0.56272840  0.31151273  0.06024604  1
  Zn  Zn168  1  0.56417826  0.31158574  0.55715592  1
  Zn  Zn169  1  0.56490108  0.81468005  0.06549141  1
  Zn  Zn170  1  0.56008538  0.81224758  0.56650299  1
  O  O171  1  0.11605796  0.12889993  0.11403337  1
  O  O172  1  0.13336918  0.11183311  0.60369286  1
  O  O173  1  0.12051585  0.62183044  0.12000480  1
  O  O174  1  0.13369344  0.60962363  0.61863873  1
  O  O175  1  0.61929215  0.11903421  0.12370191  1
  O  O176  1  0.61474348  0.12992816  0.61440289  1
  O  O177  1  0.61887019  0.62051921  0.12450240  1
  O  O178  1  0.62884010  0.62744367  0.60982497  1
  O  O179  1  0.39146303  0.36692847  0.37843357  1
  O  O180  1  0.38600788  0.38380599  0.88024458  1
  O  O181  1  0.37325326  0.88548112  0.36593295  1
  O  O182  1  0.38748463  0.88167711  0.87300238  1
  O  O183  1  0.88789423  0.37376104  0.36873703  1
  O  O184  1  0.88004031  0.37113875  0.88743857  1
  O  O185  1  0.88650670  0.87189507  0.37990449  1
  O  O186  1  0.87873664  0.88273807  0.87784908  1
  O  O187  1  0.25880247  0.00863339  0.38199132  1
  O  O188  1  0.25840537  -0.00692376  0.86919910  1
  O  O189  1  0.24038277  0.51134901  0.36737200  1
  O  O190  1  0.25507538  0.50337172  0.87149282  1
  O  O191  1  0.75090731  0.01679959  0.37604990  1
  O  O192  1  0.75602921  0.01251807  0.87315486  1
  O  O193  1  0.75147593  0.50634929  0.37494071  1
  O  O194  1  0.74950726  0.50803120  0.86581527  1
  O  O195  1  0.24321646  0.49981586  0.13431610  1
  O  O196  1  0.25145790  0.49304997  0.63345832  1
  O  O197  1  0.23600435  0.99275733  0.12168863  1
  O  O198  1  0.24726237  0.99361597  0.63092686  1
  O  O199  1  0.74360756  0.49303205  0.12461137  1
  O  O200  1  0.75229937  0.48759064  0.62997716  1
  O  O201  1  0.73860288  1.00063201  0.12062175  1
  O  O202  1  0.74856080  0.99046953  0.62635817  1
  O  O203  1  0.00656192  0.36701915  0.25388399  1
  O  O204  1  -0.00626215  0.37550564  0.76518515  1
  O  O205  1  -0.00445618  0.87064374  0.26931253  1
  O  O206  1  0.01335153  0.88614360  0.75239857  1
  O  O207  1  0.50275969  0.37357995  0.26606444  1
  O  O208  1  0.50024807  0.37525205  0.75880575  1
  O  O209  1  0.50999545  0.86391095  0.25214866  1
  O  O210  1  0.50726295  0.87050076  0.75914093  1
  O  O211  1  0.49427253  0.12087107  0.23875872  1
  O  O212  1  0.50194867  0.12268332  0.73541450  1
  O  O213  1  0.50325345  0.63603088  0.24609551  1
  O  O214  1  0.49533352  0.63316705  0.74886042  1
  O  O215  1  0.99814974  0.13019096  0.24126268  1
  O  O216  1  0.98575993  0.12908072  0.74979885  1
  O  O217  1  1.00340211  0.61846973  0.23845904  1
  O  O218  1  0.99112439  0.60619993  0.76840903  1
  O  O219  1  0.36431815  0.24602981  0.01234240  1
  O  O220  1  0.36534541  0.25519914  0.50589664  1
  O  O221  1  0.37944704  0.75094263  0.01776182  1
  O  O222  1  0.36419355  0.74736094  0.50909162  1
  O  O223  1  0.86966465  0.25716211  0.00483559  1
  O  O224  1  0.86225583  0.24112813  0.49546404  1
  O  O225  1  0.87612644  0.76158420  0.00739332  1
  O  O226  1  0.88286187  0.74586221  0.51980720  1
  O  O227  1  0.13778659  0.23982375  0.50148016  1
  O  O228  1  0.13886528  0.24470833  1.00164548  1
  O  O229  1  0.13024132  0.74142907  0.49808224  1
  O  O230  1  0.11023795  0.73123088  0.99069563  1
  O  O231  1  0.63026209  0.23851093  0.48686594  1
  O  O232  1  0.63207151  0.24162444  0.99705800  1
  O  O233  1  0.62164198  0.75094150  0.49142383  1
  O  O234  1  0.62755430  0.74586283  0.99454254  1
  O  O235  1  0.49243034  0.23799569  0.11785038  1
  O  O236  1  0.49014958  0.24115517  0.62037626  1
  O  O237  1  0.49664364  0.74425764  0.13296832  1
  O  O238  1  0.48986062  0.74621325  0.63206099  1
  O  O239  1  0.99604142  0.24178127  0.12747878  1
  O  O240  1  1.03455486  0.24152937  0.63783245  1
  O  O241  1  0.99536865  0.73866210  0.11689186  1
  O  O242  1  0.98952190  0.74582532  0.63453787  1
  O  O243  1  0.00046254  0.25564841  0.36397085  1
  O  O244  1  0.00274776  0.26564415  0.87390867  1
  O  O245  1  0.01187808  0.75531300  0.38212972  1
  O  O246  1  0.00698045  0.75584613  0.86780203  1
  O  O247  1  0.51211386  0.24301996  0.37748521  1
  O  O248  1  0.49679515  0.25965908  0.87589152  1
  O  O249  1  0.50756122  0.75241427  0.36964871  1
  O  O250  1  0.50435925  0.75744750  0.87214531  1
  O  O251  1  0.24608747  0.13089334  0.48710838  1
  O  O252  1  0.23883155  0.12914637  1.00337102  1
  O  O253  1  0.24102001  0.63478691  0.49419684  1
  O  O254  1  0.24158129  0.62799532  0.99732158  1
  O  O255  1  0.74307987  0.13230501  0.49350676  1
  O  O256  1  0.74626091  0.12902156  0.99203656  1
  O  O257  1  0.73759981  0.62059073  0.48888113  1
  O  O258  1  0.74408173  0.62375585  0.99008387  1
  O  O259  1  0.25296983  0.36522604  0.00402124  1
  O  O260  1  0.25467864  0.36567923  0.50004076  1
  O  O261  1  0.19986911  0.85725331  0.01567068  1
  O  O262  1  0.24301214  0.86334317  0.50319431  1
  O  O263  1  0.75652365  0.37333160  0.00729472  1
  O  O264  1  0.75049453  0.36151566  0.50412331  1
  O  O265  1  0.76661132  0.87964078  -0.00002099  1
  O  O266  1  0.75418651  0.87390076  0.49424095  1
  O  O267  1  0.13333896  0.49197463  0.24672353  1
  O  O268  1  0.14148030  0.49846158  0.74085331  1
  O  O269  1  0.13808362  1.00278629  0.25211123  1
  O  O270  1  0.13494804  0.99472416  0.74421916  1
  O  O271  1  0.62870147  0.49580087  0.23831630  1
  O  O272  1  0.63344408  0.49616647  0.74969888  1
  O  O273  1  0.61805117  0.98962775  0.24204993  1
  O  O274  1  0.62218114  0.98596951  0.75709310  1
  O  O275  1  0.37910923  0.01123861  0.25829533  1
  O  O276  1  0.36020485  -0.00492666  0.75819415  1
  O  O277  1  0.36209200  0.50134201  0.24736549  1
  O  O278  1  0.36496544  0.50555740  0.76285919  1
  O  O279  1  0.88617984  0.00992425  0.24655582  1
  O  O280  1  0.87396318  0.00910653  0.75906605  1
  O  O281  1  0.87237071  0.50527209  0.25409340  1
  O  O282  1  0.86353532  0.49580388  0.75041560  1
  O  O283  1  0.11572427  0.37731245  0.36220688  1
  O  O284  1  0.10694847  0.38830582  0.87801463  1
  O  O285  1  0.11568749  0.85795009  0.37876651  1
  O  O286  1  0.11845428  0.87050478  0.86375397  1
  O  O287  1  0.61309432  0.36309942  0.37675086  1
  O  O288  1  0.61151961  0.37613611  0.87868760  1
  O  O289  1  0.62231680  0.86939864  0.36918288  1
  O  O290  1  0.61410119  0.87061782  0.87182468  1
  O  O291  1  0.38159819  0.12556856  0.13256929  1
  O  O292  1  0.38254949  0.13391538  0.61670046  1
  O  O293  1  0.39150736  0.62770470  0.12976371  1
  O  O294  1  0.35611852  0.64739414  0.63930365  1
  O  O295  1  0.88000898  0.13243970  0.12795059  1
  O  O296  1  0.87440820  0.12290824  0.63758565  1
  O  O297  1  0.88488947  0.63429084  0.12515889  1
  O  O298  1  0.86623769  0.63657995  0.63166809  1
  O  O299  1  0.25762953  0.25011875  0.11869493  1
  O  O300  1  0.25414734  0.25712917  0.61382247  1
  O  O301  1  0.27170383  0.74006499  0.12589102  1
  O  O302  1  0.25063107  0.75944899  0.61717634  1
  O  O303  1  0.75313484  0.25771858  0.11814908  1
  O  O304  1  0.74786482  0.25219646  0.60737680  1
  O  O305  1  0.76259212  0.75465240  0.12126398  1
  O  O306  1  0.76599464  0.76016234  0.63812685  1
  O  O307  1  0.25584816  0.24103103  0.38172068  1
  O  O308  1  0.25973115  0.24463669  0.88109991  1
  O  O309  1  0.23971149  0.74617812  0.38035591  1
  O  O310  1  0.24561474  0.74631817  0.88037215  1
  O  O311  1  0.74364119  0.24200666  0.38405276  1
  O  O312  1  0.75037656  0.24038530  0.87975481  1
  O  O313  1  0.74106462  0.73924138  0.37252809  1
  O  O314  1  0.74351760  0.74184494  0.87745929  1
  O  O315  1  0.00831863  0.12537307  0.00169952  1
  O  O316  1  0.00909379  0.12000667  0.49613193  1
  O  O317  1  0.00489240  0.61384223  0.00660703  1
  O  O318  1  0.01666993  0.61300093  0.49593416  1
  O  O319  1  0.50516539  0.11527628  0.01075802  1
  O  O320  1  0.50588812  0.11766082  0.50785938  1
  O  O321  1  0.50800324  0.62006428  0.00947487  1
  O  O322  1  0.51808343  0.62763307  0.50063869  1
  O  O323  1  0.49171185  0.37016757  0.48543031  1
  O  O324  1  0.49736370  0.38316572  0.99513382  1
  O  O325  1  0.50441881  0.88935095  0.50137013  1
  O  O326  1  0.50576670  0.88647047  0.99465388  1
  O  O327  1  1.00539061  0.38244203  0.48894198  1
  O  O328  1  0.99473313  0.38189118  0.99305307  1
  O  O329  1  0.99902549  0.88193008  0.49193625  1
  O  O330  1  0.99359858  0.88647857  0.99051355  1
  O  O331  1  0.50405432  0.49049197  0.37110766  1
  O  O332  1  0.49492069  0.49637748  0.88192534  1
  O  O333  1  0.48912084  0.99782700  0.38317379  1
  O  O334  1  0.49258190  0.99419064  0.88446902  1
  O  O335  1  0.99950356  0.49060681  0.38457804  1
  O  O336  1  0.98844655  0.49566757  0.88137944  1
  O  O337  1  1.00102839  0.98398637  0.37967668  1
  O  O338  1  0.99084349  0.99657647  0.87709110  1
  O  O339  1  -0.01108167  0.01917830  0.10801876  1
  O  O340  1  0.00688571  0.00636284  0.61566026  1
  O  O341  1  0.00672581  0.50472739  0.11785952  1
  O  O342  1  0.01356451  0.48627124  0.61802995  1
  O  O343  1  0.50770620  0.00514315  0.11988307  1
  O  O344  1  0.48979629  0.00772530  0.61644276  1
  O  O345  1  0.50713951  0.50650590  0.12459233  1
  O  O346  1  0.44895599  0.52150301  0.61982329  1
  O  O347  1  0.24388751  0.37982636  0.25258570  1
  O  O348  1  0.25892229  0.38260540  0.73911589  1
  O  O349  1  0.23460329  0.86966063  0.23658014  1
  O  O350  1  0.23823043  0.88138514  0.74525636  1
  O  O351  1  0.75047563  0.37251472  0.23648471  1
  O  O352  1  0.74398169  0.38171444  0.74129124  1
  O  O353  1  0.74097721  0.87322100  0.25109851  1
  O  O354  1  0.73210983  0.87909188  0.76261015  1
  O  O355  1  0.25796693  0.12935521  0.26113840  1
  O  O356  1  0.24280933  0.11832948  0.76026005  1
  O  O357  1  0.25227519  0.61649886  0.26086837  1
  O  O358  1  0.25499083  0.61814260  0.76074912  1
  O  O359  1  0.76279769  0.13112097  0.25591703  1
  O  O360  1  0.75802396  0.12626801  0.75527142  1
  O  O361  1  0.74887507  0.62217664  0.26622856  1
  O  O362  1  0.74333012  0.61685176  0.76268922  1
  O  O363  1  0.36935817  0.11856737  0.36765603  1
  O  O364  1  0.38075573  0.11240096  0.87602085  1
  O  O365  1  0.36218536  0.63221377  0.37650507  1
  O  O366  1  0.37227718  0.62152685  0.87245774  1
  O  O367  1  0.86876475  0.12199652  0.36171607  1
  O  O368  1  0.86809593  0.11970726  0.86785837  1
  O  O369  1  0.86626532  0.62546711  0.37694275  1
  O  O370  1  0.86769814  0.62565202  0.88182859  1
  O  O371  1  0.12605919  0.38159129  0.13641917  1
  O  O372  1  0.14318423  0.38497289  0.61643522  1
  O  O373  1  0.08996034  0.89430869  0.14320816  1
  O  O374  1  0.12892469  0.87978879  0.62967953  1
  O  O375  1  0.63272175  0.38162399  0.12481893  1
  O  O376  1  0.64214837  0.36673213  0.62037483  1
  O  O377  1  0.62964097  0.88287914  0.13408897  1
  O  O378  1  0.62408766  0.86728057  0.64493957  1
  O  O379  1  0.11383137  0.25651222  0.24235378  1
  O  O380  1  0.14116336  0.24225297  0.76613724  1
  O  O381  1  0.12474302  0.74085702  0.26522618  1
  O  O382  1  0.12318472  0.75581497  0.75408544  1
  O  O383  1  0.63073048  0.25046342  0.26680755  1
  O  O384  1  0.61741901  0.25333211  0.75481220  1
  O  O385  1  0.62024457  0.75801090  0.25781281  1
  O  O386  1  0.61682498  0.75571404  0.75883788  1
  O  O387  1  0.37294613  0.23682660  0.23764743  1
  O  O388  1  0.37706391  0.25348339  0.73200015  1
  O  O389  1  0.38512610  0.74728315  0.24271784  1
  O  O390  1  0.38355180  0.74896040  0.74866748  1
  O  O391  1  0.88804378  0.24332118  0.24223432  1
  O  O392  1  0.87714410  0.23776103  0.75402650  1
  O  O393  1  0.87510625  0.74758782  0.23762146  1
  O  O394  1  0.88507436  0.75338439  0.74146949  1
  O  O395  1  0.35900316  0.48243209  0.48629506  1
  O  O396  1  0.38018222  0.50164226  0.99607352  1
  O  O397  1  0.38312942  1.00444556  0.48838568  1
  O  O398  1  0.38376355  1.00234885  0.99509046  1
  O  O399  1  0.88944700  0.50623042  0.50286751  1
  O  O400  1  0.88558557  0.49180168  1.00767434  1
  O  O401  1  0.89025093  1.00748844  0.49268004  1
  O  O402  1  0.88361106  0.99883797  0.98629907  1
  O  O403  1  0.11069840  0.01203540  -0.01152253  1
  O  O404  1  0.11480587  0.00411791  0.49943156  1
  O  O405  1  0.11697517  0.50905582  0.00578055  1
  O  O406  1  0.12195704  0.50590808  0.50756300  1
  O  O407  1  0.61766166  0.00489995  0.00823971  1
  O  O408  1  0.61250352  0.01573908  0.48998925  1
  O  O409  1  0.62037913  0.50572634  0.01221656  1
  O  O410  1  0.62328646  0.50793653  0.49908787  1
  O  O411  1  0.37521579  0.36367613  0.12589200  1
  O  O412  1  0.36633929  0.36761246  0.61251007  1
  O  O413  1  0.38112928  0.86291105  0.13073673  1
  O  O414  1  0.36601306  0.86362808  0.63278201  1
  O  O415  1  0.86972543  0.37020469  0.11607389  1
  O  O416  1  0.85418829  0.36567515  0.62827491  1
  O  O417  1  0.88253634  0.87057664  0.11664693  1
  O  O418  1  0.87468780  0.86595074  0.61952001  1
  O  O419  1  0.13256688  0.11951256  0.38178882  1
  O  O420  1  0.12640343  0.12605424  0.87932530  1
  O  O421  1  0.13141608  0.63456642  0.38319357  1
  O  O422  1  0.13397981  0.62686861  0.88368812  1
  O  O423  1  0.63051785  0.13220776  0.37691682  1
  O  O424  1  0.63243146  0.12412282  0.88129095  1
  O  O425  1  0.63129323  0.63271836  0.38586762  1
  O  O426  1  0.63073845  0.63128332  0.88178187  1
