# generated using pymatgen
data_V85Zn86O256
_symmetry_space_group_name_H-M   'P 1'
_cell_length_a   16.93392066
_cell_length_b   16.93478219
_cell_length_c   16.93368371
_cell_angle_alpha   90.00001094
_cell_angle_beta   89.98991577
_cell_angle_gamma   89.96337320
_symmetry_Int_Tables_number   1
_chemical_formula_structural   V85Zn86O256
_chemical_formula_sum   'V85 Zn86 O256'
_cell_volume   4856.10964491
_cell_formula_units_Z   1
loop_
 _symmetry_equiv_pos_site_id
 _symmetry_equiv_pos_as_xyz
  1  'x, y, z'
loop_
 _atom_site_type_symbol
 _atom_site_label
 _atom_site_symmetry_multiplicity
 _atom_site_fract_x
 _atom_site_fract_y
 _atom_site_fract_z
 _atom_site_occupancy
  V  V0  1  0.00297443  0.11817188  0.62388514  1
  V  V1  1  0.74831704  0.88341840  0.12345290  1
  V  V2  1  0.62862559  0.12740440  0.01025712  1
  V  V3  1  0.25295826  -0.00199595  0.24229477  1
  V  V4  1  0.25598690  0.24493995  -0.00437950  1
  V  V5  1  -0.00630865  0.87546921  0.88146441  1
  V  V6  1  0.00069124  0.23734898  0.24293973  1
  V  V7  1  0.86912302  -0.00273327  0.87919328  1
  V  V8  1  0.50497994  0.00725388  0.01148543  1
  V  V9  1  0.12937653  0.87451088  0.24512871  1
  V  V10  1  0.87210219  0.12599246  0.75038559  1
  V  V11  1  0.50596867  0.25286438  0.25498928  1
  V  V12  1  0.12399944  0.12523811  0.00855210  1
  V  V13  1  0.25199390  0.49932323  0.24893621  1
  V  V14  1  0.00107580  0.37255692  0.37267274  1
  V  V15  1  0.12836763  0.24551360  0.37835681  1
  V  V16  1  0.12603077  0.49783973  0.12341714  1
  V  V17  1  -0.00141260  0.62426654  0.12473611  1
  V  V18  1  0.87529468  0.75589678  0.12161371  1
  V  V19  1  0.49397396  0.49912949  0.49771969  1
  V  V20  1  0.75401184  0.75788392  -0.00193223  1
  V  V21  1  0.00576137  0.37411783  0.87384346  1
  V  V22  1  0.87762610  0.24408737  0.10789754  1
  V  V23  1  0.49786522  0.62714348  0.62612764  1
  V  V24  1  0.24859479  0.49588113  0.75306978  1
  V  V25  1  0.63025224  0.24828952  0.87468414  1
  V  V26  1  0.68819784  0.19722481  0.43755573  1
  V  V27  1  -0.00521951  0.00261625  0.00864303  1
  V  V28  1  0.12722666  0.75362355  0.38183966  1
  V  V29  1  0.25084761  0.62827115  0.38091644  1
  V  V30  1  0.12969061  0.24391712  0.87285513  1
  V  V31  1  0.12752062  0.62737530  0.50133838  1
  V  V32  1  0.86822166  0.01097717  0.37610729  1
  V  V33  1  0.86938976  0.25189763  0.61855858  1
  V  V34  1  0.50094390  0.88165919  0.87342459  1
  V  V35  1  0.37649774  0.62516066  0.25038099  1
  V  V36  1  0.75273824  0.75688856  0.50186417  1
  V  V37  1  -0.00316198  0.75114259  0.75036764  1
  V  V38  1  0.75161125  0.61774877  0.37242068  1
  V  V39  1  -0.00329569  0.49255117  0.00143530  1
  V  V40  1  0.74792234  -0.00213764  0.73288463  1
  V  V41  1  0.50010538  0.63303834  0.12104706  1
  V  V42  1  0.62506467  0.75273839  0.87517465  1
  V  V43  1  0.12470473  0.62506728  0.00030851  1
  V  V44  1  0.62718749  0.88013960  0.73541016  1
  V  V45  1  0.25356817  0.12373282  0.37817774  1
  V  V46  1  0.12827916  0.37234182  0.24966164  1
  V  V47  1  0.37107983  0.87261336  0.50175984  1
  V  V48  1  0.25024755  0.62522824  0.87741359  1
  V  V49  1  0.49812754  0.75311174  0.74958403  1
  V  V50  1  0.25544370  0.37203836  0.11838440  1
  V  V51  1  0.62605675  0.62165874  0.49788842  1
  V  V52  1  0.59861098  0.46844546  0.11255257  1
  V  V53  1  0.36639207  0.36849836  0.51053581  1
  V  V54  1  -0.01268134  0.87305435  0.37784689  1
  V  V55  1  0.37331073  0.01146633  0.87488033  1
  V  V56  1  0.24928895  0.00064092  0.75335313  1
  V  V57  1  0.00165223  -0.00587757  0.50223005  1
  V  V58  1  0.51283245  0.00331602  0.50986115  1
  V  V59  1  0.12666417  0.49505674  0.63108434  1
  V  V60  1  0.62023700  0.37535427  0.75799284  1
  V  V61  1  0.50135658  0.87934898  0.37828154  1
  V  V62  1  0.62342296  0.88392717  0.24563639  1
  V  V63  1  0.00277246  0.25483051  0.74808263  1
  V  V64  1  0.49978299  0.75080764  0.25277184  1
  V  V65  1  0.38271049  0.12480094  0.24781417  1
  V  V66  1  0.12243854  0.88167565  0.74663643  1
  V  V67  1  0.37142090  0.87903755  0.00475599  1
  V  V68  1  0.62382874  0.49997285  0.62718619  1
  V  V69  1  0.75003371  0.50036083  0.74924769  1
  V  V70  1  0.87104534  0.76177328  0.62250638  1
  V  V71  1  0.76684304  0.37755894  0.10721904  1
  V  V72  1  0.38248486  0.24554162  0.12099050  1
  V  V73  1  0.24543811  0.87429241  0.62159588  1
  V  V74  1  0.38995631  0.49305716  0.89127578  1
  V  V75  1  -0.00082212  0.49721622  0.49899747  1
  V  V76  1  -0.00086953  0.74980324  0.25076341  1
  V  V77  1  0.48986617  0.25491580  0.75417371  1
  V  V78  1  0.24810592  0.75686476  0.00798278  1
  V  V79  1  -0.00445275  0.62599532  0.62494520  1
  V  V80  1  0.50208027  0.13418743  0.62360731  1
  V  V81  1  0.87301268  0.49477176  0.87749903  1
  V  V82  1  0.37416962  0.62585365  0.75330912  1
  V  V83  1  0.12369564  0.75213786  0.87537618  1
  V  V84  1  0.62393440  0.62647023  0.00428079  1
  Zn  Zn85  1  0.36810836  0.75879096  0.12968915  1
  Zn  Zn86  1  0.74109077  0.36747891  0.61935068  1
  Zn  Zn87  1  0.74895450  0.12765291  0.87687331  1
  Zn  Zn88  1  0.87170926  0.62511787  0.75003743  1
  Zn  Zn89  1  0.36589620  0.74739190  0.62009183  1
  Zn  Zn90  1  0.87643383  0.49896859  0.36915089  1
  Zn  Zn91  1  0.64562090  0.36313571  0.25605653  1
  Zn  Zn92  1  0.37300420  0.49511970  0.37411017  1
  Zn  Zn93  1  0.86694872  0.36884026  0.49159748  1
  Zn  Zn94  1  0.75418203  0.49841893  0.23818936  1
  Zn  Zn95  1  0.87060168  0.12458347  0.24399091  1
  Zn  Zn96  1  0.36868269  0.13047427  0.74586247  1
  Zn  Zn97  1  0.74114092  0.00808700  0.25273419  1
  Zn  Zn98  1  0.75150718  0.62550700  0.87670615  1
  Zn  Zn99  1  0.50226940  0.36751741  0.38018376  1
  Zn  Zn100  1  0.37685070  0.00232358  0.37870933  1
  Zn  Zn101  1  0.25579105  0.24477952  0.51797931  1
  Zn  Zn102  1  0.13067818  0.11696779  0.50535365  1
  Zn  Zn103  1  0.62616539  0.74697998  0.37304820  1
  Zn  Zn104  1  0.87315884  0.62466891  0.24906883  1
  Zn  Zn105  1  0.12361891  -0.00012604  0.12589676  1
  Zn  Zn106  1  0.18858402  0.32980072  0.68847261  1
  Zn  Zn107  1  0.19284061  0.18575912  0.18859391  1
  Zn  Zn108  1  0.18460472  0.16883639  0.68880638  1
  Zn  Zn109  1  0.18609771  0.68786253  0.19029201  1
  Zn  Zn110  1  0.18574370  0.68885594  0.68822143  1
  Zn  Zn111  1  0.69589562  0.18999973  0.18599249  1
  Zn  Zn112  1  0.68400331  0.18414857  0.68418515  1
  Zn  Zn113  1  0.68687754  0.69248424  0.18868257  1
  Zn  Zn114  1  0.68699421  0.68788865  0.68738969  1
  Zn  Zn115  1  0.31840591  0.31222239  0.31690153  1
  Zn  Zn116  1  0.31839559  0.31783689  0.82413093  1
  Zn  Zn117  1  0.31262199  0.81332997  0.31698306  1
  Zn  Zn118  1  0.31189910  0.81581947  0.81650639  1
  Zn  Zn119  1  0.81603909  0.30931151  0.30649161  1
  Zn  Zn120  1  0.81239862  0.31613127  0.81176553  1
  Zn  Zn121  1  0.80802012  0.80958281  0.31058938  1
  Zn  Zn122  1  0.81038322  0.81503503  0.80859467  1
  Zn  Zn123  1  0.18833359  0.43835677  0.43917022  1
  Zn  Zn124  1  0.18942639  0.43377231  0.93569899  1
  Zn  Zn125  1  0.18647857  0.93848047  0.43468260  1
  Zn  Zn126  1  0.18500654  0.93991810  0.93625771  1
  Zn  Zn127  1  0.68721214  0.42190952  0.43520705  1
  Zn  Zn128  1  0.68496046  0.43757572  0.93971911  1
  Zn  Zn129  1  0.68608557  0.93797836  0.43683590  1
  Zn  Zn130  1  0.68558693  0.94085915  0.93551982  1
  Zn  Zn131  1  0.31185724  0.06555390  0.06190511  1
  Zn  Zn132  1  0.31837675  0.05755591  0.56649867  1
  Zn  Zn133  1  0.31311144  0.56786112  0.06535302  1
  Zn  Zn134  1  0.31120152  0.55899071  0.56527291  1
  Zn  Zn135  1  0.81163714  0.06823843  0.06349384  1
  Zn  Zn136  1  0.81327927  0.06774856  0.55335992  1
  Zn  Zn137  1  0.81325960  0.56647280  0.05956045  1
  Zn  Zn138  1  0.81201933  0.55836051  0.56037697  1
  Zn  Zn139  1  0.44085197  0.43332803  0.17439794  1
  Zn  Zn140  1  0.43413925  0.43887380  0.68929744  1
  Zn  Zn141  1  0.43726867  0.93931181  0.18779098  1
  Zn  Zn142  1  0.43438705  0.94015835  0.68456526  1
  Zn  Zn143  1  0.93467197  0.43286979  0.18968578  1
  Zn  Zn144  1  0.93750531  0.43588059  0.68869257  1
  Zn  Zn145  1  0.93502907  0.93549304  0.19131429  1
  Zn  Zn146  1  0.93422712  0.93870534  0.69030680  1
  Zn  Zn147  1  0.06359042  0.05838639  0.31594215  1
  Zn  Zn148  1  0.06010182  0.06358617  0.81708822  1
  Zn  Zn149  1  0.06406928  0.56274462  0.31120915  1
  Zn  Zn150  1  0.06162128  0.56374592  0.81215797  1
  Zn  Zn151  1  0.56494932  0.06896542  0.31977718  1
  Zn  Zn152  1  0.56352392  0.06643613  0.80796222  1
  Zn  Zn153  1  0.58334130  0.52727729  0.31977701  1
  Zn  Zn154  1  0.56288377  0.56473865  0.81643781  1
  Zn  Zn155  1  0.43962637  0.18766980  0.43950659  1
  Zn  Zn156  1  0.44311322  0.18957768  0.93527626  1
  Zn  Zn157  1  0.43700674  0.68917235  0.43658386  1
  Zn  Zn158  1  0.43586675  0.69051461  0.93706169  1
  Zn  Zn159  1  0.94018317  0.18499535  0.43787489  1
  Zn  Zn160  1  0.94156491  0.18187016  0.93395443  1
  Zn  Zn161  1  0.93505652  0.68673452  0.43846560  1
  Zn  Zn162  1  0.93445149  0.68337257  0.93790135  1
  Zn  Zn163  1  0.06371423  0.31089964  0.06163625  1
  Zn  Zn164  1  0.06051027  0.30848371  0.55898364  1
  Zn  Zn165  1  0.06114849  0.81589008  0.06279923  1
  Zn  Zn166  1  0.06139345  0.81478214  0.56270521  1
  Zn  Zn167  1  0.56839409  0.30241235  0.06944853  1
  Zn  Zn168  1  0.56030141  0.31346634  0.56580213  1
  Zn  Zn169  1  0.56244884  0.81569279  0.06237633  1
  Zn  Zn170  1  0.56075961  0.80798655  0.55933587  1
  O  O171  1  0.12767358  0.12488711  0.11300102  1
  O  O172  1  0.10700884  0.11596785  0.62530029  1
  O  O173  1  0.11940998  0.61897627  0.12007054  1
  O  O174  1  0.11426375  0.62022049  0.62153224  1
  O  O175  1  0.62538096  0.13345886  0.10862687  1
  O  O176  1  0.60319968  0.12217174  0.63335047  1
  O  O177  1  0.61734482  0.63891998  0.11267598  1
  O  O178  1  0.61753010  0.62053448  0.61915718  1
  O  O179  1  0.38077783  0.37879059  0.38623903  1
  O  O180  1  0.37775581  0.39334117  0.88244190  1
  O  O181  1  0.38617628  0.87702357  0.38124523  1
  O  O182  1  0.38618777  0.88076479  0.88497334  1
  O  O183  1  0.89137798  0.37506109  0.37368202  1
  O  O184  1  0.88750641  0.38615113  0.86938557  1
  O  O185  1  0.88496589  0.87594849  0.36938955  1
  O  O186  1  0.88363690  0.88324926  0.86916859  1
  O  O187  1  0.25097166  0.01089239  0.36671864  1
  O  O188  1  0.26277527  -0.01015490  0.86806543  1
  O  O189  1  0.24839001  0.51073494  0.36660513  1
  O  O190  1  0.25235246  0.50919394  0.87090469  1
  O  O191  1  0.76599939  -0.00926066  0.37444069  1
  O  O192  1  0.76110285  -0.00095603  0.86924848  1
  O  O193  1  0.75194289  0.51063645  0.37248608  1
  O  O194  1  0.75802079  0.49899744  0.87023363  1
  O  O195  1  0.24697628  0.49225584  0.12797065  1
  O  O196  1  0.23824429  0.50683908  0.63785177  1
  O  O197  1  0.24808300  1.00347389  0.13836852  1
  O  O198  1  0.25325370  0.98578738  0.63803924  1
  O  O199  1  0.75923547  0.48564426  0.11823325  1
  O  O200  1  0.74138397  0.50462925  0.63530977  1
  O  O201  1  0.75846386  0.98536040  0.12407459  1
  O  O202  1  0.76129328  1.00328219  0.63404661  1
  O  O203  1  0.01017688  0.36753916  0.25661063  1
  O  O204  1  -0.00100061  0.36265624  0.75626444  1
  O  O205  1  0.00799289  0.86815604  0.25854292  1
  O  O206  1  0.00537309  0.87201533  0.75824624  1
  O  O207  1  0.49403073  0.35781717  0.24955355  1
  O  O208  1  0.50429706  0.36351168  0.74482757  1
  O  O209  1  0.50149486  0.86954069  0.25684139  1
  O  O210  1  0.50361540  0.87347784  0.75639842  1
  O  O211  1  0.48927032  0.13230095  0.25444907  1
  O  O212  1  0.49598717  0.13794323  0.74389778  1
  O  O213  1  0.49274557  0.64151691  0.24933576  1
  O  O214  1  0.49247303  0.63077260  0.74699518  1
  O  O215  1  1.00403738  0.13537513  0.25164153  1
  O  O216  1  0.99026069  0.13062186  0.74617422  1
  O  O217  1  1.00304249  0.63329252  0.24177957  1
  O  O218  1  0.99875865  0.63275300  0.74144721  1
  O  O219  1  0.36912378  0.24241733  0.00635248  1
  O  O220  1  0.37460378  0.26337426  0.49959849  1
  O  O221  1  0.36520639  0.76072232  -0.00001063  1
  O  O222  1  0.38038234  0.76597998  0.50122967  1
  O  O223  1  0.88693736  0.24840509  0.00877555  1
  O  O224  1  0.88495564  0.25103991  0.51541182  1
  O  O225  1  0.86545502  0.74793571  0.00610144  1
  O  O226  1  0.86090149  0.74532509  0.50649696  1
  O  O227  1  0.12561519  0.24519457  0.48665524  1
  O  O228  1  0.13042669  0.24246755  0.99386284  1
  O  O229  1  0.12033845  0.74539033  0.48873717  1
  O  O230  1  0.12966758  0.74804844  0.99483680  1
  O  O231  1  0.62534588  0.25610178  0.49487522  1
  O  O232  1  0.61257302  0.23616309  0.98911378  1
  O  O233  1  0.63224398  0.73620789  0.49900158  1
  O  O234  1  0.63082504  0.74772448  0.99269483  1
  O  O235  1  0.48633073  0.24639412  0.13337421  1
  O  O236  1  0.49943040  0.24223109  0.63638735  1
  O  O237  1  0.49540959  0.74906901  0.13436896  1
  O  O238  1  0.49514589  0.74280877  0.63216201  1
  O  O239  1  0.99229232  0.25733928  0.13326787  1
  O  O240  1  0.99551834  0.24204374  0.63289837  1
  O  O241  1  0.99340787  0.74704212  0.12790891  1
  O  O242  1  0.99276734  0.74356095  0.62802510  1
  O  O243  1  0.00811569  0.25458221  0.36774695  1
  O  O244  1  0.00539897  0.25605129  0.86744633  1
  O  O245  1  0.00508811  0.75501165  0.37159445  1
  O  O246  1  0.00079943  0.75729991  0.87211724  1
  O  O247  1  0.49728661  0.24933078  0.35949476  1
  O  O248  1  0.50971153  0.24863466  0.86020924  1
  O  O249  1  0.50249890  0.75883482  0.36917549  1
  O  O250  1  0.50396245  0.76033735  0.86942017  1
  O  O251  1  0.25096414  0.12292361  0.49415112  1
  O  O252  1  0.24204480  0.13634692  1.00028840  1
  O  O253  1  0.24455577  0.62000508  0.48974519  1
  O  O254  1  0.24342066  0.63427814  0.99622209  1
  O  O255  1  0.74979082  0.14107210  0.49797915  1
  O  O256  1  0.73278091  0.11882973  0.99534478  1
  O  O257  1  0.74179808  0.62680096  0.49349887  1
  O  O258  1  0.74211260  0.63859462  0.99928925  1
  O  O259  1  0.24355293  0.36041127  0.00816892  1
  O  O260  1  0.26187847  0.37272687  0.49699852  1
  O  O261  1  0.25811282  0.86884490  -0.00631916  1
  O  O262  1  0.25637002  0.88227111  0.50839360  1
  O  O263  1  0.75430918  0.37489771  0.00768625  1
  O  O264  1  0.75837746  0.39150688  0.51053416  1
  O  O265  1  0.74184808  0.86529160  0.00603996  1
  O  O266  1  0.74125369  0.85484951  0.49621650  1
  O  O267  1  0.13137917  0.49416755  0.24180701  1
  O  O268  1  0.13411560  0.50637370  0.74352708  1
  O  O269  1  0.13217405  0.99198965  0.24905803  1
  O  O270  1  0.13131928  0.99031206  0.76147770  1
  O  O271  1  0.62808586  0.49540067  0.21617701  1
  O  O272  1  0.62877229  0.49513979  0.74929562  1
  O  O273  1  0.62006357  0.98782771  0.25563883  1
  O  O274  1  0.63562950  0.99222430  0.75398512  1
  O  O275  1  0.37045577  0.00622756  0.25328575  1
  O  O276  1  0.36735282  -0.00426877  0.76079380  1
  O  O277  1  0.37196272  0.51160300  0.24887853  1
  O  O278  1  0.36855754  0.50946084  0.75898089  1
  O  O279  1  0.87963313  0.00168589  0.26533641  1
  O  O280  1  0.86958249  0.00801347  0.75764941  1
  O  O281  1  0.87592828  0.50705345  0.25135603  1
  O  O282  1  0.86616682  0.50076081  0.75480761  1
  O  O283  1  0.11963780  0.36727267  0.37145910  1
  O  O284  1  0.11339367  0.36388942  0.87801520  1
  O  O285  1  0.11804392  0.86756061  0.36759589  1
  O  O286  1  0.11606948  0.86973964  0.86713510  1
  O  O287  1  0.61013178  0.41022130  0.35625134  1
  O  O288  1  0.62497699  0.37177024  0.86486553  1
  O  O289  1  0.61356622  0.87195755  0.36987367  1
  O  O290  1  0.61311691  0.87283336  0.87015525  1
  O  O291  1  0.36853350  0.13351853  0.13549271  1
  O  O292  1  0.39279337  0.11607322  0.63202511  1
  O  O293  1  0.37917996  0.63467746  0.13488990  1
  O  O294  1  0.37710205  0.62649595  0.63696036  1
  O  O295  1  0.87952006  0.13917821  0.12235189  1
  O  O296  1  0.88254831  0.13516270  0.63131863  1
  O  O297  1  0.88208798  0.63741169  0.12364925  1
  O  O298  1  0.88647235  0.62863282  0.62429364  1
  O  O299  1  0.25752173  0.25469981  0.11776690  1
  O  O300  1  0.23335035  0.24827887  0.62841392  1
  O  O301  1  0.24757570  0.74769189  0.11218979  1
  O  O302  1  0.24843226  0.76625518  0.63118112  1
  O  O303  1  0.77105724  0.25932147  0.12244281  1
  O  O304  1  0.76619239  0.25013143  0.63457631  1
  O  O305  1  0.75764257  0.75770406  0.11782803  1
  O  O306  1  0.75707150  0.74109078  0.61159644  1
  O  O307  1  0.24416628  0.23764135  0.37386606  1
  O  O308  1  0.24215349  0.25511774  0.88279086  1
  O  O309  1  0.23986895  0.73984970  0.37108716  1
  O  O310  1  0.24416627  0.74512361  0.88401865  1
  O  O311  1  0.74192119  0.26296596  0.37801776  1
  O  O312  1  0.73556318  0.25084249  0.86731799  1
  O  O313  1  0.74817357  0.73863676  0.38509998  1
  O  O314  1  0.74542434  0.75049187  0.88167590  1
  O  O315  1  0.01030879  0.11288180  -0.00476120  1
  O  O316  1  0.00162438  0.11588805  0.50816073  1
  O  O317  1  0.00671935  0.61592318  0.00448352  1
  O  O318  1  0.00687395  0.61892480  0.50589590  1
  O  O319  1  0.50752010  0.11253997  -0.00413611  1
  O  O320  1  0.49527491  0.11417166  0.51091987  1
  O  O321  1  0.50778497  0.63761004  0.00966118  1
  O  O322  1  0.50477256  0.62325152  0.50736204  1
  O  O323  1  0.49194573  0.38488209  0.50071240  1
  O  O324  1  0.51812168  0.40464785  1.07917997  1
  O  O325  1  0.49674023  0.88282563  0.49553815  1
  O  O326  1  0.49663080  0.88719699  0.99266426  1
  O  O327  1  1.00040342  0.38161724  0.49045769  1
  O  O328  1  1.00619177  0.38632213  0.99227055  1
  O  O329  1  1.00127846  0.87992968  0.49002732  1
  O  O330  1  1.00555530  0.88312764  0.98718515  1
  O  O331  1  0.49241334  0.51231228  0.39195270  1
  O  O332  1  0.48899295  0.50599105  0.87820963  1
  O  O333  1  0.49919513  0.99495575  0.38726282  1
  O  O334  1  0.49320851  0.99531046  0.87863092  1
  O  O335  1  1.00577334  0.49109724  0.38250431  1
  O  O336  1  0.99747159  0.49230862  0.87966905  1
  O  O337  1  0.99160972  0.99077966  0.38025356  1
  O  O338  1  0.98965913  0.99325079  0.88127034  1
  O  O339  1  -0.00005548  -0.00983145  0.11183138  1
  O  O340  1  -0.01305445  0.00594689  0.61467661  1
  O  O341  1  0.00469031  0.50153271  0.11691596  1
  O  O342  1  0.00392536  0.50756183  0.62101007  1
  O  O343  1  0.49882011  -0.00136973  0.10971744  1
  O  O344  1  0.50039575  0.00400382  0.61449403  1
  O  O345  1  0.49998028  0.53045438  0.14067218  1
  O  O346  1  0.50234574  0.50843390  0.61848351  1
  O  O347  1  0.24660679  0.37920668  0.24474194  1
  O  O348  1  0.25282543  0.39075699  0.75944544  1
  O  O349  1  0.24254617  0.88505904  0.25935054  1
  O  O350  1  0.24046527  0.88011236  0.74764451  1
  O  O351  1  0.75840595  0.37828590  0.23494083  1
  O  O352  1  0.74143060  0.38643753  0.74630055  1
  O  O353  1  0.73954893  0.87660591  0.24271634  1
  O  O354  1  0.73902289  0.88418175  0.75066818  1
  O  O355  1  0.25969897  0.11791823  0.25731304  1
  O  O356  1  0.25153033  0.10589927  0.75347247  1
  O  O357  1  0.25780764  0.62144932  0.25562540  1
  O  O358  1  0.25633737  0.62073632  0.75690512  1
  O  O359  1  0.75627446  0.11808896  0.24165310  1
  O  O360  1  0.75955026  0.11892009  0.75059353  1
  O  O361  1  0.74843115  0.62440995  0.25798814  1
  O  O362  1  0.74744524  0.61349367  0.75522527  1
  O  O363  1  0.36896444  0.12417856  0.36887071  1
  O  O364  1  0.37912339  0.11399011  0.87163276  1
  O  O365  1  0.36608800  0.62603408  0.36759934  1
  O  O366  1  0.36995923  0.62167761  0.86740128  1
  O  O367  1  0.87883295  0.11338893  0.37158237  1
  O  O368  1  0.87230871  0.11826429  0.86593951  1
  O  O369  1  0.86616892  0.62307191  0.37312424  1
  O  O370  1  0.87521391  0.60997283  0.87073046  1
  O  O371  1  0.13569566  0.37770131  0.12961542  1
  O  O372  1  0.11413206  0.39042009  0.62406475  1
  O  O373  1  0.12278797  0.87356713  0.14119122  1
  O  O374  1  0.12754221  0.87269973  0.63830048  1
  O  O375  1  0.65141631  0.36810133  0.12413552  1
  O  O376  1  0.62270423  0.38313606  0.63853914  1
  O  O377  1  0.63427526  0.87059839  0.13355062  1
  O  O378  1  0.61848565  0.86927722  0.63704847  1
  O  O379  1  0.12270742  0.25288008  0.25838556  1
  O  O380  1  0.11877845  0.24786835  0.75665207  1
  O  O381  1  0.12024228  0.75508413  0.26020759  1
  O  O382  1  0.11635315  0.75709768  0.75697636  1
  O  O383  1  0.60874370  0.25024072  0.23843352  1
  O  O384  1  0.61714487  0.25824112  0.75409358  1
  O  O385  1  0.61519176  0.76084666  0.25306020  1
  O  O386  1  0.62007789  0.75682926  0.75696887  1
  O  O387  1  0.38024073  0.24193910  0.24302817  1
  O  O388  1  0.38601269  0.25149142  0.75783409  1
  O  O389  1  0.37951992  0.74450434  0.25042431  1
  O  O390  1  0.37915721  0.74191913  0.75272392  1
  O  O391  1  0.88922647  0.24659559  0.24216857  1
  O  O392  1  0.88283630  0.24331010  0.74573709  1
  O  O393  1  0.88165687  0.74740260  0.24151939  1
  O  O394  1  0.87842166  0.74625536  0.74205849  1
  O  O395  1  0.37927441  0.49352389  0.49965180  1
  O  O396  1  0.37348096  0.51055076  0.98952113  1
  O  O397  1  0.38507658  0.98698658  0.49893741  1
  O  O398  1  0.38280596  0.99805686  0.99433574  1
  O  O399  1  0.89168199  0.50077259  0.49742370  1
  O  O400  1  0.88708110  0.50573662  0.99087641  1
  O  O401  1  0.88454645  1.00258875  0.48479014  1
  O  O402  1  0.88199948  1.00709584  0.99062097  1
  O  O403  1  0.11856674  0.00739503  0.00172940  1
  O  O404  1  0.10747658  0.00013631  0.49231138  1
  O  O405  1  0.11990817  0.50442866  0.00463443  1
  O  O406  1  0.11685563  0.50592328  0.50763345  1
  O  O407  1  0.61257714  0.01109886  -0.00526342  1
  O  O408  1  0.61131805  -0.00483985  0.50121665  1
  O  O409  1  0.62963100  0.51099376  0.01467837  1
  O  O410  1  0.61513707  0.50970364  0.50689542  1
  O  O411  1  0.36062571  0.36398975  0.12832644  1
  O  O412  1  0.37435496  0.38155066  0.61001138  1
  O  O413  1  0.37811128  0.87656223  0.10969321  1
  O  O414  1  0.36538485  0.87204776  0.61860066  1
  O  O415  1  0.87382449  0.36451816  0.11995764  1
  O  O416  1  0.87884499  0.35812695  0.62702775  1
  O  O417  1  0.86799207  0.86248918  0.12926815  1
  O  O418  1  0.87787467  0.86082055  0.62814599  1
  O  O419  1  0.13375077  0.13071545  0.37589419  1
  O  O420  1  0.12012643  0.13839822  0.88388194  1
  O  O421  1  0.13126781  0.63287882  0.37926665  1
  O  O422  1  0.12871231  0.63204881  0.88133197  1
  O  O423  1  0.63287482  0.13249707  0.38097766  1
  O  O424  1  0.62659883  0.13333730  0.87931198  1
  O  O425  1  0.63128066  0.62046410  0.38218591  1
  O  O426  1  0.62554951  0.63190115  0.88832609  1
