# generated using pymatgen
data_V85Zn86O256
_symmetry_space_group_name_H-M   'P 1'
_cell_length_a   16.95677111
_cell_length_b   16.95081501
_cell_length_c   16.93285845
_cell_angle_alpha   89.98879126
_cell_angle_beta   89.95320097
_cell_angle_gamma   90.05339078
_symmetry_Int_Tables_number   1
_chemical_formula_structural   V85Zn86O256
_chemical_formula_sum   'V85 Zn86 O256'
_cell_volume   4867.02613556
_cell_formula_units_Z   1
loop_
 _symmetry_equiv_pos_site_id
 _symmetry_equiv_pos_as_xyz
  1  'x, y, z'
loop_
 _atom_site_type_symbol
 _atom_site_label
 _atom_site_symmetry_multiplicity
 _atom_site_fract_x
 _atom_site_fract_y
 _atom_site_fract_z
 _atom_site_occupancy
  V  V0  1  0.49910267  0.12681787  0.62548192  1
  V  V1  1  0.00808563  0.62663726  0.63146757  1
  V  V2  1  0.00180249  0.36655954  0.87557274  1
  V  V3  1  0.74872952  0.61887654  0.86540848  1
  V  V4  1  0.86239051  0.88956908  0.48919049  1
  V  V5  1  0.62213288  0.12655937  0.00599237  1
  V  V6  1  0.87292802  0.24511763  0.12716047  1
  V  V7  1  0.62382146  0.12757191  0.50029734  1
  V  V8  1  0.12927974  -0.00900974  0.62354033  1
  V  V9  1  0.74763089  0.87284671  0.62799742  1
  V  V10  1  0.74371646  0.25471560  0.00729327  1
  V  V11  1  0.49913124  -0.00561202  0.49891030  1
  V  V12  1  0.63157975  0.37415913  0.24445208  1
  V  V13  1  0.37080601  -0.00159401  0.87793282  1
  V  V14  1  0.63895095  0.49236703  0.63120434  1
  V  V15  1  0.50616445  0.74427527  0.23389199  1
  V  V16  1  0.24057777  0.63041055  0.89090349  1
  V  V17  1  0.25041563  0.12578793  0.37288254  1
  V  V18  1  0.37185332  0.75576163  0.62330559  1
  V  V19  1  0.88497408  0.24967737  0.62804896  1
  V  V20  1  -0.00602467  -0.00254459  0.00434667  1
  V  V21  1  0.12494357  0.38640596  0.24886914  1
  V  V22  1  0.26634019  0.62560740  0.37223802  1
  V  V23  1  0.74803141  -0.00026534  0.75514522  1
  V  V24  1  0.74927372  0.62509069  0.37146821  1
  V  V25  1  0.24694761  0.38159800  0.62377151  1
  V  V26  1  -0.00015899  0.37843304  0.37441806  1
  V  V27  1  0.00126670  0.24844476  0.24240210  1
  V  V28  1  0.37196682  0.50198223  0.87645928  1
  V  V29  1  0.75012480  0.25553659  0.50193783  1
  V  V30  1  0.37122317  0.12515922  0.75169372  1
  V  V31  1  0.37298522  0.12200053  0.24858689  1
  V  V32  1  0.27096987  0.50145154  0.25599135  1
  V  V33  1  0.36512837  0.73530136  0.12849183  1
  V  V34  1  0.36423583  0.86838472  0.00592665  1
  V  V35  1  0.62178313  0.87456905  0.75473746  1
  V  V36  1  0.49960179  0.37246354  0.87281084  1
  V  V37  1  0.74751139  0.74610708  0.49975803  1
  V  V38  1  0.12576293  0.62449386  0.49172713  1
  V  V39  1  0.24953505  0.75376697  0.49787623  1
  V  V40  1  0.62496702  0.75892121  0.36719406  1
  V  V41  1  0.49449759  0.87276803  0.87710725  1
  V  V42  1  0.12094729  0.36478218  0.74652321  1
  V  V43  1  0.72561700  -0.00434977  0.24909071  1
  V  V44  1  0.00569381  0.50205630  0.50351582  1
  V  V45  1  0.49684125  0.74614385  0.74958307  1
  V  V46  1  0.23986169  0.50187404  0.74980107  1
  V  V47  1  0.87334179  0.50136764  0.37511219  1
  V  V48  1  0.67029016  0.30480264  0.82100164  1
  V  V49  1  0.12658732  0.25195725  0.37086736  1
  V  V50  1  0.49917357  0.61292335  0.61681685  1
  V  V51  1  0.88007082  0.75023923  0.62922096  1
  V  V52  1  0.37326313  0.37264674  0.00266263  1
  V  V53  1  0.62612654  0.25369209  0.37586510  1
  V  V54  1  0.87132425  -0.01024144  0.88050562  1
  V  V55  1  0.12061640  0.13229918  0.50154550  1
  V  V56  1  0.62228015  0.74591314  0.87596840  1
  V  V57  1  0.00761554  0.50623647  0.00272961  1
  V  V58  1  0.49848594  0.25144705  0.25068932  1
  V  V59  1  0.24697250  -0.01278088  0.24933264  1
  V  V60  1  0.37597265  0.25321224  0.62383590  1
  V  V61  1  0.24967293  -0.01307310  0.74473713  1
  V  V62  1  0.49743411  0.00021075  0.01041737  1
  V  V63  1  0.74271022  0.12304569  0.87622813  1
  V  V64  1  0.49979089  0.39205657  0.37717517  1
  V  V65  1  0.62260546  -0.00103246  0.62749467  1
  V  V66  1  0.75453217  0.49951400  0.23953605  1
  V  V67  1  0.38048545  0.39063917  0.49663569  1
  V  V68  1  0.62537986  0.62740917  0.00518652  1
  V  V69  1  0.76511240  0.75442072  -0.00212533  1
  V  V70  1  0.88505484  0.12265947  0.75239449  1
  V  V71  1  0.24541555  0.24618977  -0.00056181  1
  V  V72  1  0.11761708  0.75490356  0.88129666  1
  V  V73  1  0.50026792  0.25069671  0.75425227  1
  V  V74  1  0.62743149  0.50006063  0.12455736  1
  V  V75  1  0.49976396  0.50448237  0.00454215  1
  V  V76  1  0.87900493  0.11221848  0.25495528  1
  V  V77  1  0.87368866  0.37786160  0.00948704  1
  V  V78  1  0.87449398  0.49806993  0.86724286  1
  V  V79  1  0.25430718  0.25422350  0.49844811  1
  V  V80  1  0.87335908  0.37647334  0.50308815  1
  V  V81  1  0.03300177  -0.03792909  0.48050122  1
  V  V82  1  0.37174990  0.62376694  0.75115753  1
  V  V83  1  0.11629241  -0.00113399  0.13117189  1
  V  V84  1  0.01298857  0.76640302  0.26637961  1
  Zn  Zn85  1  0.11320819  0.85682007  0.73615000  1
  Zn  Zn86  1  0.37379573  0.24799448  0.12489350  1
  Zn  Zn87  1  0.00749178  0.63896926  0.12860717  1
  Zn  Zn88  1  0.11770711  0.24145690  0.87282164  1
  Zn  Zn89  1  0.75206587  0.37449079  0.64834783  1
  Zn  Zn90  1  -0.00348207  0.87336195  0.86670507  1
  Zn  Zn91  1  0.75583171  0.12100739  0.37813080  1
  Zn  Zn92  1  0.50454048  0.12161204  0.13118213  1
  Zn  Zn93  1  0.50115060  0.87530509  0.36221411  1
  Zn  Zn94  1  0.88446377  0.75875826  0.12749306  1
  Zn  Zn95  1  0.87513835  0.62243436  0.74571214  1
  Zn  Zn96  1  0.13152405  0.50746471  0.12029400  1
  Zn  Zn97  1  0.11611217  0.12539295  0.00112737  1
  Zn  Zn98  1  0.00063930  0.11902041  0.62103324  1
  Zn  Zn99  1  0.24246697  0.86559071  0.12772992  1
  Zn  Zn100  1  0.87995219  0.63425096  0.24476577  1
  Zn  Zn101  1  0.24303302  0.12211370  0.87656125  1
  Zn  Zn102  1  0.62080736  0.61651848  0.49624264  1
  Zn  Zn103  1  0.37652352  0.87407861  0.49791069  1
  Zn  Zn104  1  0.37632797  -0.00478230  0.37414855  1
  Zn  Zn105  1  0.24876642  0.37485220  0.12649749  1
  Zn  Zn106  1  0.74730571  0.88371013  0.12668632  1
  Zn  Zn107  1  0.18617932  0.18437659  0.18232749  1
  Zn  Zn108  1  0.18931489  0.18612081  0.68546339  1
  Zn  Zn109  1  0.17623105  0.68565901  0.19320940  1
  Zn  Zn110  1  0.18511483  0.68660596  0.68546614  1
  Zn  Zn111  1  0.69251533  0.18234208  0.18846021  1
  Zn  Zn112  1  0.69426433  0.18424746  0.68223264  1
  Zn  Zn113  1  0.69124788  0.68898502  0.18429309  1
  Zn  Zn114  1  0.68337648  0.68397211  0.68633754  1
  Zn  Zn115  1  0.31584620  0.31663265  0.31374498  1
  Zn  Zn116  1  0.30989548  0.31208582  0.81492856  1
  Zn  Zn117  1  0.32205750  0.80743692  0.31241022  1
  Zn  Zn118  1  0.30539053  0.80800295  0.81374416  1
  Zn  Zn119  1  0.81268960  0.31252852  0.31328546  1
  Zn  Zn120  1  0.83563363  0.30385610  0.81973609  1
  Zn  Zn121  1  0.81288154  0.81784605  0.30374732  1
  Zn  Zn122  1  0.80937097  0.80819575  0.81225848  1
  Zn  Zn123  1  0.18861604  0.44219494  0.43500877  1
  Zn  Zn124  1  0.18710626  0.43327792  0.93352643  1
  Zn  Zn125  1  0.19820840  0.93659965  0.43643903  1
  Zn  Zn126  1  0.18021130  0.93620244  0.94024114  1
  Zn  Zn127  1  0.68345896  0.44157087  0.44040880  1
  Zn  Zn128  1  0.69251850  0.44179520  0.94278891  1
  Zn  Zn129  1  0.68859740  0.94072529  0.43424709  1
  Zn  Zn130  1  0.67056484  0.92394563  0.96751070  1
  Zn  Zn131  1  0.30779063  0.06179376  0.06683428  1
  Zn  Zn132  1  0.31134401  0.06350224  0.56138950  1
  Zn  Zn133  1  0.31048363  0.55857986  0.06792256  1
  Zn  Zn134  1  0.31102439  0.56632914  0.56360593  1
  Zn  Zn135  1  0.81428001  0.06241297  0.06781200  1
  Zn  Zn136  1  0.80710139  0.06662409  0.56787140  1
  Zn  Zn137  1  0.82077069  0.57218203  0.05934881  1
  Zn  Zn138  1  0.81308332  0.56325054  0.56347008  1
  Zn  Zn139  1  0.44277012  0.43543497  0.18480814  1
  Zn  Zn140  1  0.43471528  0.43826560  0.69018823  1
  Zn  Zn141  1  0.43677146  0.92933679  0.18985535  1
  Zn  Zn142  1  0.43678042  0.93673863  0.68783426  1
  Zn  Zn143  1  0.93774278  0.43856358  0.18603221  1
  Zn  Zn144  1  0.94221108  0.43750671  0.68627079  1
  Zn  Zn145  1  0.93470006  0.92166767  0.18537340  1
  Zn  Zn146  1  0.94048261  0.93813354  0.67775702  1
  Zn  Zn147  1  0.06020897  0.06091574  0.31170930  1
  Zn  Zn148  1  0.06273618  0.05369039  0.81455169  1
  Zn  Zn149  1  0.06194800  0.57365887  0.31257317  1
  Zn  Zn150  1  0.06353877  0.56016591  0.81567314  1
  Zn  Zn151  1  0.56171623  0.06634843  0.31775942  1
  Zn  Zn152  1  0.56021335  0.06353412  0.81947451  1
  Zn  Zn153  1  0.56482446  0.56877579  0.30704464  1
  Zn  Zn154  1  0.56141818  0.55912484  0.81176582  1
  Zn  Zn155  1  0.43817614  0.18981989  0.43468646  1
  Zn  Zn156  1  0.43548553  0.18769144  0.93742687  1
  Zn  Zn157  1  0.43998784  0.68927540  0.43406201  1
  Zn  Zn158  1  0.43320058  0.68623927  0.94287884  1
  Zn  Zn159  1  0.93763039  0.19117068  0.43201629  1
  Zn  Zn160  1  0.93463824  0.18110311  0.94219354  1
  Zn  Zn161  1  0.93418933  0.69209235  0.43575513  1
  Zn  Zn162  1  0.94182175  0.68343377  0.92949102  1
  Zn  Zn163  1  0.06411882  0.31646262  0.06374442  1
  Zn  Zn164  1  0.06420987  0.31508420  0.56194796  1
  Zn  Zn165  1  0.06047638  0.81689694  0.06054651  1
  Zn  Zn166  1  0.06123179  0.80762284  0.54552595  1
  Zn  Zn167  1  0.56210963  0.31284648  0.06416205  1
  Zn  Zn168  1  0.56317364  0.32054120  0.56466954  1
  Zn  Zn169  1  0.56520927  0.81666142  0.06720707  1
  Zn  Zn170  1  0.56321187  0.80695402  0.56311951  1
  O  O171  1  0.12887782  0.10573886  0.12123340  1
  O  O172  1  0.12347305  0.12108204  0.61671676  1
  O  O173  1  0.12003690  0.61796304  0.12614619  1
  O  O174  1  0.11616271  0.62554635  0.61293781  1
  O  O175  1  0.62367997  0.12873601  0.11055213  1
  O  O176  1  0.61867314  0.11997014  0.61992466  1
  O  O177  1  0.63115680  0.61816613  0.11118317  1
  O  O178  1  0.61202252  0.61800097  0.62340908  1
  O  O179  1  0.38726525  0.37317389  0.38461946  1
  O  O180  1  0.38009797  0.38076698  0.88477295  1
  O  O181  1  0.38370684  0.87677143  0.37939966  1
  O  O182  1  0.37644813  0.87869149  0.88049851  1
  O  O183  1  0.88101973  0.38069746  0.38192082  1
  O  O184  1  0.88274556  0.38096052  0.88696357  1
  O  O185  1  0.85926095  0.87726342  0.39146163  1
  O  O186  1  0.87199161  0.88827029  0.86607309  1
  O  O187  1  0.25108834  0.00811158  0.36720926  1
  O  O188  1  0.25898427  -0.00100790  0.86735585  1
  O  O189  1  0.25290490  0.50599586  0.36358438  1
  O  O190  1  0.25204374  0.50719229  0.86842844  1
  O  O191  1  0.74029966  0.00704762  0.35815451  1
  O  O192  1  0.75355308  0.00778633  0.87414228  1
  O  O193  1  0.75224103  0.50707903  0.36720264  1
  O  O194  1  0.76139203  0.50731580  0.88038655  1
  O  O195  1  0.25075605  0.49676778  0.14311679  1
  O  O196  1  0.25544212  0.48913899  0.63389812  1
  O  O197  1  0.24168134  0.99599315  0.13561831  1
  O  O198  1  0.24277738  1.00412508  0.63220049  1
  O  O199  1  0.75018058  0.50508593  0.13487653  1
  O  O200  1  0.74427286  0.49657244  0.63067486  1
  O  O201  1  0.75380930  1.00719558  0.14618297  1
  O  O202  1  0.74000740  0.99494242  0.63470253  1
  O  O203  1  0.00748869  0.37131752  0.25451433  1
  O  O204  1  0.01062053  0.37944780  0.75867872  1
  O  O205  1  0.00075238  0.86805990  0.25978399  1
  O  O206  1  0.00702238  0.89302765  0.75303376  1
  O  O207  1  0.50833815  0.36961824  0.25714777  1
  O  O208  1  0.49384443  0.37126080  0.76491546  1
  O  O209  1  0.50189185  0.85639128  0.24763044  1
  O  O210  1  0.50277140  0.86790218  0.75668906  1
  O  O211  1  0.49178294  0.13327999  0.25164422  1
  O  O212  1  0.48882767  0.12815046  0.74733295  1
  O  O213  1  0.50280151  0.64349025  0.25020412  1
  O  O214  1  0.49068233  0.62790765  0.74448207  1
  O  O215  1  0.99024027  0.13639875  0.25531876  1
  O  O216  1  0.98727486  0.11281840  0.74486814  1
  O  O217  1  0.99684553  0.63778071  0.25136192  1
  O  O218  1  1.00080786  0.61564844  0.73497923  1
  O  O219  1  0.36858076  0.25760438  0.00133197  1
  O  O220  1  0.36997487  0.25581992  0.50496515  1
  O  O221  1  0.37994591  0.75755492  0.01532048  1
  O  O222  1  0.37069129  0.74744463  0.50800354  1
  O  O223  1  0.86627246  0.25370441  0.00800839  1
  O  O224  1  0.86843746  0.25533747  0.50559797  1
  O  O225  1  0.86598586  0.74130702  -0.00618644  1
  O  O226  1  0.86020428  0.75589637  0.50776664  1
  O  O227  1  0.13564148  0.25023601  0.49396013  1
  O  O228  1  0.13130007  0.24799296  0.99930409  1
  O  O229  1  0.13899819  0.73687720  0.50210874  1
  O  O230  1  0.12487638  0.75492459  0.98200037  1
  O  O231  1  0.63207430  0.24914597  0.49914134  1
  O  O232  1  0.63533372  0.24619746  1.00305969  1
  O  O233  1  0.63540001  0.74557354  0.49391874  1
  O  O234  1  0.62675069  0.73984229  0.99080468  1
  O  O235  1  0.49899856  0.24982330  0.13977684  1
  O  O236  1  0.49598905  0.24747252  0.63315988  1
  O  O237  1  0.49786483  0.74934665  0.12889319  1
  O  O238  1  0.49468349  0.73852842  0.63178473  1
  O  O239  1  0.99377003  0.25567958  0.13648269  1
  O  O240  1  0.98770737  0.24942105  0.62010399  1
  O  O241  1  1.00316886  0.75794416  0.13716567  1
  O  O242  1  0.99104010  0.73966661  0.61400250  1
  O  O243  1  0.00596574  0.26024561  0.36385263  1
  O  O244  1  -0.00630643  0.26235389  0.87999799  1
  O  O245  1  -0.00066847  0.75134151  0.36781582  1
  O  O246  1  0.01216336  0.75088692  0.87065486  1
  O  O247  1  0.50736241  0.25624202  0.36456787  1
  O  O248  1  0.49763413  0.25866572  0.86841706  1
  O  O249  1  0.51146833  0.74906879  0.36782104  1
  O  O250  1  0.50142475  0.75146433  0.86918448  1
  O  O251  1  0.24434597  0.13469027  0.49339262  1
  O  O252  1  0.25053904  0.13415749  0.99797548  1
  O  O253  1  0.24596682  0.62586497  0.48967317  1
  O  O254  1  0.24918634  0.61433936  0.98798153  1
  O  O255  1  0.74314856  0.13814336  0.50077883  1
  O  O256  1  0.74311211  0.13202190  0.99443966  1
  O  O257  1  0.74810219  0.63160187  0.49260383  1
  O  O258  1  0.74286059  0.63064130  0.98804610  1
  O  O259  1  0.25834830  0.37006959  0.00076080  1
  O  O260  1  0.25642624  0.37385791  0.50594835  1
  O  O261  1  0.26256075  0.88055025  0.00030502  1
  O  O262  1  0.25672532  0.85771921  0.49519513  1
  O  O263  1  0.76004955  0.36522566  -0.00373923  1
  O  O264  1  0.75477062  0.36520468  0.49873158  1
  O  O265  1  0.75984241  0.85255933  -0.02348477  1
  O  O266  1  0.74956417  0.86843241  0.50773234  1
  O  O267  1  0.12503771  0.48990368  0.25628979  1
  O  O268  1  0.13622842  0.48830361  0.75559137  1
  O  O269  1  0.13058769  1.00357095  0.24133489  1
  O  O270  1  0.13664434  1.00416488  0.73755025  1
  O  O271  1  0.63329687  0.49490788  0.24305884  1
  O  O272  1  0.61889474  0.50452050  0.73045638  1
  O  O273  1  0.62698424  1.00890597  0.24397612  1
  O  O274  1  0.62724678  0.99558008  0.74886615  1
  O  O275  1  0.36706686  0.00662065  0.25035278  1
  O  O276  1  0.36952985  0.00579063  0.75503540  1
  O  O277  1  0.36902575  0.49471677  0.25049034  1
  O  O278  1  0.36444521  0.50333862  0.75837551  1
  O  O279  1  0.88617524  0.01390308  0.25025273  1
  O  O280  1  0.86369451  0.00676847  0.75378256  1
  O  O281  1  0.86847834  0.49873561  0.25734182  1
  O  O282  1  0.87854087  0.49621462  0.76366664  1
  O  O283  1  0.12060178  0.36982459  0.36907147  1
  O  O284  1  0.11699900  0.36838480  0.86656099  1
  O  O285  1  0.09498769  0.88894224  0.44143866  1
  O  O286  1  0.12713926  0.86301654  0.86924989  1
  O  O287  1  0.61965169  0.37120889  0.36748051  1
  O  O288  1  0.61751036  0.37579861  0.87952927  1
  O  O289  1  0.62336147  0.86090362  0.38092458  1
  O  O290  1  0.61415121  0.86651315  0.87374579  1
  O  O291  1  0.37619175  0.12691785  0.13862052  1
  O  O292  1  0.38018037  0.13231934  0.63174572  1
  O  O293  1  0.37650152  0.63721280  0.11745941  1
  O  O294  1  0.38538734  0.62848260  0.63073412  1
  O  O295  1  0.87412148  0.13825237  0.13812599  1
  O  O296  1  0.87732580  0.13100706  0.63244186  1
  O  O297  1  0.88572057  0.63505140  0.12538716  1
  O  O298  1  0.88292767  0.63278721  0.62512759  1
  O  O299  1  0.25208547  0.25393036  0.11432531  1
  O  O300  1  0.25661778  0.26148817  0.61980241  1
  O  O301  1  0.26163374  0.74769591  0.13624949  1
  O  O302  1  0.26284580  0.73617562  0.61229305  1
  O  O303  1  0.75849622  0.24878894  0.11796413  1
  O  O304  1  0.76039102  0.25393780  0.61798627  1
  O  O305  1  0.74826882  0.74949447  0.10377750  1
  O  O306  1  0.75107894  0.75278634  0.61725295  1
  O  O307  1  0.24560704  0.24688612  0.37810896  1
  O  O308  1  0.24878101  0.24876590  0.88812324  1
  O  O309  1  0.25905729  0.73370501  0.38063256  1
  O  O310  1  0.24846827  0.73402987  0.87984666  1
  O  O311  1  0.74318456  0.24966107  0.38406331  1
  O  O312  1  0.74544853  0.24551269  0.88102755  1
  O  O313  1  0.74457119  0.74333598  0.37898009  1
  O  O314  1  0.74276193  0.73783614  0.87932436  1
  O  O315  1  -0.00193067  0.10749809  -0.00043230  1
  O  O316  1  0.01703184  0.14160604  0.49882149  1
  O  O317  1  -0.00169986  0.60712343  -0.00545858  1
  O  O318  1  0.00737383  0.61942167  0.50171552  1
  O  O319  1  0.50448105  0.12130735  0.00275381  1
  O  O320  1  0.50430246  0.11889261  0.50567853  1
  O  O321  1  0.51101700  0.61371092  -0.00930798  1
  O  O322  1  0.50060285  0.62810289  0.51427159  1
  O  O323  1  0.49228051  0.37098309  0.48952863  1
  O  O324  1  0.49415231  0.37850035  0.99080350  1
  O  O325  1  0.50322480  0.88823963  0.50577610  1
  O  O326  1  0.48744384  0.88373050  0.99408311  1
  O  O327  1  0.99500493  0.38301993  0.49614783  1
  O  O328  1  0.99232495  0.38040298  0.99393688  1
  O  O329  1  0.96959751  0.87724735  0.50995641  1
  O  O330  1  1.00154140  0.89239597  0.98908552  1
  O  O331  1  0.51003935  0.49087399  0.37159568  1
  O  O332  1  0.49438305  0.49243526  0.88364730  1
  O  O333  1  0.50038610  0.99754017  0.38575144  1
  O  O334  1  0.48406832  0.99494885  0.87854851  1
  O  O335  1  0.99317669  0.49726429  0.38353613  1
  O  O336  1  0.99448048  0.49009196  0.88367479  1
  O  O337  1  1.00066085  1.01083613  0.40041221  1
  O  O338  1  0.98611070  1.00108505  0.88457932  1
  O  O339  1  0.00709166  -0.00572332  0.11817388  1
  O  O340  1  0.01149328  0.00028011  0.59587588  1
  O  O341  1  -0.00137176  0.49649949  0.10804532  1
  O  O342  1  -0.00808476  0.51000872  0.61051083  1
  O  O343  1  0.49213339  0.00105501  0.11335319  1
  O  O344  1  0.50429012  0.00731961  0.62140898  1
  O  O345  1  0.50733521  0.49519947  0.11103464  1
  O  O346  1  0.49966846  0.51105563  0.62805277  1
  O  O347  1  0.24458354  0.38696893  0.25336040  1
  O  O348  1  0.24563689  0.38053431  0.74296552  1
  O  O349  1  0.25386075  0.88523175  0.25466203  1
  O  O350  1  0.25075676  0.88559180  0.74783009  1
  O  O351  1  0.74084660  0.38502752  0.25621601  1
  O  O352  1  0.74326360  0.35678168  0.76614937  1
  O  O353  1  0.74090515  0.89122890  0.25008044  1
  O  O354  1  0.73992562  0.87945305  0.74800974  1
  O  O355  1  0.25650258  0.12071242  0.25525302  1
  O  O356  1  0.26249845  0.12015376  0.75019788  1
  O  O357  1  0.24975151  0.61256578  0.26377071  1
  O  O358  1  0.25487369  0.61442788  0.75270165  1
  O  O359  1  0.76287105  0.11806167  0.25375328  1
  O  O360  1  0.75429345  0.11851070  0.75782817  1
  O  O361  1  0.75342993  0.61741014  0.25578924  1
  O  O362  1  0.74978717  0.62693489  0.76162177  1
  O  O363  1  0.36934239  0.12397707  0.36466296  1
  O  O364  1  0.37282666  0.11556804  0.86739014  1
  O  O365  1  0.36477658  0.61887128  0.38091104  1
  O  O366  1  0.36383806  0.62022276  0.87162289  1
  O  O367  1  0.87276766  0.13294514  0.35952825  1
  O  O368  1  0.86261255  0.12106258  0.86778482  1
  O  O369  1  0.86169686  0.61868220  0.37719594  1
  O  O370  1  0.86836158  0.61565405  0.86837316  1
  O  O371  1  0.12813024  0.38244536  0.13569034  1
  O  O372  1  0.13533287  0.37277518  0.63179384  1
  O  O373  1  0.13056229  0.89357755  0.11733334  1
  O  O374  1  0.12190728  0.88713355  0.61762610  1
  O  O375  1  0.62237668  0.38120432  0.13737717  1
  O  O376  1  0.63184660  0.38643176  0.62814262  1
  O  O377  1  0.64433326  0.89152590  0.07789283  1
  O  O378  1  0.62803000  0.87836382  0.63374301  1
  O  O379  1  0.11917967  0.25733207  0.25105988  1
  O  O380  1  0.13120993  0.26096179  0.75171401  1
  O  O381  1  0.11441656  0.75450273  0.25895982  1
  O  O382  1  0.14107669  0.75044956  0.76611191  1
  O  O383  1  0.62226213  0.25685038  0.25364749  1
  O  O384  1  0.61920811  0.24473413  0.75078697  1
  O  O385  1  0.61925843  0.74712511  0.25362728  1
  O  O386  1  0.61752152  0.75303267  0.75692035  1
  O  O387  1  0.38301410  0.24465346  0.25031164  1
  O  O388  1  0.37846905  0.24286724  0.74631034  1
  O  O389  1  0.38805512  0.74888083  0.23422845  1
  O  O390  1  0.37579762  0.74267052  0.74316488  1
  O  O391  1  0.88229242  0.25076716  0.24310466  1
  O  O392  1  0.87341949  0.23543037  0.74022554  1
  O  O393  1  0.88335084  0.75198262  0.24974232  1
  O  O394  1  0.86845541  0.74806158  0.73317682  1
  O  O395  1  0.37400352  0.48901069  0.50565282  1
  O  O396  1  0.38178993  0.49339523  0.99685524  1
  O  O397  1  0.38533460  0.99973759  0.50049337  1
  O  O398  1  0.37812532  0.99655407  0.99317983  1
  O  O399  1  0.87896588  0.49395693  0.49385674  1
  O  O400  1  0.88151424  0.49180440  0.99247534  1
  O  O401  1  0.85755137  0.98958491  0.50151635  1
  O  O402  1  0.88054398  1.00508377  0.99265449  1
  O  O403  1  0.11300015  0.00338227  0.00701968  1
  O  O404  1  0.13282991  0.01588344  0.50643060  1
  O  O405  1  0.11044351  0.49011952  -0.00166754  1
  O  O406  1  0.11437562  0.50440982  0.49829460  1
  O  O407  1  0.60530142  0.01668774  -0.01787927  1
  O  O408  1  0.61912728  0.00715135  0.50689327  1
  O  O409  1  0.61930471  0.50520299  0.00515310  1
  O  O410  1  0.62758810  0.50212087  0.51999358  1
  O  O411  1  0.37586062  0.37296121  0.11230628  1
  O  O412  1  0.36990247  0.37008506  0.61898463  1
  O  O413  1  0.36865258  0.86564120  0.11859751  1
  O  O414  1  0.38136753  0.85910952  0.62347584  1
  O  O415  1  0.87855831  0.36522102  0.11492908  1
  O  O416  1  0.87125169  0.36807661  0.62306421  1
  O  O417  1  0.86039447  0.87109697  0.12124978  1
  O  O418  1  0.86191785  0.86972216  0.62098866  1
  O  O419  1  0.13152191  0.13279109  0.38034754  1
  O  O420  1  0.12586167  0.12571664  0.87760242  1
  O  O421  1  0.13906718  0.61658610  0.38762469  1
  O  O422  1  0.13541143  0.63139360  0.87269275  1
  O  O423  1  0.62465285  0.13683310  0.38574951  1
  O  O424  1  0.63637130  0.12752995  0.88062921  1
  O  O425  1  0.63666112  0.63117920  0.37645926  1
  O  O426  1  0.63094228  0.62516248  0.88119548  1
