# generated using pymatgen
data_V85Zn86O256
_symmetry_space_group_name_H-M   'P 1'
_cell_length_a   16.93375671
_cell_length_b   16.92758627
_cell_length_c   16.91897763
_cell_angle_alpha   89.99297170
_cell_angle_beta   90.01710848
_cell_angle_gamma   89.93312018
_symmetry_Int_Tables_number   1
_chemical_formula_structural   V85Zn86O256
_chemical_formula_sum   'V85 Zn86 O256'
_cell_volume   4849.78124149
_cell_formula_units_Z   1
loop_
 _symmetry_equiv_pos_site_id
 _symmetry_equiv_pos_as_xyz
  1  'x, y, z'
loop_
 _atom_site_type_symbol
 _atom_site_label
 _atom_site_symmetry_multiplicity
 _atom_site_fract_x
 _atom_site_fract_y
 _atom_site_fract_z
 _atom_site_occupancy
  V  V0  1  0.25243463  0.49452628  0.24612547  1
  V  V1  1  0.12131288  0.74414134  0.88068872  1
  V  V2  1  -0.00285895  0.87245947  0.36801928  1
  V  V3  1  0.00405281  0.62989345  0.12541308  1
  V  V4  1  0.12616315  0.13234041  0.49777987  1
  V  V5  1  0.61391927  0.00308009  0.12276477  1
  V  V6  1  0.37330019  0.12895570  0.74761317  1
  V  V7  1  0.37260737  0.00401039  0.37184369  1
  V  V8  1  0.50277991  0.24868849  0.25943562  1
  V  V9  1  0.25045994  0.75336405  0.50205531  1
  V  V10  1  0.12835872  0.37250594  0.24603822  1
  V  V11  1  0.87445307  0.37539985  0.49975528  1
  V  V12  1  0.13049579  0.50007309  0.11922987  1
  V  V13  1  0.74648855  0.87709001  0.12497750  1
  V  V14  1  0.87495802  0.75072100  0.12632305  1
  V  V15  1  0.25038164  0.37943369  0.62364101  1
  V  V16  1  0.37564182  -0.00544743  0.88870886  1
  V  V17  1  0.00123746  0.74205669  0.74081056  1
  V  V18  1  0.62561193  0.75003670  0.37532307  1
  V  V19  1  0.50144216  0.36714446  0.87770535  1
  V  V20  1  0.49726070  0.87275917  0.37694143  1
  V  V21  1  0.25452712  0.62570643  0.87099575  1
  V  V22  1  0.24718725  0.74502904  0.00163246  1
  V  V23  1  0.00123822  0.50678130  0.00021488  1
  V  V24  1  0.62424906  0.62064715  0.50213889  1
  V  V25  1  0.12932459  -0.00541420  0.62298882  1
  V  V26  1  0.62485205  0.86984942  0.75669422  1
  V  V27  1  0.62225411  0.49512837  0.62132966  1
  V  V28  1  0.61705559  0.12546086  -0.00527574  1
  V  V29  1  0.12396160  0.24877554  0.87538372  1
  V  V30  1  0.50120870  0.62671506  0.12164066  1
  V  V31  1  0.37257916  0.25174238  0.13505820  1
  V  V32  1  0.25200802  -0.00356754  0.74629746  1
  V  V33  1  0.63239126  0.12245339  0.48772985  1
  V  V34  1  0.37224876  0.87250959  0.50682509  1
  V  V35  1  0.25065048  0.88174469  0.11755481  1
  V  V36  1  0.37365941  0.62410498  0.24783207  1
  V  V37  1  0.74633459  0.63472408  0.87088926  1
  V  V38  1  0.87420767  0.87563470  0.50077985  1
  V  V39  1  0.37290123  0.74660489  0.62813156  1
  V  V40  1  0.49805549  0.24859837  0.75126741  1
  V  V41  1  0.24679520  0.00360356  0.24674918  1
  V  V42  1  0.87035150  0.12727994  0.25999588  1
  V  V43  1  0.00515943  0.50505697  0.51240434  1
  V  V44  1  0.75061901  0.62092793  0.37067013  1
  V  V45  1  0.87406610  0.88020728  -0.00283175  1
  V  V46  1  0.74676391  0.00603832  0.25400966  1
  V  V47  1  -0.00370857  0.12311497  0.62781844  1
  V  V48  1  0.38799101  0.37917860  0.50153255  1
  V  V49  1  0.62494674  0.36996370  0.75385983  1
  V  V50  1  0.12408822  0.62255274  0.51298149  1
  V  V51  1  0.87412433  0.24622074  0.12541299  1
  V  V52  1  0.24764252  0.12497323  0.87600074  1
  V  V53  1  0.49888130  0.74876854  0.75463452  1
  V  V54  1  0.24768151  0.62292048  0.37279506  1
  V  V55  1  0.87854653  0.50084052  0.36915233  1
  V  V56  1  0.12218676  0.87559992  0.24166652  1
  V  V57  1  0.00325266  0.24979848  0.25342039  1
  V  V58  1  0.67220396  0.03590782  0.67520592  1
  V  V59  1  0.74395565  0.24778453  -0.00847724  1
  V  V60  1  0.00975336  0.37741808  0.37556667  1
  V  V61  1  0.37712894  0.50244334  0.86371679  1
  V  V62  1  0.49881914  0.75154624  0.24950595  1
  V  V63  1  0.25043285  0.25964378  0.00440737  1
  V  V64  1  0.00087603  0.37517792  0.87706283  1
  V  V65  1  0.49492060  0.12578936  0.62394341  1
  V  V66  1  0.74915419  0.37851420  0.13544385  1
  V  V67  1  0.87316072  0.37532623  0.00068340  1
  V  V68  1  0.25728709  0.25013863  0.50743612  1
  V  V69  1  0.24789236  0.13243958  0.37096058  1
  V  V70  1  0.75236166  0.49675071  0.75157763  1
  V  V71  1  0.49713736  0.62070997  0.63044248  1
  V  V72  1  0.00219834  -0.00215068  0.49671532  1
  V  V73  1  0.74482470  0.87141961  0.62811353  1
  V  V74  1  0.49953257  0.49952080  -0.00065587  1
  V  V75  1  0.13040393  0.87146720  0.74895834  1
  V  V76  1  0.12589470  0.38332761  0.74555962  1
  V  V77  1  0.49833043  0.87445523  0.88734707  1
  V  V78  1  0.00784711  0.00163708  0.00455354  1
  V  V79  1  -0.00624401  0.24611960  0.75103513  1
  V  V80  1  0.50167752  -0.00099817  0.50488080  1
  V  V81  1  0.87602743  0.62673945  0.24781436  1
  V  V82  1  0.62834250  0.50184296  0.12937311  1
  V  V83  1  0.37570278  0.75674803  0.11890911  1
  V  V84  1  0.12301231  0.75063627  0.36709631  1
  Zn  Zn85  1  0.87558513  0.24955854  0.62378645  1
  Zn  Zn86  1  0.63254182  0.26011695  0.37788647  1
  Zn  Zn87  1  0.87859264  0.74093080  0.61852742  1
  Zn  Zn88  1  0.62383316  0.87858124  0.25165136  1
  Zn  Zn89  1  -0.00176195  0.87613150  0.87255346  1
  Zn  Zn90  1  0.00517165  0.11858720  0.13015542  1
  Zn  Zn91  1  0.76258522  0.23323978  0.49286010  1
  Zn  Zn92  1  0.61709467  0.38129043  0.25881936  1
  Zn  Zn93  1  0.88076258  0.61807293  0.74275568  1
  Zn  Zn94  1  0.37112246  0.37721625  0.00260098  1
  Zn  Zn95  1  0.62372917  0.63098424  -0.00736728  1
  Zn  Zn96  1  0.12520727  0.12308397  0.00641922  1
  Zn  Zn97  1  0.74704254  0.11907646  0.86567009  1
  Zn  Zn98  1  0.74534670  0.75340185  -0.00509250  1
  Zn  Zn99  1  0.39000611  0.48559600  0.37205045  1
  Zn  Zn100  1  0.49162594  0.12318835  0.12517283  1
  Zn  Zn101  1  0.24954036  0.50816501  0.74168001  1
  Zn  Zn102  1  0.87241768  0.00933971  0.86786711  1
  Zn  Zn103  1  0.75280653  0.37264938  0.62176462  1
  Zn  Zn104  1  0.86769810  0.00220252  0.37747052  1
  Zn  Zn105  1  0.87470897  0.50285560  0.87497558  1
  Zn  Zn106  1  0.75288448  0.74900116  0.49966378  1
  Zn  Zn107  1  0.18731937  0.18715730  0.18506584  1
  Zn  Zn108  1  0.18353520  0.18965502  0.68662261  1
  Zn  Zn109  1  0.18611518  0.68689826  0.18537087  1
  Zn  Zn110  1  0.19081875  0.68855242  0.68857419  1
  Zn  Zn111  1  0.68488017  0.18830743  0.18575650  1
  Zn  Zn112  1  0.68251878  0.20375471  0.67309398  1
  Zn  Zn113  1  0.68846938  0.68745738  0.18654998  1
  Zn  Zn114  1  0.68795123  0.68816271  0.68926013  1
  Zn  Zn115  1  0.31379488  0.31204188  0.31662634  1
  Zn  Zn116  1  0.31292648  0.31499778  0.81289748  1
  Zn  Zn117  1  0.31075662  0.81404113  0.31094173  1
  Zn  Zn118  1  0.31386011  0.81210068  0.81292125  1
  Zn  Zn119  1  0.81106555  0.31195255  0.31842614  1
  Zn  Zn120  1  0.81294849  0.31047523  0.81491715  1
  Zn  Zn121  1  0.81219032  0.81124985  0.30857183  1
  Zn  Zn122  1  0.81578069  0.81745600  0.80789129  1
  Zn  Zn123  1  0.19092413  0.43949534  0.43724355  1
  Zn  Zn124  1  0.18573301  0.44107178  0.93396070  1
  Zn  Zn125  1  0.18740424  0.93677242  0.43425720  1
  Zn  Zn126  1  0.18720083  0.93356985  0.93521752  1
  Zn  Zn127  1  0.68782379  0.43772343  0.43281689  1
  Zn  Zn128  1  0.68563668  0.43954854  0.93892237  1
  Zn  Zn129  1  0.68657484  0.93831409  0.43993625  1
  Zn  Zn130  1  0.68861321  0.94436868  0.93404897  1
  Zn  Zn131  1  0.30776084  0.07001581  0.06485642  1
  Zn  Zn132  1  0.31377481  0.06211421  0.56235101  1
  Zn  Zn133  1  0.31402871  0.56413878  0.05881151  1
  Zn  Zn134  1  0.31307235  0.56084583  0.56084922  1
  Zn  Zn135  1  0.81087652  0.06339928  0.06335029  1
  Zn  Zn136  1  0.83543392  0.07079312  0.70991683  1
  Zn  Zn137  1  0.81117686  0.56284044  0.05922089  1
  Zn  Zn138  1  0.81284639  0.56164694  0.56317880  1
  Zn  Zn139  1  0.43634936  0.43125065  0.18416721  1
  Zn  Zn140  1  0.43604558  0.43299053  0.68245709  1
  Zn  Zn141  1  0.43370106  0.93734990  0.18913711  1
  Zn  Zn142  1  0.43865284  0.93698159  0.69032728  1
  Zn  Zn143  1  0.93898313  0.43902987  0.18656566  1
  Zn  Zn144  1  0.93955466  0.43622727  0.68719225  1
  Zn  Zn145  1  0.93493150  0.93965966  0.18649130  1
  Zn  Zn146  1  0.94463844  0.92519731  0.68114605  1
  Zn  Zn147  1  0.06450049  0.06133517  0.31166306  1
  Zn  Zn148  1  0.05516840  0.05808385  0.81496038  1
  Zn  Zn149  1  0.06252963  0.56258830  0.30961873  1
  Zn  Zn150  1  0.06573130  0.56440124  0.81656349  1
  Zn  Zn151  1  0.55540863  0.06598954  0.30843095  1
  Zn  Zn152  1  0.55587880  0.06252658  0.82271036  1
  Zn  Zn153  1  0.56050667  0.55998342  0.31123765  1
  Zn  Zn154  1  0.56458520  0.55969685  0.80960802  1
  Zn  Zn155  1  0.43410354  0.18731096  0.43840804  1
  Zn  Zn156  1  0.43288210  0.18738393  0.93966658  1
  Zn  Zn157  1  0.44869540  0.65798429  0.42700705  1
  Zn  Zn158  1  0.43543237  0.68802345  0.93776111  1
  Zn  Zn159  1  0.94298692  0.18916593  0.43552588  1
  Zn  Zn160  1  0.92981220  0.17917241  0.93352049  1
  Zn  Zn161  1  0.94142980  0.68881570  0.43783780  1
  Zn  Zn162  1  0.93064136  0.68816996  0.93405918  1
  Zn  Zn163  1  0.06245593  0.31213085  0.06470162  1
  Zn  Zn164  1  0.06448362  0.31340443  0.56312175  1
  Zn  Zn165  1  0.06138480  0.81369513  0.06099542  1
  Zn  Zn166  1  0.06658584  0.81267803  0.55967246  1
  Zn  Zn167  1  0.56059702  0.31140145  0.06828878  1
  Zn  Zn168  1  0.56386953  0.30596845  0.56368443  1
  Zn  Zn169  1  0.56800388  0.81073179  0.06005958  1
  Zn  Zn170  1  0.56394823  0.81049775  0.56584265  1
  O  O171  1  0.11705686  0.13327375  0.11903098  1
  O  O172  1  0.12075115  0.11394620  0.61806889  1
  O  O173  1  0.11448016  0.61504071  0.13053035  1
  O  O174  1  0.13180858  0.62674054  0.61204537  1
  O  O175  1  0.62123329  0.11757250  0.11677387  1
  O  O176  1  0.61606150  0.11476611  0.61910688  1
  O  O177  1  0.61886874  0.61851888  0.12346067  1
  O  O178  1  0.62251453  0.61698200  0.61999871  1
  O  O179  1  0.37202467  0.37301237  0.39379970  1
  O  O180  1  0.38398265  0.38362666  0.87777621  1
  O  O181  1  0.37787223  0.88018647  0.38543975  1
  O  O182  1  0.37887055  0.88793242  0.87159306  1
  O  O183  1  0.88764366  0.38475852  0.37707057  1
  O  O184  1  0.88107416  0.37421433  0.88785583  1
  O  O185  1  0.88297562  0.87389258  0.37692728  1
  O  O186  1  0.87593662  0.86940867  0.89063411  1
  O  O187  1  0.25526795  0.00625824  0.36934856  1
  O  O188  1  0.25484083  0.00487108  0.86665285  1
  O  O189  1  0.25388445  0.50962940  0.36575388  1
  O  O190  1  0.25916442  0.50909240  0.87658650  1
  O  O191  1  0.74872646  -0.00851761  0.35829410  1
  O  O192  1  0.75649326  0.00367889  0.87033625  1
  O  O193  1  0.76182467  0.51424097  0.37851623  1
  O  O194  1  0.75044544  0.50224375  0.86336489  1
  O  O195  1  0.24132513  0.50613138  0.13077904  1
  O  O196  1  0.25187963  0.48713118  0.62566562  1
  O  O197  1  0.25527210  0.99323852  0.13292017  1
  O  O198  1  0.24487474  1.00535303  0.63815625  1
  O  O199  1  0.73976070  0.49216469  0.11667828  1
  O  O200  1  0.74189987  0.49570063  0.63620898  1
  O  O201  1  0.74190770  0.99446627  0.13358057  1
  O  O202  1  0.75259070  0.98719148  0.63068199  1
  O  O203  1  0.00758263  0.37186623  0.25559241  1
  O  O204  1  0.00858586  0.36837447  0.75585336  1
  O  O205  1  0.00886476  0.88160798  0.25534854  1
  O  O206  1  0.01663466  0.86267520  0.75142784  1
  O  O207  1  0.49931371  0.35666077  0.24359072  1
  O  O208  1  0.50432489  0.36898216  0.75570791  1
  O  O209  1  0.49981672  0.86792309  0.25829767  1
  O  O210  1  0.50519235  0.86709233  0.75554501  1
  O  O211  1  0.49772011  0.14049690  0.24337468  1
  O  O212  1  0.49170487  0.12628825  0.74627547  1
  O  O213  1  0.49408788  0.63488826  0.23884137  1
  O  O214  1  0.50595818  0.63367621  0.74056335  1
  O  O215  1  0.99521746  0.13432301  0.25129527  1
  O  O216  1  1.01296969  0.13475739  0.74008865  1
  O  O217  1  0.98793774  0.62177257  0.23992956  1
  O  O218  1  1.00388430  0.63831530  0.75336716  1
  O  O219  1  0.36460558  0.25381970  0.00409341  1
  O  O220  1  0.36328756  0.25712267  0.49973432  1
  O  O221  1  0.36691071  0.74818485  0.01219089  1
  O  O222  1  0.36893294  0.75501814  0.50652709  1
  O  O223  1  0.86998461  0.25557754  0.00840273  1
  O  O224  1  0.88266540  0.26148708  0.49962700  1
  O  O225  1  0.86945861  0.75689562  0.01039129  1
  O  O226  1  0.87482361  0.76119566  0.49723548  1
  O  O227  1  0.13269982  0.23730731  0.50329874  1
  O  O228  1  0.12841291  0.25207181  0.98820203  1
  O  O229  1  0.13285530  0.74430352  0.49161729  1
  O  O230  1  0.13335552  0.75380600  0.99234525  1
  O  O231  1  0.62215399  0.23074094  0.50025205  1
  O  O232  1  0.63280999  0.23786993  1.00988141  1
  O  O233  1  0.62677931  0.74422031  0.48858143  1
  O  O234  1  0.63299533  0.74365106  1.00182877  1
  O  O235  1  0.48695848  0.24745376  0.13089015  1
  O  O236  1  0.50311428  0.23325322  0.63372042  1
  O  O237  1  0.49230359  0.74964410  0.12915992  1
  O  O238  1  0.49319903  0.74455471  0.63454788  1
  O  O239  1  0.98731461  0.25622108  0.13629760  1
  O  O240  1  1.00548603  0.24050049  0.63354042  1
  O  O241  1  0.99337739  0.73694720  0.11716389  1
  O  O242  1  1.00588750  0.75230847  0.63781473  1
  O  O243  1  -0.00107196  0.26107551  0.36124552  1
  O  O244  1  0.00651513  0.25305180  0.87068160  1
  O  O245  1  0.01074680  0.76192409  0.37644360  1
  O  O246  1  0.00792559  0.75083011  0.86895524  1
  O  O247  1  0.49773056  0.24440486  0.36190361  1
  O  O248  1  0.49417952  0.26064008  0.87081550  1
  O  O249  1  0.50678386  0.75004321  0.37013038  1
  O  O250  1  0.48630828  0.75789595  0.86160543  1
  O  O251  1  0.24548566  0.13138070  0.49676738  1
  O  O252  1  0.24659266  0.13493536  0.98765701  1
  O  O253  1  0.24492800  0.63228805  0.49032646  1
  O  O254  1  0.25260761  0.63772222  0.99153334  1
  O  O255  1  0.72993112  0.11301743  0.50070899  1
  O  O256  1  0.74072209  0.13497492  1.00390048  1
  O  O257  1  0.74006550  0.62726560  0.49288053  1
  O  O258  1  0.75232364  0.62349129  0.98118546  1
  O  O259  1  0.24837635  0.36265590  -0.00808692  1
  O  O260  1  0.24723864  0.36605546  0.50704234  1
  O  O261  1  0.24426560  0.86670411  0.01186421  1
  O  O262  1  0.25643868  0.86252784  0.49429743  1
  O  O263  1  0.75616877  0.36896132  0.00583734  1
  O  O264  1  0.77004557  0.38587325  0.49769542  1
  O  O265  1  0.75575661  0.87856721  0.01125280  1
  O  O266  1  0.75670202  0.87459552  0.50713761  1
  O  O267  1  0.13211323  0.49244324  0.24268918  1
  O  O268  1  0.12875938  0.48703621  0.75849393  1
  O  O269  1  0.13789985  0.99002592  0.25448214  1
  O  O270  1  0.13083142  0.99150758  0.74539391  1
  O  O271  1  0.61814266  0.50013048  0.23498782  1
  O  O272  1  0.63032268  0.48867351  0.74111772  1
  O  O273  1  0.62946421  1.00152193  0.24218566  1
  O  O274  1  0.61088157  0.99050904  0.74702094  1
  O  O275  1  0.36141955  -0.00636405  0.26161044  1
  O  O276  1  0.36668706  0.00725423  0.75647380  1
  O  O277  1  0.36783972  0.50259051  0.24975080  1
  O  O278  1  0.37318437  0.49524725  0.76079493  1
  O  O279  1  0.86654498  0.01020727  0.25003893  1
  O  O280  1  0.89610165  -0.00849586  0.75475294  1
  O  O281  1  0.88018149  0.50730822  0.26125949  1
  O  O282  1  0.86615373  0.49534203  0.75290910  1
  O  O283  1  0.11555345  0.38194895  0.36596458  1
  O  O284  1  0.11911280  0.36764047  0.86931231  1
  O  O285  1  0.11989484  0.86845883  0.36515127  1
  O  O286  1  0.12566353  0.86231537  0.86643115  1
  O  O287  1  0.62234031  0.37597176  0.37219190  1
  O  O288  1  0.61298306  0.38252752  0.86618416  1
  O  O289  1  0.61757121  0.86578104  0.37528681  1
  O  O290  1  0.61290807  0.88195857  0.86579411  1
  O  O291  1  0.37517351  0.14381045  0.11750329  1
  O  O292  1  0.38090600  0.12123137  0.63549206  1
  O  O293  1  0.38036576  0.63280069  0.12966872  1
  O  O294  1  0.38552725  0.63261683  0.61809837  1
  O  O295  1  0.87933481  0.13402382  0.13420801  1
  O  O296  1  0.89271941  0.12700061  0.62347509  1
  O  O297  1  0.87797149  0.63053487  0.12961608  1
  O  O298  1  0.87165422  0.62858843  0.62957524  1
  O  O299  1  0.25968348  0.24887124  0.11674947  1
  O  O300  1  0.24532564  0.25861703  0.61690686  1
  O  O301  1  0.25512038  0.75491583  0.11862013  1
  O  O302  1  0.25914111  0.74504667  0.61436261  1
  O  O303  1  0.76046748  0.25802679  0.12029996  1
  O  O304  1  0.75776264  0.25522092  0.60911732  1
  O  O305  1  0.75718442  0.75985903  0.12556638  1
  O  O306  1  0.74986150  0.76026660  0.62181242  1
  O  O307  1  0.25280141  0.23691332  0.38274069  1
  O  O308  1  0.24318401  0.24281147  0.87828577  1
  O  O309  1  0.23924461  0.74818711  0.38049653  1
  O  O310  1  0.24740445  0.74549891  0.88265783  1
  O  O311  1  0.74794944  0.24897027  0.38243076  1
  O  O312  1  0.74860424  0.25000909  0.88883579  1
  O  O313  1  0.74301770  0.74067161  0.37390988  1
  O  O314  1  0.75414846  0.73730089  0.86917129  1
  O  O315  1  -0.00127756  0.11184769  0.00019480  1
  O  O316  1  0.00968494  0.11990798  0.50471970  1
  O  O317  1  -0.00904190  0.61297762  0.00611711  1
  O  O318  1  0.01256682  0.61750184  0.49292789  1
  O  O319  1  0.51342384  0.13043694  0.00086476  1
  O  O320  1  0.49979526  0.11725369  0.50786980  1
  O  O321  1  0.50017471  0.61769564  0.00451756  1
  O  O322  1  0.51790125  0.63491270  0.51761047  1
  O  O323  1  0.48648114  0.37019038  0.50905491  1
  O  O324  1  0.50140366  0.38169035  0.99273138  1
  O  O325  1  0.49371451  0.88013700  0.49676173  1
  O  O326  1  0.49973946  0.86876597  0.98670213  1
  O  O327  1  0.99870874  0.38217262  0.49171152  1
  O  O328  1  0.99210945  0.38281769  0.99835398  1
  O  O329  1  0.99649569  0.87723926  0.49141403  1
  O  O330  1  0.99240825  0.88407010  1.00010916  1
  O  O331  1  0.47881013  0.55202602  0.38364557  1
  O  O332  1  0.49439947  0.49482722  0.88002725  1
  O  O333  1  0.48928004  0.99491858  0.38019703  1
  O  O334  1  0.48280180  0.99195250  0.87594036  1
  O  O335  1  0.99584070  0.49434841  0.37824991  1
  O  O336  1  0.99992336  0.49463949  0.88394046  1
  O  O337  1  1.00204815  0.98766722  0.37975326  1
  O  O338  1  0.99543756  0.99492408  0.88907027  1
  O  O339  1  -0.00369032  -0.00033913  0.10989823  1
  O  O340  1  0.01095288  0.00438080  0.61674008  1
  O  O341  1  0.00561103  0.50912557  0.11893635  1
  O  O342  1  0.00251133  0.49642096  0.61158996  1
  O  O343  1  0.50966002  0.00033765  0.12980604  1
  O  O344  1  0.49231670  0.00858566  0.61553619  1
  O  O345  1  0.50322419  0.50427339  0.11629788  1
  O  O346  1  0.50868890  0.50886667  0.63239186  1
  O  O347  1  0.24347124  0.38586919  0.25671480  1
  O  O348  1  0.24328502  0.37442666  0.74197697  1
  O  O349  1  0.24260626  0.88139034  0.24054346  1
  O  O350  1  0.24015390  0.88191257  0.75289186  1
  O  O351  1  0.75291726  0.37446732  0.23715880  1
  O  O352  1  0.74207895  0.37819660  0.75013789  1
  O  O353  1  0.74888164  0.88172088  0.23807019  1
  O  O354  1  0.73669139  0.86847139  0.74333230  1
  O  O355  1  0.24375991  0.11701598  0.25971143  1
  O  O356  1  0.25323920  0.12025567  0.75855566  1
  O  O357  1  0.25143413  0.61411820  0.25286373  1
  O  O358  1  0.24806171  0.62494032  0.76450634  1
  O  O359  1  0.75863836  0.11846311  0.24324878  1
  O  O360  1  0.72987196  0.11296074  0.73108578  1
  O  O361  1  0.76420554  0.62843631  0.25641926  1
  O  O362  1  0.74896264  0.61534398  0.75721500  1
  O  O363  1  0.36405337  0.11133347  0.38324221  1
  O  O364  1  0.36747863  0.11424621  0.87014736  1
  O  O365  1  0.35288948  0.64422048  0.36237595  1
  O  O366  1  0.36747881  0.61528443  0.87865046  1
  O  O367  1  0.88109201  0.12204181  0.36398832  1
  O  O368  1  0.86294311  0.12841258  0.86157914  1
  O  O369  1  0.87231711  0.62277004  0.36738821  1
  O  O370  1  0.86363613  0.62156091  0.86525316  1
  O  O371  1  0.12012235  0.38779288  0.13361548  1
  O  O372  1  0.13326698  0.37083948  0.63576150  1
  O  O373  1  0.13191440  0.86901111  0.13559054  1
  O  O374  1  0.12540131  0.88671955  0.62976788  1
  O  O375  1  0.63367083  0.38299825  0.12683056  1
  O  O376  1  0.62542878  0.38029205  0.63073192  1
  O  O377  1  0.63144419  0.88426124  0.12699932  1
  O  O378  1  0.63254317  0.87667926  0.63365271  1
  O  O379  1  0.11875560  0.26460569  0.24457065  1
  O  O380  1  0.11940355  0.25767886  0.76114928  1
  O  O381  1  0.13065372  0.75867884  0.25877795  1
  O  O382  1  0.12064801  0.75396932  0.75551615  1
  O  O383  1  0.61246772  0.25144694  0.25000420  1
  O  O384  1  0.61777534  0.26280773  0.74762543  1
  O  O385  1  0.61966529  0.75041056  0.26063842  1
  O  O386  1  0.61249130  0.75920020  0.74765247  1
  O  O387  1  0.37826487  0.25256490  0.24104476  1
  O  O388  1  0.37856108  0.23555318  0.75752430  1
  O  O389  1  0.37707726  0.74675398  0.23870327  1
  O  O390  1  0.37918417  0.75636176  0.73490343  1
  O  O391  1  0.88125426  0.24542566  0.24487086  1
  O  O392  1  0.89031513  0.25831756  0.74643225  1
  O  O393  1  0.87529896  0.74429361  0.23524129  1
  O  O394  1  0.89523460  0.75451261  0.74852601  1
  O  O395  1  0.37053771  0.48275872  0.49821029  1
  O  O396  1  0.38618986  0.49777429  0.99410371  1
  O  O397  1  0.37967807  0.99089318  0.49454260  1
  O  O398  1  0.36368173  1.00272015  0.98651052  1
  O  O399  1  0.88665096  0.49787078  0.48819651  1
  O  O400  1  0.88233692  0.49073676  0.99937655  1
  O  O401  1  0.88581623  0.98356158  0.49411984  1
  O  O402  1  0.88215577  0.99298247  1.00132801  1
  O  O403  1  0.11162457  -0.00148025  -0.00475018  1
  O  O404  1  0.12497238  0.00474819  0.50735462  1
  O  O405  1  0.11610897  0.49585807  0.00910239  1
  O  O406  1  0.11812496  0.51166245  0.49156274  1
  O  O407  1  0.62900531  0.01517300  0.00962152  1
  O  O408  1  0.60891026  0.00586274  0.49508479  1
  O  O409  1  0.61332068  0.50355694  0.00771426  1
  O  O410  1  0.63092775  0.50654995  0.51287037  1
  O  O411  1  0.37401876  0.35910010  0.11893949  1
  O  O412  1  0.36490445  0.37278179  0.61380778  1
  O  O413  1  0.36370718  0.86757317  0.12884937  1
  O  O414  1  0.37979870  0.86799272  0.61273686  1
  O  O415  1  0.86996142  0.37167769  0.11683263  1
  O  O416  1  0.87843105  0.37336623  0.61296305  1
  O  O417  1  0.86898667  0.86881573  0.11819966  1
  O  O418  1  0.86858726  0.86666713  0.61533672  1
  O  O419  1  0.13480516  0.11715625  0.38682028  1
  O  O420  1  0.13190750  0.13140385  0.87582896  1
  O  O421  1  0.13323700  0.63347342  0.37315498  1
  O  O422  1  0.13438917  0.63715397  0.87587176  1
  O  O423  1  0.61862266  0.12386316  0.38614170  1
  O  O424  1  0.62714012  0.12296528  0.88952310  1
  O  O425  1  0.63434065  0.62875791  0.38023890  1
  O  O426  1  0.64142019  0.61772000  0.87272133  1
