# generated using pymatgen
data_V85Zn86O256
_symmetry_space_group_name_H-M   'P 1'
_cell_length_a   16.93538906
_cell_length_b   16.93440828
_cell_length_c   16.92261730
_cell_angle_alpha   90.03430573
_cell_angle_beta   89.99757318
_cell_angle_gamma   89.97348194
_symmetry_Int_Tables_number   1
_chemical_formula_structural   V85Zn86O256
_chemical_formula_sum   'V85 Zn86 O256'
_cell_volume   4853.24943637
_cell_formula_units_Z   1
loop_
 _symmetry_equiv_pos_site_id
 _symmetry_equiv_pos_as_xyz
  1  'x, y, z'
loop_
 _atom_site_type_symbol
 _atom_site_label
 _atom_site_symmetry_multiplicity
 _atom_site_fract_x
 _atom_site_fract_y
 _atom_site_fract_z
 _atom_site_occupancy
  V  V0  1  0.00037172  0.62308202  0.12436176  1
  V  V1  1  0.18266036  0.07584104  0.44280703  1
  V  V2  1  0.01067757  0.25444229  0.76266996  1
  V  V3  1  0.24828954  0.62380373  0.37011970  1
  V  V4  1  0.75271633  0.75067853  -0.00198687  1
  V  V5  1  0.49824015  0.37778478  0.37090164  1
  V  V6  1  0.12457311  0.38701696  0.76157465  1
  V  V7  1  -0.01154800  0.75283281  0.74737468  1
  V  V8  1  -0.01641641  0.62792740  0.62915373  1
  V  V9  1  0.75215262  0.00275688  0.75855783  1
  V  V10  1  0.36546922  0.74789554  0.62445867  1
  V  V11  1  -0.00391363  0.00294443  0.50629349  1
  V  V12  1  0.00529552  0.50147161  0.50638407  1
  V  V13  1  0.50125723  0.26016517  0.75029879  1
  V  V14  1  0.63320432  0.12443192  0.50313876  1
  V  V15  1  0.23959500  0.38848702  0.62920633  1
  V  V16  1  -0.00446030  0.87260922  0.38256907  1
  V  V17  1  0.87098150  -0.00343235  0.38179035  1
  V  V18  1  0.49981389  0.50147975  -0.00403332  1
  V  V19  1  0.87920962  0.50380796  0.86398650  1
  V  V20  1  0.87946447  0.24966384  0.12486676  1
  V  V21  1  0.75036395  0.12903718  0.37875419  1
  V  V22  1  0.12498866  0.88406814  0.74952977  1
  V  V23  1  0.87659173  0.62548267  0.24820170  1
  V  V24  1  0.63133172  0.25025520  0.86902806  1
  V  V25  1  0.49875534  0.87620005  0.87442713  1
  V  V26  1  0.49837394  0.12825584  0.12426214  1
  V  V27  1  0.24583610  0.88624965  0.62970632  1
  V  V28  1  0.62565245  0.37484430  0.24644417  1
  V  V29  1  0.62629844  0.62569656  0.50264959  1
  V  V30  1  0.24745472  0.75214465  0.00122970  1
  V  V31  1  0.62253429  0.74332422  0.88037145  1
  V  V32  1  0.36928551  0.25065419  0.62725501  1
  V  V33  1  0.87767115  0.12657050  0.76156039  1
  V  V34  1  0.50194880  0.62805792  0.12120086  1
  V  V35  1  0.36584203  0.11860245  0.25345224  1
  V  V36  1  0.75216946  0.37585256  0.12118110  1
  V  V37  1  0.01267436  0.12571583  0.62335200  1
  V  V38  1  0.87852634  0.25104331  0.62729521  1
  V  V39  1  0.87203846  0.12580812  0.25033996  1
  V  V40  1  0.62711208  -0.00340826  0.62688600  1
  V  V41  1  0.87600321  0.75684479  0.12013958  1
  V  V42  1  0.87728330  0.49927383  0.37511624  1
  V  V43  1  0.50187929  0.62452932  0.62560307  1
  V  V44  1  0.11925921  0.75549344  0.87049446  1
  V  V45  1  0.74229949  0.48819414  0.74435506  1
  V  V46  1  0.49771047  0.87839487  0.37340966  1
  V  V47  1  0.76465598  0.87322986  0.62362563  1
  V  V48  1  0.12870870  0.74763493  0.37652854  1
  V  V49  1  0.24927735  0.62123421  0.87042515  1
  V  V50  1  0.50133871  0.00191533  -0.00035027  1
  V  V51  1  0.50037786  0.12371058  0.62737862  1
  V  V52  1  0.24594410  0.25069167  0.49806462  1
  V  V53  1  0.70886623  0.30952042  0.55933905  1
  V  V54  1  0.75212725  0.50059756  0.24598912  1
  V  V55  1  0.12916718  0.37821679  0.25095868  1
  V  V56  1  0.13377681  0.50123820  0.12881118  1
  V  V57  1  0.62643196  0.87313441  0.75010487  1
  V  V58  1  0.87807196  0.37533574  -0.00830666  1
  V  V59  1  0.37074278  0.61834152  0.74851390  1
  V  V60  1  0.24570106  0.24840970  -0.00849482  1
  V  V61  1  0.36906692  0.49931684  0.36577863  1
  V  V62  1  0.76146703  0.75376701  0.50457362  1
  V  V63  1  0.74917812  0.62245695  0.86992470  1
  V  V64  1  0.62871092  0.25246832  0.37537540  1
  V  V65  1  0.37734726  0.36771553  -0.00070785  1
  V  V66  1  0.49365414  0.24970771  0.24508763  1
  V  V67  1  0.37292760  0.87016355  0.50046469  1
  V  V68  1  0.25533945  0.36871709  0.12603495  1
  V  V69  1  0.37055243  0.37808667  0.49813940  1
  V  V70  1  0.37198116  0.75137247  0.12698273  1
  V  V71  1  0.36568043  0.00267176  0.86866892  1
  V  V72  1  0.88001751  -0.01821496  0.88187270  1
  V  V73  1  0.75212184  0.24029905  -0.00411699  1
  V  V74  1  0.12663566  0.88799981  0.24966403  1
  V  V75  1  0.12543028  0.25106991  0.37679006  1
  V  V76  1  0.62790913  0.50628569  0.11546092  1
  V  V77  1  0.87745068  0.37055726  0.50286236  1
  V  V78  1  0.00257017  -0.01526385  0.00551379  1
  V  V79  1  0.24742879  0.88919494  0.12945060  1
  V  V80  1  0.12442032  0.62564666  -0.00039531  1
  V  V81  1  0.00168692  0.49490100  -0.00558805  1
  V  V82  1  0.12076972  0.12628566  0.00269370  1
  V  V83  1  0.62328264  0.75061471  0.37445801  1
  V  V84  1  0.13031254  0.62800224  0.51059806  1
  Zn  Zn85  1  0.62585720  0.87816154  0.24759234  1
  Zn  Zn86  1  0.49878278  0.75005413  0.24875517  1
  Zn  Zn87  1  0.23760290  0.12612458  0.86580610  1
  Zn  Zn88  1  0.49918039  -0.00002525  0.50014956  1
  Zn  Zn89  1  0.36740508  0.12205493  0.74866113  1
  Zn  Zn90  1  0.36980319  0.62116426  0.24592337  1
  Zn  Zn91  1  0.74814109  -0.00441405  0.24735186  1
  Zn  Zn92  1  0.49995741  0.74846001  0.75011662  1
  Zn  Zn93  1  0.62690549  -0.00140129  0.12798678  1
  Zn  Zn94  1  0.49980900  0.50260931  0.49699688  1
  Zn  Zn95  1  0.00207244  0.24996901  0.25032823  1
  Zn  Zn96  1  0.62796518  0.12307137  -0.00290292  1
  Zn  Zn97  1  0.37154890  0.49668111  0.87143221  1
  Zn  Zn98  1  0.37191120  0.87772450  0.00059066  1
  Zn  Zn99  1  0.00154499  0.37409689  0.37459683  1
  Zn  Zn100  1  0.00458777  0.11565122  0.12784695  1
  Zn  Zn101  1  0.62551348  0.48623330  0.62520538  1
  Zn  Zn102  1  -0.00026514  0.75222185  0.25063100  1
  Zn  Zn103  1  0.36484816  0.00241575  0.37678064  1
  Zn  Zn104  1  0.75085044  0.62793464  0.37569354  1
  Zn  Zn105  1  0.74773356  0.87704897  0.12313572  1
  Zn  Zn106  1  0.50233911  0.37778316  0.87058164  1
  Zn  Zn107  1  0.18677012  0.18868589  0.18230473  1
  Zn  Zn108  1  0.18790461  0.18848237  0.69018775  1
  Zn  Zn109  1  0.18644807  0.69174874  0.19164652  1
  Zn  Zn110  1  0.18531764  0.68953626  0.68945196  1
  Zn  Zn111  1  0.68616630  0.18475018  0.18505413  1
  Zn  Zn112  1  0.68733681  0.18151190  0.69669257  1
  Zn  Zn113  1  0.68844398  0.68894881  0.18671865  1
  Zn  Zn114  1  0.69127766  0.68558311  0.69052824  1
  Zn  Zn115  1  0.31038805  0.30882614  0.31045384  1
  Zn  Zn116  1  0.31113093  0.31467720  0.81118511  1
  Zn  Zn117  1  0.30928066  0.81134825  0.31236228  1
  Zn  Zn118  1  0.31205496  0.80993345  0.81057517  1
  Zn  Zn119  1  0.81237619  0.31313182  0.31401950  1
  Zn  Zn120  1  0.81500990  0.31353105  0.81224655  1
  Zn  Zn121  1  0.81103468  0.81235065  0.31229710  1
  Zn  Zn122  1  0.80963552  0.81225910  0.81233414  1
  Zn  Zn123  1  0.18699269  0.44050429  0.43877108  1
  Zn  Zn124  1  0.18950566  0.43752109  0.93943320  1
  Zn  Zn125  1  0.18439010  0.91377691  0.44721165  1
  Zn  Zn126  1  0.18147682  0.93771986  0.94028560  1
  Zn  Zn127  1  0.68613520  0.44548609  0.43150089  1
  Zn  Zn128  1  0.68838489  0.43271416  0.93307326  1
  Zn  Zn129  1  0.68649273  0.93636528  0.43768216  1
  Zn  Zn130  1  0.68849359  0.93498268  0.93898836  1
  Zn  Zn131  1  0.31800969  0.06868521  0.06018685  1
  Zn  Zn132  1  0.31872508  0.05726164  0.56754279  1
  Zn  Zn133  1  0.31475709  0.56160622  0.05874900  1
  Zn  Zn134  1  0.31246841  0.56401237  0.55552971  1
  Zn  Zn135  1  0.81663551  0.05845836  0.06282545  1
  Zn  Zn136  1  0.81607685  0.06450928  0.56917706  1
  Zn  Zn137  1  0.81243008  0.56847617  0.05438061  1
  Zn  Zn138  1  0.81092354  0.56068807  0.56303018  1
  Zn  Zn139  1  0.43777718  0.43883637  0.18367385  1
  Zn  Zn140  1  0.43582815  0.44005170  0.68276038  1
  Zn  Zn141  1  0.43690943  0.93995634  0.18874110  1
  Zn  Zn142  1  0.43746488  0.93567642  0.68871103  1
  Zn  Zn143  1  0.94355350  0.43546213  0.18484404  1
  Zn  Zn144  1  0.94083198  0.43631787  0.68697245  1
  Zn  Zn145  1  0.93619366  0.93686126  0.19344617  1
  Zn  Zn146  1  0.94169105  0.93879741  0.69113502  1
  Zn  Zn147  1  0.05215350  0.06104834  0.31125469  1
  Zn  Zn148  1  0.05907358  0.06464505  0.81981759  1
  Zn  Zn149  1  0.06302391  0.56133529  0.31337758  1
  Zn  Zn150  1  0.06204185  0.56639984  0.80997601  1
  Zn  Zn151  1  0.56146836  0.06228092  0.31298158  1
  Zn  Zn152  1  0.56174444  0.06690257  0.81387213  1
  Zn  Zn153  1  0.56122966  0.56476022  0.30783261  1
  Zn  Zn154  1  0.56479970  0.56207580  0.80934662  1
  Zn  Zn155  1  0.43813510  0.18743927  0.43605892  1
  Zn  Zn156  1  0.43687269  0.18820467  0.93538981  1
  Zn  Zn157  1  0.43595840  0.68838850  0.43786485  1
  Zn  Zn158  1  0.43510889  0.68764387  0.93921710  1
  Zn  Zn159  1  0.94043906  0.18758817  0.43883516  1
  Zn  Zn160  1  0.94249576  0.18434064  0.93970463  1
  Zn  Zn161  1  0.93976570  0.68594987  0.43822664  1
  Zn  Zn162  1  0.93659569  0.68593802  0.93407257  1
  Zn  Zn163  1  0.06520564  0.31172964  0.06054142  1
  Zn  Zn164  1  0.06345938  0.31159187  0.56487902  1
  Zn  Zn165  1  0.06366554  0.81214353  0.06726009  1
  Zn  Zn166  1  0.06211586  0.81016443  0.56467350  1
  Zn  Zn167  1  0.56482977  0.31193204  0.05952838  1
  Zn  Zn168  1  0.54537763  0.31078596  0.55800824  1
  Zn  Zn169  1  0.56405555  0.81400039  0.05959477  1
  Zn  Zn170  1  0.56131430  0.80983549  0.56241297  1
  O  O171  1  0.12174329  0.12629788  0.11317484  1
  O  O172  1  0.11177659  0.13173177  0.62499959  1
  O  O173  1  0.12180964  0.61907054  0.12198700  1
  O  O174  1  0.12029937  0.63095957  0.61337517  1
  O  O175  1  0.61300210  0.12289722  0.12007546  1
  O  O176  1  0.62040523  0.11950563  0.62169510  1
  O  O177  1  0.61728354  0.61644880  0.12722503  1
  O  O178  1  0.61700832  0.62806733  0.61846905  1
  O  O179  1  0.37633644  0.38127426  0.37651476  1
  O  O180  1  0.37911501  0.37881977  0.88162211  1
  O  O181  1  0.37733877  0.87573335  0.38302684  1
  O  O182  1  0.38103059  0.88224378  0.87527958  1
  O  O183  1  0.87864647  0.38167016  0.38216290  1
  O  O184  1  0.87309073  0.38305270  0.88652565  1
  O  O185  1  0.88436412  0.88357292  0.37233653  1
  O  O186  1  0.87811346  0.88356136  0.87319749  1
  O  O187  1  0.24090463  0.00885010  0.39288486  1
  O  O188  1  0.26435013  -0.00200840  0.88361886  1
  O  O189  1  0.25791259  0.50759803  0.37772996  1
  O  O190  1  0.25139946  0.51760863  0.88412200  1
  O  O191  1  0.75701497  0.00796195  0.37821482  1
  O  O192  1  0.76363768  -0.00609877  0.86941967  1
  O  O193  1  0.76271500  0.50398344  0.36739494  1
  O  O194  1  0.75492518  0.50415040  0.86782965  1
  O  O195  1  0.23811057  0.49262185  0.11611376  1
  O  O196  1  0.25325250  0.48619052  0.62009213  1
  O  O197  1  0.25616817  0.98712123  0.11602143  1
  O  O198  1  0.25248924  0.98519784  0.62760280  1
  O  O199  1  0.74454517  0.49868510  0.12416687  1
  O  O200  1  0.74866253  0.50313341  0.63993087  1
  O  O201  1  0.74839199  0.99674359  0.12543279  1
  O  O202  1  0.74615416  0.99269905  0.63326240  1
  O  O203  1  0.01476332  0.37206798  0.25087068  1
  O  O204  1  0.01242894  0.36446856  0.74472660  1
  O  O205  1  0.00946145  0.87530634  0.26218975  1
  O  O206  1  0.00848508  0.85919246  0.74020544  1
  O  O207  1  0.50453212  0.36874025  0.25091215  1
  O  O208  1  0.49787411  0.36411188  0.74568155  1
  O  O209  1  0.49908463  0.87055460  0.26010912  1
  O  O210  1  0.50543013  0.87269831  0.76047741  1
  O  O211  1  0.49589403  0.13283786  0.24404747  1
  O  O212  1  0.49891342  0.13516331  0.73822502  1
  O  O213  1  0.49535682  0.62745085  0.23478893  1
  O  O214  1  0.49417376  0.62550277  0.73950239  1
  O  O215  1  0.98675424  0.12874973  0.24740403  1
  O  O216  1  0.99691435  0.13586736  0.74580978  1
  O  O217  1  0.98985645  0.62309763  0.24472518  1
  O  O218  1  1.00393458  0.63470783  0.73550598  1
  O  O219  1  0.37081580  0.26196190  -0.00160984  1
  O  O220  1  0.36879545  0.25523482  0.50842844  1
  O  O221  1  0.36482491  0.75302850  0.00918017  1
  O  O222  1  0.37927320  0.76110999  0.50884858  1
  O  O223  1  0.87210283  0.25679955  0.00318149  1
  O  O224  1  0.87885158  0.26190432  0.50713437  1
  O  O225  1  0.86861606  0.74238116  0.00849165  1
  O  O226  1  0.85973305  0.74726261  0.49592228  1
  O  O227  1  0.13133754  0.25398400  0.48836659  1
  O  O228  1  0.13320104  0.24273007  1.00098858  1
  O  O229  1  0.11788320  0.74076971  0.48776718  1
  O  O230  1  0.12803069  0.74503498  0.99364307  1
  O  O231  1  0.63327686  0.24811374  0.50038655  1
  O  O232  1  0.63625102  0.24823799  0.99221981  1
  O  O233  1  0.62902700  0.74105970  0.49177738  1
  O  O234  1  0.63077915  0.75018433  0.98628089  1
  O  O235  1  0.50587269  0.24351914  0.13405413  1
  O  O236  1  0.49005718  0.24386037  0.63055682  1
  O  O237  1  0.49105641  0.74349065  0.12129435  1
  O  O238  1  0.49034519  0.74097936  0.62694074  1
  O  O239  1  0.98723284  0.25197800  0.12502347  1
  O  O240  1  0.99409606  0.24448981  0.63211817  1
  O  O241  1  0.99364315  0.74039382  0.12629435  1
  O  O242  1  1.00046194  0.73940077  0.63387880  1
  O  O243  1  0.01092811  0.25262956  0.37397988  1
  O  O244  1  -0.00366894  0.25121818  0.86080175  1
  O  O245  1  0.00393617  0.75823137  0.37510431  1
  O  O246  1  0.00759677  0.74112935  0.85995657  1
  O  O247  1  0.50784604  0.25842545  0.36911597  1
  O  O248  1  0.50608479  0.25191054  0.86492271  1
  O  O249  1  0.50564061  0.75823685  0.37444816  1
  O  O250  1  0.50518948  0.75671964  0.87581254  1
  O  O251  1  0.24655465  0.12997704  0.50592925  1
  O  O252  1  0.24408126  0.13372829  1.00035230  1
  O  O253  1  0.23842903  0.62149936  0.48923136  1
  O  O254  1  0.24402260  0.63585264  0.99662598  1
  O  O255  1  0.73962865  0.12314450  0.50078458  1
  O  O256  1  0.75342045  0.13787866  1.00209005  1
  O  O257  1  0.74361823  0.63527024  0.50095991  1
  O  O258  1  0.74986162  0.63458449  0.98438611  1
  O  O259  1  0.25667249  0.36953722  0.00543651  1
  O  O260  1  0.25084017  0.36907935  0.50967071  1
  O  O261  1  0.24568951  0.86416404  0.00815362  1
  O  O262  1  0.25836912  0.86996917  0.51781563  1
  O  O263  1  0.75994031  0.36717064  0.00368681  1
  O  O264  1  0.75931402  0.37691349  0.49479666  1
  O  O265  1  0.74815985  0.85635437  -0.00129100  1
  O  O266  1  0.74442172  0.86199957  0.50846263  1
  O  O267  1  0.12202513  0.49232412  0.24061922  1
  O  O268  1  0.11832641  0.48636786  0.74977776  1
  O  O269  1  0.12178770  0.98693275  0.25691132  1
  O  O270  1  0.11179704  0.98296864  0.75817521  1
  O  O271  1  0.63157017  0.49545948  0.23921070  1
  O  O272  1  0.63692899  0.49656675  0.74672656  1
  O  O273  1  0.62866209  0.99930861  0.24937816  1
  O  O274  1  0.63492368  0.99647465  0.74974376  1
  O  O275  1  0.37432158  0.01304503  0.25574101  1
  O  O276  1  0.37960708  0.00021197  0.76493276  1
  O  O277  1  0.37787955  0.50070672  0.26103448  1
  O  O278  1  0.37802197  0.51332714  0.75119387  1
  O  O279  1  0.87453941  0.00917618  0.26394403  1
  O  O280  1  0.87381879  0.00541425  0.76208974  1
  O  O281  1  0.87402539  0.50335389  0.25527574  1
  O  O282  1  0.86908702  0.49315018  0.76020275  1
  O  O283  1  0.12614986  0.36950894  0.36794139  1
  O  O284  1  0.13177398  0.37770333  0.86090629  1
  O  O285  1  0.11929013  0.86643557  0.36767459  1
  O  O286  1  0.13231579  0.86168789  0.86734940  1
  O  O287  1  0.62020946  0.37324345  0.36733643  1
  O  O288  1  0.61893987  0.35696840  0.88073328  1
  O  O289  1  0.61516332  0.86645145  0.37708529  1
  O  O290  1  0.61725297  0.86864182  0.86919948  1
  O  O291  1  0.38855413  0.12194455  0.13756116  1
  O  O292  1  0.38354311  0.13288030  0.62457939  1
  O  O293  1  0.37950278  0.63212527  0.12481988  1
  O  O294  1  0.37918232  0.62920196  0.62769988  1
  O  O295  1  0.87545893  0.13397409  0.13385592  1
  O  O296  1  0.88279824  0.13530843  0.63585553  1
  O  O297  1  0.88103498  0.62732522  0.13123108  1
  O  O298  1  0.88521617  0.62761651  0.62223550  1
  O  O299  1  0.24720456  0.26398278  0.11357916  1
  O  O300  1  0.25410699  0.25708442  0.61538505  1
  O  O301  1  0.25426034  0.75475690  0.11878383  1
  O  O302  1  0.26266049  0.75347381  0.62842465  1
  O  O303  1  0.76052273  0.25477664  0.11730944  1
  O  O304  1  0.75807098  0.24670141  0.62893816  1
  O  O305  1  0.75915569  0.74435593  0.11452872  1
  O  O306  1  0.74519447  0.75709590  0.61353233  1
  O  O307  1  0.24590599  0.25289116  0.39010681  1
  O  O308  1  0.25573580  0.24940606  0.88799190  1
  O  O309  1  0.23956010  0.74229153  0.37517439  1
  O  O310  1  0.24456405  0.74300204  0.88367861  1
  O  O311  1  0.74148558  0.24312904  0.37223689  1
  O  O312  1  0.74068386  0.25322626  0.87913375  1
  O  O313  1  0.74229946  0.74969358  0.38750534  1
  O  O314  1  0.74395747  0.74239591  0.87672984  1
  O  O315  1  0.00587385  0.11789171  0.00544352  1
  O  O316  1  -0.00376847  0.11650652  0.50986951  1
  O  O317  1  0.00605362  0.61557067  0.00426174  1
  O  O318  1  0.00420148  0.62102071  0.51136944  1
  O  O319  1  0.49798699  0.11930874  0.00748140  1
  O  O320  1  0.51159318  0.12911959  0.51188057  1
  O  O321  1  0.49397587  0.61597633  0.01082153  1
  O  O322  1  0.50688628  0.62552332  0.50858530  1
  O  O323  1  0.48840579  0.37847966  0.48859005  1
  O  O324  1  0.49237573  0.38246840  1.00186264  1
  O  O325  1  0.49222736  0.87480392  0.49346428  1
  O  O326  1  0.49740640  0.88168866  0.98767808  1
  O  O327  1  0.99435427  0.38444855  0.50128473  1
  O  O328  1  0.99455719  0.38708248  1.00432914  1
  O  O329  1  1.00959414  0.88481222  0.49094147  1
  O  O330  1  1.00548494  0.88531444  1.00060438  1
  O  O331  1  0.49416676  0.49360022  0.37365136  1
  O  O332  1  0.50239433  0.50031467  0.88628051  1
  O  O333  1  0.49859647  0.98750079  0.37917186  1
  O  O334  1  0.49348434  0.99360629  0.87836480  1
  O  O335  1  0.98983815  0.49953638  0.38342500  1
  O  O336  1  0.99201962  0.50782915  0.88250264  1
  O  O337  1  0.99168323  0.99513335  0.38660444  1
  O  O338  1  0.98640909  1.00090538  0.88640827  1
  O  O339  1  -0.01346540  -0.00173602  0.10979542  1
  O  O340  1  -0.00564186  0.00760888  0.61417480  1
  O  O341  1  0.01028852  0.50492591  0.11642260  1
  O  O342  1  -0.00561955  0.51405761  0.61853292  1
  O  O343  1  0.49983681  0.00649334  0.11486939  1
  O  O344  1  0.50612827  0.00824431  0.62596530  1
  O  O345  1  0.50766284  0.50642314  0.11567270  1
  O  O346  1  0.50517152  0.50850921  0.61989745  1
  O  O347  1  0.23966497  0.36996419  0.24093376  1
  O  O348  1  0.23777009  0.37080823  0.73837006  1
  O  O349  1  0.23637909  0.87353232  0.24539265  1
  O  O350  1  0.24222434  0.86901046  0.73864785  1
  O  O351  1  0.74764724  0.38210711  0.24180081  1
  O  O352  1  0.75157397  0.38929345  0.75351534  1
  O  O353  1  0.74642394  0.87551333  0.24634951  1
  O  O354  1  0.74622744  0.88271960  0.74353300  1
  O  O355  1  0.26831297  0.13601585  0.24473810  1
  O  O356  1  0.25422736  0.12965513  0.75401766  1
  O  O357  1  0.24920297  0.62640201  0.26389899  1
  O  O358  1  0.25671489  0.63018288  0.75836067  1
  O  O359  1  0.76041197  0.12622053  0.25625162  1
  O  O360  1  0.76139314  0.11028537  0.74703983  1
  O  O361  1  0.76207377  0.61882074  0.24997588  1
  O  O362  1  0.74884592  0.61457356  0.76178057  1
  O  O363  1  0.38112421  0.12224052  0.36112252  1
  O  O364  1  0.37641715  0.11043780  0.87344389  1
  O  O365  1  0.36668334  0.61851419  0.37478745  1
  O  O366  1  0.36758214  0.62606110  0.86606285  1
  O  O367  1  0.86938892  0.12164744  0.37071416  1
  O  O368  1  0.87841126  0.12275366  0.86361578  1
  O  O369  1  0.87551443  0.61712822  0.36723389  1
  O  O370  1  0.86567489  0.61265899  0.87778792  1
  O  O371  1  0.13207910  0.38206285  0.13078171  1
  O  O372  1  0.13606451  0.37429151  0.63012988  1
  O  O373  1  0.13031444  0.87011160  0.14243281  1
  O  O374  1  0.13891387  0.86926972  0.63083040  1
  O  O375  1  0.63284433  0.38239467  0.12839576  1
  O  O376  1  0.63428908  0.36774500  0.60698924  1
  O  O377  1  0.62637845  0.87664422  0.12772129  1
  O  O378  1  0.62838366  0.87971757  0.63199453  1
  O  O379  1  0.12717532  0.25542236  0.26123117  1
  O  O380  1  0.11376509  0.25896970  0.74862294  1
  O  O381  1  0.11939727  0.75541401  0.26216272  1
  O  O382  1  0.11694707  0.75639453  0.75616446  1
  O  O383  1  0.61800010  0.25600566  0.25419337  1
  O  O384  1  0.61887098  0.24796780  0.75992027  1
  O  O385  1  0.62419181  0.74625250  0.26517964  1
  O  O386  1  0.62455579  0.75601972  0.76032050  1
  O  O387  1  0.38917218  0.24377468  0.25572554  1
  O  O388  1  0.38105285  0.25065005  0.73913066  1
  O  O389  1  0.37365868  0.74778350  0.23699418  1
  O  O390  1  0.37822776  0.73847054  0.74270999  1
  O  O391  1  0.87568035  0.24556884  0.24183315  1
  O  O392  1  0.88371981  0.24640891  0.74526916  1
  O  O393  1  0.87733762  0.73911343  0.24417541  1
  O  O394  1  0.88946920  0.75309345  0.75397907  1
  O  O395  1  0.37674036  0.49409719  0.48758335  1
  O  O396  1  0.38405387  0.49056143  0.99711792  1
  O  O397  1  0.37861595  0.98680803  0.49850134  1
  O  O398  1  0.38615288  0.99842795  0.98943328  1
  O  O399  1  0.88066166  0.49231043  0.49452895  1
  O  O400  1  0.88248715  0.49340581  0.99299626  1
  O  O401  1  0.88115944  1.00490808  0.49076223  1
  O  O402  1  0.88358120  1.00167356  0.98739803  1
  O  O403  1  0.10838951  0.00384565  -0.00083850  1
  O  O404  1  0.12065597  0.00959675  0.49194440  1
  O  O405  1  0.11840499  0.50488914  0.00514586  1
  O  O406  1  0.11102885  0.50990191  0.49388969  1
  O  O407  1  0.61207740  0.00278487  -0.00555279  1
  O  O408  1  0.62260718  0.00869554  0.50723396  1
  O  O409  1  0.61919324  0.49288023  0.00935566  1
  O  O410  1  0.62655665  0.51419607  0.50214171  1
  O  O411  1  0.36427049  0.38256614  0.11650572  1
  O  O412  1  0.36401084  0.36848506  0.62112742  1
  O  O413  1  0.36665653  0.86824122  0.12420773  1
  O  O414  1  0.36815009  0.86833761  0.62299972  1
  O  O415  1  0.87151231  0.37095154  0.11515436  1
  O  O416  1  0.87793707  0.36222185  0.61915603  1
  O  O417  1  0.87590087  0.85878301  0.13115228  1
  O  O418  1  0.86364371  0.88018403  0.62829998  1
  O  O419  1  0.12660630  0.13013179  0.37337830  1
  O  O420  1  0.12517082  0.11980276  0.89333836  1
  O  O421  1  0.12878710  0.62996887  0.38049817  1
  O  O422  1  0.13117729  0.63513273  0.87790365  1
  O  O423  1  0.62758167  0.13214722  0.38634420  1
  O  O424  1  0.61972164  0.14280306  0.87903469  1
  O  O425  1  0.62590620  0.63055698  0.38256417  1
  O  O426  1  0.63158960  0.63349138  0.87046682  1
