# generated using pymatgen
data_V85Zn86O256
_symmetry_space_group_name_H-M   'P 1'
_cell_length_a   16.93623568
_cell_length_b   16.92386314
_cell_length_c   16.92719973
_cell_angle_alpha   90.10856932
_cell_angle_beta   90.02813960
_cell_angle_gamma   89.99713538
_symmetry_Int_Tables_number   1
_chemical_formula_structural   V85Zn86O256
_chemical_formula_sum   'V85 Zn86 O256'
_cell_volume   4851.77530046
_cell_formula_units_Z   1
loop_
 _symmetry_equiv_pos_site_id
 _symmetry_equiv_pos_as_xyz
  1  'x, y, z'
loop_
 _atom_site_type_symbol
 _atom_site_label
 _atom_site_symmetry_multiplicity
 _atom_site_fract_x
 _atom_site_fract_y
 _atom_site_fract_z
 _atom_site_occupancy
  V  V0  1  0.74744154  0.50883073  0.25283717  1
  V  V1  1  0.12642901  0.49794824  0.61806337  1
  V  V2  1  0.87436745  0.12547961  0.25073088  1
  V  V3  1  0.12100272  0.25218031  0.37667204  1
  V  V4  1  -0.00055474  0.39091702  0.37995880  1
  V  V5  1  0.50077622  0.13003340  0.62879292  1
  V  V6  1  0.38492092  0.37295316  0.49009108  1
  V  V7  1  0.25829043  0.49873926  0.75174047  1
  V  V8  1  0.12441021  0.37783380  0.24941206  1
  V  V9  1  0.62701266  0.12636696  0.49924590  1
  V  V10  1  0.87585913  0.50243827  0.88094644  1
  V  V11  1  0.87387048  0.25029037  0.12483760  1
  V  V12  1  0.37808099  0.12602516  0.74913745  1
  V  V13  1  -0.00129192  0.25068294  0.25315580  1
  V  V14  1  0.37417440  0.25625069  0.62824225  1
  V  V15  1  0.74103312  0.63417375  0.87137911  1
  V  V16  1  0.88144639  0.00512761  0.88118367  1
  V  V17  1  0.87636050  0.62442232  0.75045372  1
  V  V18  1  0.12729963  0.87194626  0.75114278  1
  V  V19  1  0.25070279  0.86567215  0.62198200  1
  V  V20  1  0.86806590  0.50749166  0.38128207  1
  V  V21  1  0.75154360  0.12758836  0.37976751  1
  V  V22  1  0.37389000  0.74126708  0.63225328  1
  V  V23  1  0.37924917  0.74194009  0.12464557  1
  V  V24  1  0.11957107  0.86883570  0.26376007  1
  V  V25  1  0.11012347  0.61958447  0.00026771  1
  V  V26  1  0.12849816  0.37743736  0.74957225  1
  V  V27  1  0.12718096  0.74798622  0.87474349  1
  V  V28  1  0.24783773  0.26174327  0.50466532  1
  V  V29  1  0.76110972  0.00031599  0.74768672  1
  V  V30  1  0.74236027  0.25117498  -0.00114719  1
  V  V31  1  0.11918061  -0.00457716  0.12355616  1
  V  V32  1  0.12498280  0.12531971  0.50140029  1
  V  V33  1  -0.00434838  -0.01347151  0.49385005  1
  V  V34  1  0.11117045  0.50329566  0.12230900  1
  V  V35  1  0.11999820  0.12000315  -0.00123901  1
  V  V36  1  -0.00042587  0.37920425  0.87949144  1
  V  V37  1  0.49830719  0.12209299  0.11761770  1
  V  V38  1  0.00019592  0.74519873  0.74790135  1
  V  V39  1  0.75216392  0.87354390  0.12043734  1
  V  V40  1  0.87404149  0.37533563  0.50065355  1
  V  V41  1  0.49845708  0.62201802  0.62784613  1
  V  V42  1  0.87232283  0.24616859  0.62002174  1
  V  V43  1  0.49988430  -0.00182041  0.50129756  1
  V  V44  1  0.12585599  -0.00279406  0.62481740  1
  V  V45  1  0.24930867  0.25056801  -0.00144011  1
  V  V46  1  0.74736306  0.00216415  0.24739452  1
  V  V47  1  0.24800833  0.12411948  0.87009878  1
  V  V48  1  0.62721868  -0.00386713  0.62759081  1
  V  V49  1  0.62420557  0.49621216  0.62639156  1
  V  V50  1  0.74608427  0.36957365  0.62262266  1
  V  V51  1  0.50355349  0.74228181  0.24781032  1
  V  V52  1  0.75529437  0.12863876  0.86799580  1
  V  V53  1  0.19442103  0.67824761  0.43846643  1
  V  V54  1  -0.00030304  0.12262324  0.12327543  1
  V  V55  1  0.87506029  0.37761383  0.00066452  1
  V  V56  1  0.62509383  0.25163250  0.37924496  1
  V  V57  1  0.25003059  0.74450203  0.00060232  1
  V  V58  1  0.74665077  0.49278911  0.75207032  1
  V  V59  1  0.00389441  0.87846834  0.88288708  1
  V  V60  1  0.37516328  0.86644860  0.50158392  1
  V  V61  1  0.26247333  0.61970195  0.87141250  1
  V  V62  1  0.62046782  0.37762691  0.25511565  1
  V  V63  1  -0.00484807  0.12208303  0.62782830  1
  V  V64  1  0.37499359  0.12182176  0.24936961  1
  V  V65  1  0.37388213  0.62598178  0.25899983  1
  V  V66  1  0.50246338  0.87147867  0.37372411  1
  V  V67  1  0.00226529  0.61715431  0.60833493  1
  V  V68  1  0.88555720  0.62409123  0.24819710  1
  V  V69  1  0.24930585  0.87051457  0.12909300  1
  V  V70  1  0.49799709  0.25294729  0.25351305  1
  V  V71  1  0.25123469  0.37723707  0.12334600  1
  V  V72  1  -0.00468883  0.24890899  0.74944370  1
  V  V73  1  0.62054410  0.62989422  0.00407624  1
  V  V74  1  0.49580016  0.49779386  0.00473900  1
  V  V75  1  0.49752491  0.37916284  0.86136559  1
  V  V76  1  0.25076628  0.12456876  0.37719888  1
  V  V77  1  0.62063600  -0.00129681  0.11442873  1
  V  V78  1  0.24738939  0.50660125  0.25192919  1
  V  V79  1  0.75857968  0.86755863  0.61306210  1
  V  V80  1  0.63380504  0.63083901  0.49624690  1
  V  V81  1  0.74798124  0.37609293  0.12718076  1
  V  V82  1  0.62042503  0.25663156  0.85691121  1
  V  V83  1  0.50800697  0.75046810  0.75728862  1
  V  V84  1  0.88250366  0.74203219  0.12004709  1
  Zn  Zn85  1  0.37497979  -0.00265966  0.37616333  1
  Zn  Zn86  1  0.37279871  0.37982429  -0.00721863  1
  Zn  Zn87  1  0.00199183  0.75055621  0.25404673  1
  Zn  Zn88  1  0.51254171  0.89126339  0.89013758  1
  Zn  Zn89  1  0.87387002  -0.00989971  0.37699017  1
  Zn  Zn90  1  0.62108184  0.50360694  0.12782045  1
  Zn  Zn91  1  0.62392229  0.87251534  0.24777051  1
  Zn  Zn92  1  0.12175267  0.25076775  0.87428544  1
  Zn  Zn93  1  0.25547178  -0.00207808  0.74478090  1
  Zn  Zn94  1  0.38711277  0.00187958  0.88185222  1
  Zn  Zn95  1  0.87959824  0.87823719  0.00205350  1
  Zn  Zn96  1  0.50634835  0.49700652  0.49162116  1
  Zn  Zn97  1  0.74626702  0.75463094  -0.00713634  1
  Zn  Zn98  1  0.63294173  0.74663278  0.37454656  1
  Zn  Zn99  1  0.61479017  0.12423009  -0.00959616  1
  Zn  Zn100  1  0.37532506  0.25077885  0.12273103  1
  Zn  Zn101  1  0.80690779  0.69368274  0.43858995  1
  Zn  Zn102  1  0.24866350  -0.00214936  0.25237166  1
  Zn  Zn103  1  0.38114555  0.87777430  -0.00376409  1
  Zn  Zn104  1  0.87737406  0.75183259  0.61342569  1
  Zn  Zn105  1  0.37731876  0.49869741  0.37315727  1
  Zn  Zn106  1  0.63214305  0.86663838  0.75679705  1
  Zn  Zn107  1  0.18720802  0.18821348  0.18706152  1
  Zn  Zn108  1  0.18617872  0.19012885  0.68638632  1
  Zn  Zn109  1  0.18350793  0.68388922  0.18972344  1
  Zn  Zn110  1  0.18771870  0.68134943  0.68468382  1
  Zn  Zn111  1  0.68307143  0.18711139  0.18738284  1
  Zn  Zn112  1  0.69000587  0.18497330  0.68681692  1
  Zn  Zn113  1  0.69002796  0.68964430  0.18573590  1
  Zn  Zn114  1  0.68826721  0.68402208  0.68312768  1
  Zn  Zn115  1  0.30909244  0.30953469  0.31104242  1
  Zn  Zn116  1  0.31343704  0.31136569  0.81148766  1
  Zn  Zn117  1  0.31032490  0.80776870  0.31518367  1
  Zn  Zn118  1  0.31969162  0.81312879  0.81324555  1
  Zn  Zn119  1  0.80911332  0.31442757  0.31460243  1
  Zn  Zn120  1  0.81402922  0.31321983  0.80928817  1
  Zn  Zn121  1  0.81112175  0.81463743  0.30584145  1
  Zn  Zn122  1  0.81712420  0.81672634  0.80743940  1
  Zn  Zn123  1  0.18805447  0.44783475  0.43303739  1
  Zn  Zn124  1  0.18601767  0.44024492  0.93686657  1
  Zn  Zn125  1  0.18992678  0.93565837  0.44140087  1
  Zn  Zn126  1  0.21877472  0.95055352  0.95142422  1
  Zn  Zn127  1  0.68857541  0.43660208  0.44046062  1
  Zn  Zn128  1  0.68230111  0.44007283  0.93739876  1
  Zn  Zn129  1  0.68724876  0.93734975  0.43579408  1
  Zn  Zn130  1  0.68736366  0.93830932  0.93359199  1
  Zn  Zn131  1  0.30875576  0.06148877  0.06480074  1
  Zn  Zn132  1  0.31347215  0.06076757  0.56186745  1
  Zn  Zn133  1  0.31190954  0.56309251  0.06351772  1
  Zn  Zn134  1  0.31118241  0.55661873  0.56649546  1
  Zn  Zn135  1  0.80938504  0.06468437  0.05799794  1
  Zn  Zn136  1  0.81450731  0.06026884  0.56045163  1
  Zn  Zn137  1  0.80599079  0.56405055  0.06093003  1
  Zn  Zn138  1  0.81452990  0.55935965  0.56708111  1
  Zn  Zn139  1  0.43600489  0.43804243  0.18633460  1
  Zn  Zn140  1  0.43789573  0.43478241  0.68190442  1
  Zn  Zn141  1  0.43679041  0.93441395  0.18498716  1
  Zn  Zn142  1  0.43950410  0.93532040  0.69271554  1
  Zn  Zn143  1  0.93530072  0.43820373  0.19230941  1
  Zn  Zn144  1  0.93763581  0.43750305  0.69033977  1
  Zn  Zn145  1  0.93593113  0.93518036  0.19202230  1
  Zn  Zn146  1  0.93802911  0.93499344  0.68996545  1
  Zn  Zn147  1  0.06508007  0.05939852  0.31080363  1
  Zn  Zn148  1  0.06402517  0.06213069  0.81005239  1
  Zn  Zn149  1  0.02805094  0.63515481  0.40020029  1
  Zn  Zn150  1  0.06611619  0.56138397  0.81442094  1
  Zn  Zn151  1  0.56138647  0.06101848  0.30990850  1
  Zn  Zn152  1  0.56688138  0.06333879  0.80932578  1
  Zn  Zn153  1  0.55593895  0.56045603  0.31660545  1
  Zn  Zn154  1  0.56009384  0.56140355  0.81190999  1
  Zn  Zn155  1  0.43859148  0.18811530  0.43837996  1
  Zn  Zn156  1  0.43590844  0.19239820  0.93288049  1
  Zn  Zn157  1  0.44139571  0.68476416  0.44134922  1
  Zn  Zn158  1  0.43909415  0.68720154  0.93952709  1
  Zn  Zn159  1  0.93742972  0.18544504  0.44044505  1
  Zn  Zn160  1  0.93595813  0.18966004  0.93772536  1
  Zn  Zn161  1  0.94125111  0.81008829  0.42936740  1
  Zn  Zn162  1  0.93466857  0.69078098  0.93475600  1
  Zn  Zn163  1  0.06346442  0.31203289  0.06196541  1
  Zn  Zn164  1  0.05995021  0.31665320  0.56326518  1
  Zn  Zn165  1  0.06502063  0.80861215  0.06354472  1
  Zn  Zn166  1  0.06963357  0.80220293  0.56037359  1
  Zn  Zn167  1  0.55986496  0.31511945  0.06482542  1
  Zn  Zn168  1  0.56260514  0.31001417  0.56511695  1
  Zn  Zn169  1  0.56160684  0.81231346  0.06057212  1
  Zn  Zn170  1  0.56382448  0.81023865  0.56722618  1
  O  O171  1  0.12135859  0.11687729  0.11947439  1
  O  O172  1  0.11986859  0.11547452  0.62010565  1
  O  O173  1  0.12736842  0.61359286  0.11486669  1
  O  O174  1  0.11182025  0.61125586  0.63064490  1
  O  O175  1  0.61442327  0.11877067  0.12320428  1
  O  O176  1  0.61962025  0.12134297  0.61903613  1
  O  O177  1  0.63190166  0.62149717  0.10807538  1
  O  O178  1  0.62108351  0.61545508  0.61612429  1
  O  O179  1  0.37419064  0.36547108  0.38818228  1
  O  O180  1  0.39308870  0.36549901  0.87590674  1
  O  O181  1  0.38377289  0.87327146  0.38352467  1
  O  O182  1  0.38321311  0.88103894  0.87474378  1
  O  O183  1  0.87919029  0.37922172  0.38268305  1
  O  O184  1  0.87976669  0.38206418  0.87912466  1
  O  O185  1  0.88335446  0.87957795  0.36046241  1
  O  O186  1  0.88600094  0.88372934  0.87568463  1
  O  O187  1  0.25161347  0.01292881  0.37684656  1
  O  O188  1  0.23921387  0.01777734  0.86015904  1
  O  O189  1  0.26010638  0.48775334  0.35570073  1
  O  O190  1  0.24728870  0.51142400  0.86907781  1
  O  O191  1  0.74912554  0.00809015  0.36498092  1
  O  O192  1  0.75820214  0.01037005  0.86761535  1
  O  O193  1  0.75722158  0.49167377  0.36510854  1
  O  O194  1  0.75451605  0.50392543  0.86725705  1
  O  O195  1  0.24531191  0.49194031  0.13032946  1
  O  O196  1  0.23351171  0.50580229  0.63608839  1
  O  O197  1  0.23793126  0.98944882  0.12983140  1
  O  O198  1  0.24061057  0.99239851  0.62424877  1
  O  O199  1  0.74798023  0.49057602  0.13304028  1
  O  O200  1  0.74552669  0.48987095  0.63246768  1
  O  O201  1  0.74475716  0.99731994  0.12933842  1
  O  O202  1  0.74750465  0.99544416  0.63032357  1
  O  O203  1  0.00392254  0.37013767  0.26065345  1
  O  O204  1  0.00601818  0.36893815  0.75920904  1
  O  O205  1  0.01674011  0.87570971  0.24660459  1
  O  O206  1  0.00667304  0.86244456  0.75294051  1
  O  O207  1  0.50713756  0.36547210  0.24529515  1
  O  O208  1  0.50124203  0.38050322  0.76217477  1
  O  O209  1  0.49837169  0.86556179  0.25836680  1
  O  O210  1  0.50635867  0.85785807  0.74418081  1
  O  O211  1  0.49149310  0.12970539  0.24235230  1
  O  O212  1  0.49460663  0.12476646  0.73604437  1
  O  O213  1  0.49316821  0.63530653  0.25000092  1
  O  O214  1  0.50509498  0.63070816  0.73673304  1
  O  O215  1  0.99502337  0.12964426  0.24485473  1
  O  O216  1  1.00633300  0.13301439  0.73612237  1
  O  O217  1  0.98417490  0.61917309  0.24709742  1
  O  O218  1  0.99604665  0.63473906  0.75497153  1
  O  O219  1  0.36005862  0.24999861  0.00138366  1
  O  O220  1  0.36832402  0.25643076  0.50454033  1
  O  O221  1  0.36720071  0.74724888  0.00842165  1
  O  O222  1  0.38548789  0.76154881  0.51201474  1
  O  O223  1  0.86234003  0.25677309  0.00370968  1
  O  O224  1  0.87765893  0.25558695  0.51283336  1
  O  O225  1  0.87038654  0.75188128  0.00874031  1
  O  O226  1  0.88364730  0.74324075  0.50166466  1
  O  O227  1  0.13066535  0.24741377  0.49806404  1
  O  O228  1  0.13444782  0.24274907  0.99911759  1
  O  O229  1  0.13010227  0.73129477  0.49984133  1
  O  O230  1  0.13132569  0.73892090  0.99626496  1
  O  O231  1  0.61910876  0.24454206  0.48610617  1
  O  O232  1  0.63513322  0.25047459  0.99788823  1
  O  O233  1  0.62294904  0.73428627  0.50132916  1
  O  O234  1  0.62602600  0.73433895  1.00206117  1
  O  O235  1  0.49834020  0.24243650  0.13645994  1
  O  O236  1  0.49026034  0.24016212  0.62005786  1
  O  O237  1  0.48938093  0.75502177  0.13512512  1
  O  O238  1  0.49432495  0.74026835  0.63124942  1
  O  O239  1  0.99443782  0.24542443  0.13247870  1
  O  O240  1  0.99392619  0.24233702  0.62917217  1
  O  O241  1  0.98523217  0.75334713  0.12682811  1
  O  O242  1  1.00367866  0.73304377  0.63133282  1
  O  O243  1  0.00422973  0.25561891  0.37148524  1
  O  O244  1  -0.00144560  0.25662252  0.86494060  1
  O  O245  1  -0.00064139  0.73605485  0.36587486  1
  O  O246  1  0.00473413  0.75768793  0.86641621  1
  O  O247  1  0.50860109  0.24131366  0.36157580  1
  O  O248  1  0.51404618  0.26007391  0.87757479  1
  O  O249  1  0.50440677  0.75570592  0.36773994  1
  O  O250  1  0.49536494  0.74325904  0.85705981  1
  O  O251  1  0.24519861  0.13180956  0.49383398  1
  O  O252  1  0.23958181  0.13281250  0.99249612  1
  O  O253  1  0.26223309  0.62657870  0.49401759  1
  O  O254  1  0.24477849  0.62988591  0.99113767  1
  O  O255  1  0.74438401  0.11894688  0.48790024  1
  O  O256  1  0.74852604  0.13581523  0.98634653  1
  O  O257  1  0.73856239  0.62236329  0.50662483  1
  O  O258  1  0.73769136  0.62514563  0.98833350  1
  O  O259  1  0.25024651  0.36883612  0.00353491  1
  O  O260  1  0.25504257  0.36370877  0.49428200  1
  O  O261  1  0.24351675  0.85358368  0.00914557  1
  O  O262  1  0.25968792  0.87721263  0.51253543  1
  O  O263  1  0.75318108  0.37011544  0.00586188  1
  O  O264  1  0.76185495  0.37362159  0.50969928  1
  O  O265  1  0.75378277  0.87615601  0.00973043  1
  O  O266  1  0.74852123  0.88127383  0.51447466  1
  O  O267  1  0.13477090  0.49118762  0.23745628  1
  O  O268  1  0.13123536  0.49221354  0.74610567  1
  O  O269  1  0.12774755  0.98992216  0.24237912  1
  O  O270  1  0.12241030  0.99244732  0.73533470  1
  O  O271  1  0.62930837  0.49401475  0.25047435  1
  O  O272  1  0.63362120  0.50441950  0.73660726  1
  O  O273  1  0.63593992  1.00177099  0.24026530  1
  O  O274  1  0.63905386  1.00550941  0.73644189  1
  O  O275  1  0.37223980  0.01054835  0.25266762  1
  O  O276  1  0.37364482  0.01516101  0.74533656  1
  O  O277  1  0.36801574  0.51044624  0.24469462  1
  O  O278  1  0.35725357  0.48988183  0.74053809  1
  O  O279  1  0.86312850  0.00926974  0.24715973  1
  O  O280  1  0.86678834  -0.00135989  0.75825538  1
  O  O281  1  0.86576073  0.50336027  0.25721779  1
  O  O282  1  0.86753583  0.50378359  0.76010638  1
  O  O283  1  0.11570835  0.37383466  0.37211159  1
  O  O284  1  0.11496641  0.37411824  0.86999863  1
  O  O285  1  0.12984274  0.87966288  0.36222553  1
  O  O286  1  0.12128858  0.86782512  0.86732509  1
  O  O287  1  0.63124274  0.36588586  0.36460640  1
  O  O288  1  0.61772802  0.36310035  0.87687610  1
  O  O289  1  0.61272268  0.87488466  0.37244006  1
  O  O290  1  0.62451005  0.87537894  0.86938837  1
  O  O291  1  0.37837998  0.12460005  0.13232540  1
  O  O292  1  0.38224458  0.13170732  0.62754161  1
  O  O293  1  0.37029247  0.63742500  0.13307980  1
  O  O294  1  0.38485549  0.63032762  0.61982246  1
  O  O295  1  0.87923789  0.13107449  0.12792488  1
  O  O296  1  0.88284104  0.13272307  0.62097394  1
  O  O297  1  0.86913116  0.63560751  0.12735201  1
  O  O298  1  0.88935722  0.61921356  0.63356222  1
  O  O299  1  0.24851403  0.25793682  0.11659357  1
  O  O300  1  0.25904048  0.24367038  0.61431358  1
  O  O301  1  0.25387549  0.75248468  0.11932404  1
  O  O302  1  0.25892586  0.75456094  0.63039697  1
  O  O303  1  0.75272153  0.25436486  0.11782175  1
  O  O304  1  0.75889744  0.25850718  0.63194787  1
  O  O305  1  0.75911923  0.75942050  0.12168765  1
  O  O306  1  0.75279140  0.76389032  0.62891456  1
  O  O307  1  0.24191229  0.24090108  0.38183931  1
  O  O308  1  0.24526369  0.24174785  0.88015474  1
  O  O309  1  0.24249795  0.74228792  0.37497253  1
  O  O310  1  0.24751679  0.74016753  0.88028643  1
  O  O311  1  0.73931235  0.23831555  0.36856161  1
  O  O312  1  0.74272054  0.24911757  0.87769259  1
  O  O313  1  0.74474131  0.74623346  0.36284472  1
  O  O314  1  0.75790131  0.73742087  0.87133449  1
  O  O315  1  0.01236434  0.13368569  0.00635524  1
  O  O316  1  0.00730406  0.11957650  0.51147156  1
  O  O317  1  0.01086398  0.62659506  -0.00843827  1
  O  O318  1  -0.00331564  0.61031673  0.51127784  1
  O  O319  1  0.49643385  0.13369883  0.01360574  1
  O  O320  1  0.50427086  0.11804888  0.50862524  1
  O  O321  1  0.51218898  0.61284079  -0.00899009  1
  O  O322  1  0.51012597  0.62083300  0.51211387  1
  O  O323  1  0.48748937  0.37220689  0.50131362  1
  O  O324  1  0.49883905  0.38495999  0.99405392  1
  O  O325  1  0.49657282  0.87841704  0.49542846  1
  O  O326  1  0.49385220  0.87665339  1.00368517  1
  O  O327  1  0.98629238  0.37069393  0.49233596  1
  O  O328  1  0.99240660  0.36624834  0.98705216  1
  O  O329  1  1.00690365  0.88354623  0.50338983  1
  O  O330  1  1.00310508  0.87075735  0.98584709  1
  O  O331  1  0.49006354  0.49757466  0.37954284  1
  O  O332  1  0.50756126  0.48495276  0.88330042  1
  O  O333  1  0.49836140  0.99226743  0.38131825  1
  O  O334  1  0.50020072  1.00753031  0.87522676  1
  O  O335  1  0.98706756  0.49192407  0.37485682  1
  O  O336  1  0.98920112  0.49059733  0.86924372  1
  O  O337  1  1.00325190  1.00687646  0.39292974  1
  O  O338  1  0.99325916  0.99125374  0.86542990  1
  O  O339  1  0.01126538  0.00514269  0.12828742  1
  O  O340  1  0.00439942  0.00392214  0.61823229  1
  O  O341  1  0.01251213  0.48918228  0.12573221  1
  O  O342  1  0.00985454  0.51023978  0.63530298  1
  O  O343  1  0.50903357  0.00842940  0.13200489  1
  O  O344  1  0.51011263  0.00416276  0.62235365  1
  O  O345  1  0.50315957  0.49500558  0.10978361  1
  O  O346  1  0.50871343  0.50294906  0.62141795  1
  O  O347  1  0.24398330  0.37603289  0.24026984  1
  O  O348  1  0.23570484  0.37974511  0.75947178  1
  O  O349  1  0.24165225  0.87466144  0.24383404  1
  O  O350  1  0.24553222  0.87495466  0.73896561  1
  O  O351  1  0.74223924  0.38138046  0.24455008  1
  O  O352  1  0.75526027  0.38589540  0.74117978  1
  O  O353  1  0.74700589  0.88629087  0.23545615  1
  O  O354  1  0.75010183  0.88538683  0.74101385  1
  O  O355  1  0.25686967  0.12581541  0.25815980  1
  O  O356  1  0.25631376  0.12751986  0.75475109  1
  O  O357  1  0.25767625  0.61526762  0.24427004  1
  O  O358  1  0.24538640  0.61652688  0.76417049  1
  O  O359  1  0.75326311  0.12055941  0.25593813  1
  O  O360  1  0.75052799  0.11941513  0.76026947  1
  O  O361  1  0.75516792  0.61112552  0.24273626  1
  O  O362  1  0.75494123  0.61503741  0.75369351  1
  O  O363  1  0.36712682  0.12493869  0.36920193  1
  O  O364  1  0.36650374  0.12657158  0.86558230  1
  O  O365  1  0.37787668  0.62749725  0.36213763  1
  O  O366  1  0.36069685  0.62606235  0.87799336  1
  O  O367  1  0.86695086  0.12287102  0.37005768  1
  O  O368  1  0.86845320  0.12008659  0.87582699  1
  O  O369  1  0.87155358  0.61209063  0.36730179  1
  O  O370  1  0.86745373  0.61758932  0.87018710  1
  O  O371  1  0.13382351  0.38009508  0.12656134  1
  O  O372  1  0.11540945  0.38725903  0.63677211  1
  O  O373  1  0.13292249  0.87980775  0.12657448  1
  O  O374  1  0.13265561  0.87709065  0.62786194  1
  O  O375  1  0.63064610  0.37429223  0.13868425  1
  O  O376  1  0.63658909  0.37953317  0.61859275  1
  O  O377  1  0.63310021  0.88299000  0.12569372  1
  O  O378  1  0.63571526  0.88276222  0.62800794  1
  O  O379  1  0.11939592  0.25691372  0.25601773  1
  O  O380  1  0.11347529  0.25881387  0.74776775  1
  O  O381  1  0.12298796  0.76491459  0.24205163  1
  O  O382  1  0.11960393  0.75135179  0.75434801  1
  O  O383  1  0.61750931  0.25584879  0.25790371  1
  O  O384  1  0.62750123  0.25265218  0.75872113  1
  O  O385  1  0.61546682  0.75076877  0.24829913  1
  O  O386  1  0.61217848  0.74643428  0.74342552  1
  O  O387  1  0.38076532  0.23942113  0.24873745  1
  O  O388  1  0.37049534  0.23890708  0.73976488  1
  O  O389  1  0.38019117  0.74394536  0.24421843  1
  O  O390  1  0.38589114  0.75093319  0.73686862  1
  O  O391  1  0.87835353  0.24553014  0.24542121  1
  O  O392  1  0.88804182  0.25684268  0.73781832  1
  O  O393  1  0.87442960  0.73955537  0.23480855  1
  O  O394  1  0.88491156  0.74378881  0.74334559  1
  O  O395  1  0.37053437  0.47842624  0.50273032  1
  O  O396  1  0.39046691  0.50197274  1.00155371  1
  O  O397  1  0.38284719  0.98703731  0.50172121  1
  O  O398  1  0.33186292  0.98607635  0.98604279  1
  O  O399  1  0.86839118  0.49050010  0.49130100  1
  O  O400  1  0.86784449  0.49518499  0.98812460  1
  O  O401  1  0.89244752  1.00161715  0.49851596  1
  O  O402  1  0.87394176  0.99979135  0.98572418  1
  O  O403  1  0.13195121  0.01009717  0.00850120  1
  O  O404  1  0.11688867  0.00208118  0.50960796  1
  O  O405  1  0.12817696  0.50785493  0.00946082  1
  O  O406  1  0.12703830  0.48912242  0.51894601  1
  O  O407  1  0.63460332  0.00836516  0.01212614  1
  O  O408  1  0.62102305  0.00567688  0.51026809  1
  O  O409  1  0.61574913  0.50700786  0.00325468  1
  O  O410  1  0.62728387  0.50537962  0.51110805  1
  O  O411  1  0.36180669  0.37259473  0.12145614  1
  O  O412  1  0.37726166  0.36061435  0.61480673  1
  O  O413  1  0.36025414  0.86626983  0.12696741  1
  O  O414  1  0.36860075  0.86780620  0.62140227  1
  O  O415  1  0.86901606  0.36924841  0.12151860  1
  O  O416  1  0.87059400  0.37005955  0.61876849  1
  O  O417  1  0.86992347  0.86633577  0.12317295  1
  O  O418  1  0.86290446  0.87461480  0.62657340  1
  O  O419  1  0.13110714  0.13083563  0.38061068  1
  O  O420  1  0.12755217  0.12864302  0.88165260  1
  O  O421  1  0.13719152  0.60724096  0.38852477  1
  O  O422  1  0.13252655  0.63025428  0.88253662  1
  O  O423  1  0.63107397  0.13012931  0.37806769  1
  O  O424  1  0.63241879  0.14156538  0.87369983  1
  O  O425  1  0.62083006  0.62191525  0.39373960  1
  O  O426  1  0.63378020  0.61796873  0.88339992  1
