# generated using pymatgen
data_V85Zn86O256
_symmetry_space_group_name_H-M   'P 1'
_cell_length_a   16.97537897
_cell_length_b   16.96531806
_cell_length_c   16.95757029
_cell_angle_alpha   90.00245206
_cell_angle_beta   90.09631977
_cell_angle_gamma   90.08302060
_symmetry_Int_Tables_number   1
_chemical_formula_structural   V85Zn86O256
_chemical_formula_sum   'V85 Zn86 O256'
_cell_volume   4883.64447784
_cell_formula_units_Z   1
loop_
 _symmetry_equiv_pos_site_id
 _symmetry_equiv_pos_as_xyz
  1  'x, y, z'
loop_
 _atom_site_type_symbol
 _atom_site_label
 _atom_site_symmetry_multiplicity
 _atom_site_fract_x
 _atom_site_fract_y
 _atom_site_fract_z
 _atom_site_occupancy
  V  V0  1  0.62602830  0.12648514  0.50006095  1
  V  V1  1  0.23131862  0.49418779  0.23844380  1
  V  V2  1  0.62711726  0.25717434  0.37107786  1
  V  V3  1  0.74745230  0.62600129  0.37433834  1
  V  V4  1  0.25446345  0.36996943  0.12320042  1
  V  V5  1  0.75000709  0.75700992  0.50586177  1
  V  V6  1  0.87798191  0.12722474  0.24978869  1
  V  V7  1  0.12578563  0.61642096  0.00051502  1
  V  V8  1  0.49005647  0.75099936  0.24280964  1
  V  V9  1  0.50225072  -0.00047069  0.49624273  1
  V  V10  1  0.24668802  0.62397308  0.36949066  1
  V  V11  1  0.24923602  0.00279825  0.74912279  1
  V  V12  1  0.44327378  0.69266795  0.79926205  1
  V  V13  1  -0.00331195  0.87681720  0.37394489  1
  V  V14  1  -0.00451397  0.63273609  0.62471186  1
  V  V15  1  0.24937515  0.74920558  0.01194772  1
  V  V16  1  0.74536656  0.36621071  0.12302079  1
  V  V17  1  0.62793349  0.36879628  0.74982649  1
  V  V18  1  0.37599435  0.87384494  0.01019017  1
  V  V19  1  -0.00132250  0.26121968  0.25199514  1
  V  V20  1  0.75414893  0.85824114  0.12456487  1
  V  V21  1  0.13836362  0.00360930  0.13059502  1
  V  V22  1  0.49753848  0.50048848  0.49687479  1
  V  V23  1  0.37700980  0.24987355  0.62111750  1
  V  V24  1  0.25043232  0.37763027  0.63526426  1
  V  V25  1  0.35918528  0.00581118  0.37159097  1
  V  V26  1  0.38007307  0.75190419  0.62165967  1
  V  V27  1  0.00478063  0.50235399  0.50277547  1
  V  V28  1  0.12629823  0.24470138  0.37231132  1
  V  V29  1  0.75314389  0.62502406  0.88384669  1
  V  V30  1  0.49722397  0.49120798  0.00059859  1
  V  V31  1  0.49924642  0.87683908  0.86407986  1
  V  V32  1  0.74950423  0.12771439  0.37386649  1
  V  V33  1  0.49914425  0.87699787  0.37241417  1
  V  V34  1  0.12456702  0.88012812  0.75058982  1
  V  V35  1  0.24932858  0.87620380  0.62215325  1
  V  V36  1  0.00285576  0.00725846  0.49733995  1
  V  V37  1  0.63860345  -0.00379641  0.62784662  1
  V  V38  1  0.37776470  0.12496609  0.74781251  1
  V  V39  1  0.75121128  0.25627163  0.50959613  1
  V  V40  1  0.25197255  0.12583762  0.87579608  1
  V  V41  1  0.13158899  0.88120905  0.25096422  1
  V  V42  1  0.14709707  0.52257624  0.65296291  1
  V  V43  1  0.62117029  0.75077327  0.37365775  1
  V  V44  1  0.87110138  0.37980464  0.50739237  1
  V  V45  1  0.49689770  0.24993811  0.24676230  1
  V  V46  1  0.00141702  0.61502145  0.12271772  1
  V  V47  1  0.49662713  0.62519201  0.62317467  1
  V  V48  1  0.62287382  0.87932812  0.24119456  1
  V  V49  1  0.64268645  0.87275190  0.74646554  1
  V  V50  1  0.24333036  0.23858997  0.49667503  1
  V  V51  1  0.10341344  0.36829024  0.74944261  1
  V  V52  1  0.74625906  0.00194517  0.23809899  1
  V  V53  1  0.62723120  0.49688713  0.13086871  1
  V  V54  1  0.12193011  0.75183659  0.37293832  1
  V  V55  1  0.27210646  0.25262220  0.00157587  1
  V  V56  1  0.88279665  0.49304501  0.87876236  1
  V  V57  1  0.13136930  0.74869761  0.87800515  1
  V  V58  1  0.36923511  0.37825296  0.49663212  1
  V  V59  1  0.87496689  0.24761875  0.11488963  1
  V  V60  1  0.49271599  0.62300401  0.12524808  1
  V  V61  1  0.87509411  0.50055072  0.37426622  1
  V  V62  1  0.86515746  -0.00190202  0.86985131  1
  V  V63  1  -0.00635907  0.13410622  0.62717891  1
  V  V64  1  0.12386924  0.01144401  0.62242100  1
  V  V65  1  0.87418364  0.86192496  0.00615678  1
  V  V66  1  0.37870852  -0.00120499  0.87537824  1
  V  V67  1  0.62800859  0.49560433  0.62406208  1
  V  V68  1  0.62992433  0.24855974  0.89536477  1
  V  V69  1  0.50085816  0.37624177  0.36757480  1
  V  V70  1  0.00131600  -0.00221804  0.00602053  1
  V  V71  1  0.50811216  -0.00123314  0.00571982  1
  V  V72  1  0.35872716  0.12909267  0.24850709  1
  V  V73  1  0.37076169  0.50219866  0.36649923  1
  V  V74  1  -0.00532406  0.75305014  0.24051576  1
  V  V75  1  0.87370469  0.00088769  0.37356754  1
  V  V76  1  0.00405242  0.87818488  0.87697871  1
  V  V77  1  0.63049721  0.74830234  0.87713548  1
  V  V78  1  0.12710661  0.12916383  0.00157950  1
  V  V79  1  0.49101007  0.37337935  0.87652335  1
  V  V80  1  0.50279527  0.12428497  0.62352256  1
  V  V81  1  0.87030889  0.62858425  0.24004103  1
  V  V82  1  0.50376266  0.12222654  0.12997658  1
  V  V83  1  0.12797236  0.62589809  0.49475118  1
  V  V84  1  0.75114154  0.49905478  0.74967252  1
  Zn  Zn85  1  0.74503559  0.49210791  0.25268596  1
  Zn  Zn86  1  0.87031938  0.88061843  0.50715698  1
  Zn  Zn87  1  0.36623557  0.62870628  0.23823079  1
  Zn  Zn88  1  0.86544887  0.75943851  0.63571268  1
  Zn  Zn89  1  0.62844625  0.62775005  0.00438610  1
  Zn  Zn90  1  0.74768856  0.12563557  0.87738513  1
  Zn  Zn91  1  -0.00148404  0.75204889  0.75100242  1
  Zn  Zn92  1  0.86610826  0.12919265  0.75081966  1
  Zn  Zn93  1  0.50446146  0.24760391  0.74979493  1
  Zn  Zn94  1  0.25003757  0.75046864  0.49788668  1
  Zn  Zn95  1  0.00431649  0.12477030  0.13017147  1
  Zn  Zn96  1  0.34652668  0.49589044  0.84880193  1
  Zn  Zn97  1  0.88189380  0.36670086  -0.00369944  1
  Zn  Zn98  1  0.00852608  0.38006590  0.37461064  1
  Zn  Zn99  1  0.63772433  0.11850119  0.01790112  1
  Zn  Zn100  1  0.62377982  0.62614228  0.50044624  1
  Zn  Zn101  1  0.87488173  0.62738850  0.75112406  1
  Zn  Zn102  1  0.11564047  0.26106668  0.87730217  1
  Zn  Zn103  1  0.87954810  0.26495633  0.63772782  1
  Zn  Zn104  1  0.00576900  0.48577150  0.00147393  1
  Zn  Zn105  1  0.25693469  0.87679310  0.13302150  1
  Zn  Zn106  1  0.37510197  0.87557338  0.49673178  1
  Zn  Zn107  1  0.18218705  0.21143462  0.17693169  1
  Zn  Zn108  1  0.18719586  0.19018036  0.68462535  1
  Zn  Zn109  1  0.18276912  0.68724834  0.18483491  1
  Zn  Zn110  1  0.18349758  0.69680807  0.68586989  1
  Zn  Zn111  1  0.68635058  0.19214966  0.19030728  1
  Zn  Zn112  1  0.69631027  0.18183377  0.69394741  1
  Zn  Zn113  1  0.67927430  0.68484463  0.19045427  1
  Zn  Zn114  1  0.68222486  0.68454869  0.69277739  1
  Zn  Zn115  1  0.30833324  0.31260929  0.31114948  1
  Zn  Zn116  1  0.31202090  0.30558307  0.81244807  1
  Zn  Zn117  1  0.31215885  0.81376961  0.31472839  1
  Zn  Zn118  1  0.30648807  0.81765042  0.81794549  1
  Zn  Zn119  1  0.81328636  0.31635595  0.31147147  1
  Zn  Zn120  1  0.81048912  0.31198237  0.81031176  1
  Zn  Zn121  1  0.81061794  0.81280489  0.31326293  1
  Zn  Zn122  1  0.81673333  0.80992166  0.81843777  1
  Zn  Zn123  1  0.18723433  0.43455969  0.43525075  1
  Zn  Zn124  1  0.18664196  0.43244076  0.93126210  1
  Zn  Zn125  1  0.18320023  0.93835165  0.44082667  1
  Zn  Zn126  1  0.19045390  0.94040350  0.94163865  1
  Zn  Zn127  1  0.68672202  0.43866519  0.43859610  1
  Zn  Zn128  1  0.68879454  0.43537663  0.94196413  1
  Zn  Zn129  1  0.68618773  0.93846309  0.43149163  1
  Zn  Zn130  1  0.68810194  0.93044171  0.94287658  1
  Zn  Zn131  1  0.31911312  0.06514279  0.06433955  1
  Zn  Zn132  1  0.31548749  0.06063280  0.56013927  1
  Zn  Zn133  1  0.29322393  0.53896369  0.03002679  1
  Zn  Zn134  1  0.31510520  0.56067620  0.67565785  1
  Zn  Zn135  1  0.81568391  0.06012675  0.05753415  1
  Zn  Zn136  1  0.81478192  0.06547460  0.55871021  1
  Zn  Zn137  1  0.81093948  0.55768590  0.06140697  1
  Zn  Zn138  1  0.81090247  0.56752354  0.56207441  1
  Zn  Zn139  1  0.43163928  0.43632675  0.18387015  1
  Zn  Zn140  1  0.44311151  0.43372412  0.68816997  1
  Zn  Zn141  1  0.43574495  0.94608564  0.19053268  1
  Zn  Zn142  1  0.43937445  0.93946539  0.68411781  1
  Zn  Zn143  1  0.92930186  0.43636758  0.18597248  1
  Zn  Zn144  1  0.93986095  0.44792660  0.68643741  1
  Zn  Zn145  1  0.93718185  0.93805178  0.18577009  1
  Zn  Zn146  1  0.93667053  0.93687165  0.68649445  1
  Zn  Zn147  1  0.06755392  0.06943629  0.31479919  1
  Zn  Zn148  1  0.04953785  0.08850523  0.82548480  1
  Zn  Zn149  1  0.05708537  0.56370069  0.30981759  1
  Zn  Zn150  1  0.06394868  0.56709388  0.81401587  1
  Zn  Zn151  1  0.56307003  0.06509977  0.31169341  1
  Zn  Zn152  1  0.56950133  0.06190111  0.80996298  1
  Zn  Zn153  1  0.56125112  0.56371583  0.30830809  1
  Zn  Zn154  1  0.56763075  0.55545707  0.81728927  1
  Zn  Zn155  1  0.43498064  0.18754197  0.43362555  1
  Zn  Zn156  1  0.44825656  0.18284711  0.93548188  1
  Zn  Zn157  1  0.43373012  0.68676606  0.43685056  1
  Zn  Zn158  1  0.43417356  0.68351163  0.96603611  1
  Zn  Zn159  1  0.93913135  0.19101881  0.43998348  1
  Zn  Zn160  1  0.94298849  0.18353680  0.93605260  1
  Zn  Zn161  1  0.93407198  0.68880244  0.43491040  1
  Zn  Zn162  1  0.94143916  0.68508478  0.93486847  1
  Zn  Zn163  1  0.06610743  0.31580615  0.06849793  1
  Zn  Zn164  1  0.06730411  0.31981777  0.56264732  1
  Zn  Zn165  1  0.06521014  0.81217948  0.06610338  1
  Zn  Zn166  1  0.05901088  0.81790882  0.55997100  1
  Zn  Zn167  1  0.55933904  0.31361526  0.06830689  1
  Zn  Zn168  1  0.56145549  0.31484417  0.55928418  1
  Zn  Zn169  1  0.56221753  0.81286568  0.06210123  1
  Zn  Zn170  1  0.56423729  0.81338768  0.56322658  1
  O  O171  1  0.12753810  0.12082625  0.11908166  1
  O  O172  1  0.11654522  0.11663416  0.62733434  1
  O  O173  1  0.11129376  0.62926752  0.11538725  1
  O  O174  1  0.11558618  0.62583194  0.60952885  1
  O  O175  1  0.61032867  0.12844622  0.13219135  1
  O  O176  1  0.62018833  0.11676854  0.61927351  1
  O  O177  1  0.61691234  0.61513429  0.12426402  1
  O  O178  1  0.61164017  0.61799473  0.62506009  1
  O  O179  1  0.37824407  0.38088514  0.37851304  1
  O  O180  1  0.38869402  0.37543824  0.86507255  1
  O  O181  1  0.38032292  0.88950699  0.37310771  1
  O  O182  1  0.38283009  0.87960456  0.88274478  1
  O  O183  1  0.87586505  0.38966555  0.38312392  1
  O  O184  1  0.86662591  0.38997033  0.87757818  1
  O  O185  1  0.88034858  0.88463314  0.37401712  1
  O  O186  1  0.88595719  0.88185071  0.88324733  1
  O  O187  1  0.26135033  -0.00081107  0.38165712  1
  O  O188  1  0.26221801  0.00226151  0.86974036  1
  O  O189  1  0.25337572  0.50391968  0.36380959  1
  O  O190  1  0.26619685  0.50869876  0.91921632  1
  O  O191  1  0.75600581  0.00688186  0.36655207  1
  O  O192  1  0.76518094  -0.01238824  0.87852139  1
  O  O193  1  0.75470490  0.50859351  0.37381337  1
  O  O194  1  0.75497363  0.50632436  0.86973604  1
  O  O195  1  0.24562954  0.48802109  0.13109571  1
  O  O196  1  0.24404947  0.48841202  0.61172717  1
  O  O197  1  0.24105990  0.99913323  0.12245636  1
  O  O198  1  0.24370366  0.99595979  0.62640048  1
  O  O199  1  0.74312703  0.49195687  0.12863135  1
  O  O200  1  0.73755773  0.51018394  0.63273682  1
  O  O201  1  0.75495610  0.99299064  0.13706812  1
  O  O202  1  0.73698879  1.00217406  0.61439946  1
  O  O203  1  -0.00823716  0.36447442  0.25334720  1
  O  O204  1  0.00500341  0.36878201  0.73996148  1
  O  O205  1  0.00450209  0.86918426  0.25452439  1
  O  O206  1  0.00908363  0.87729565  0.76134381  1
  O  O207  1  0.49053383  0.36705834  0.26105764  1
  O  O208  1  0.51163100  0.37261609  0.75921508  1
  O  O209  1  0.50504327  0.87152521  0.25019830  1
  O  O210  1  0.49937740  0.87838916  0.76195390  1
  O  O211  1  0.49353283  0.13168428  0.24792470  1
  O  O212  1  0.49611741  0.12467844  0.74177268  1
  O  O213  1  0.49634746  0.63473961  0.24289773  1
  O  O214  1  0.50610587  0.63004117  0.74574447  1
  O  O215  1  0.98913908  0.13210632  0.25157857  1
  O  O216  1  0.99303383  0.11567927  0.72774326  1
  O  O217  1  0.99141867  0.63255603  0.24257527  1
  O  O218  1  1.00196101  0.62968826  0.73787720  1
  O  O219  1  0.36941621  0.25018765  -0.01386702  1
  O  O220  1  0.36629068  0.25736168  0.49960881  1
  O  O221  1  0.36304629  0.76139261  -0.00138677  1
  O  O222  1  0.37046844  0.75444163  0.50764916  1
  O  O223  1  0.88074793  0.24212181  0.01184847  1
  O  O224  1  0.86743307  0.26312942  0.49990811  1
  O  O225  1  0.88189967  0.76340289  -0.00545366  1
  O  O226  1  0.85706414  0.75136025  0.49507042  1
  O  O227  1  0.13899681  0.25323340  0.49859471  1
  O  O228  1  0.13174248  0.23412224  0.99858539  1
  O  O229  1  0.12302927  0.74498273  0.48980293  1
  O  O230  1  0.13128194  0.74726472  0.99535277  1
  O  O231  1  0.63173027  0.24880798  0.49113860  1
  O  O232  1  0.62035679  0.24448683  0.99663126  1
  O  O233  1  0.63220456  0.74897033  0.49240342  1
  O  O234  1  0.61590633  0.75094644  0.98132001  1
  O  O235  1  0.50051256  0.24592563  0.14096968  1
  O  O236  1  0.49380412  0.24353236  0.62204142  1
  O  O237  1  0.50578741  0.73906153  0.13198241  1
  O  O238  1  0.48852889  0.74511845  0.62115304  1
  O  O239  1  0.99159108  0.24552542  0.13664986  1
  O  O240  1  1.00071962  0.23662281  0.61286928  1
  O  O241  1  1.00085258  0.74410190  0.13727708  1
  O  O242  1  1.00218281  0.74051771  0.62260938  1
  O  O243  1  0.00666594  0.25437899  0.37085226  1
  O  O244  1  0.02631095  0.19599535  0.86557965  1
  O  O245  1  0.00353926  0.75599479  0.36691364  1
  O  O246  1  0.01154200  0.76481606  0.87779416  1
  O  O247  1  0.50621838  0.25751456  0.36988246  1
  O  O248  1  0.51141124  0.25793159  0.87244521  1
  O  O249  1  0.50178076  0.75700885  0.36838173  1
  O  O250  1  0.49959231  0.75289480  0.86715903  1
  O  O251  1  0.25508539  0.14077501  0.50417599  1
  O  O252  1  0.25224242  0.13244309  0.99407743  1
  O  O253  1  0.23228005  0.62813065  0.49050891  1
  O  O254  1  0.23678268  0.63838342  1.01313473  1
  O  O255  1  0.74545295  0.13480328  0.49147210  1
  O  O256  1  0.74547314  0.11379365  0.99138638  1
  O  O257  1  0.74667489  0.63332982  0.48724871  1
  O  O258  1  0.74663566  0.62019284  0.98853533  1
  O  O259  1  0.24481178  0.35676133  0.00478318  1
  O  O260  1  0.25989457  0.36908006  0.50458204  1
  O  O261  1  0.26007745  0.87069416  0.00375035  1
  O  O262  1  0.25024006  0.87403279  0.51185494  1
  O  O263  1  0.75759325  0.37886105  0.01818269  1
  O  O264  1  0.75900782  0.36870064  0.49476314  1
  O  O265  1  0.75981545  0.87583443  0.01352364  1
  O  O266  1  0.74722161  0.86008786  0.49181130  1
  O  O267  1  0.13354297  0.49948802  0.25133509  1
  O  O268  1  0.11274889  0.48601031  0.74716451  1
  O  O269  1  0.11768006  0.99391887  0.24290582  1
  O  O270  1  0.13276566  0.99742266  0.74068597  1
  O  O271  1  0.62518012  0.50122500  0.23688243  1
  O  O272  1  0.62994670  0.49063013  0.74384728  1
  O  O273  1  0.63426081  0.99149956  0.25585537  1
  O  O274  1  0.62074310  0.98414491  0.74115933  1
  O  O275  1  0.37357589  0.01214266  0.26339165  1
  O  O276  1  0.36945047  0.00613590  0.75266467  1
  O  O277  1  0.36998615  0.50398764  0.25842072  1
  O  O278  1  0.38193361  0.50633188  0.74654119  1
  O  O279  1  0.86943190  0.00860111  0.25454963  1
  O  O280  1  0.88304133  -0.00275835  0.76909301  1
  O  O281  1  0.87272580  0.50990276  0.25933271  1
  O  O282  1  0.86713440  0.50320061  0.75839641  1
  O  O283  1  0.12175201  0.35668352  0.38387412  1
  O  O284  1  0.12491204  0.37455042  0.85518776  1
  O  O285  1  0.11720117  0.87305865  0.36855814  1
  O  O286  1  0.12105300  0.87416431  0.87274357  1
  O  O287  1  0.61303870  0.36924307  0.38028642  1
  O  O288  1  0.61931117  0.36435816  0.87081138  1
  O  O289  1  0.61770146  0.87118883  0.36262775  1
  O  O290  1  0.61886841  0.86968383  0.86522287  1
  O  O291  1  0.38542527  0.11828079  0.14317092  1
  O  O292  1  0.38274657  0.12849949  0.62752377  1
  O  O293  1  0.39131532  0.61876265  0.12125277  1
  O  O294  1  0.38811087  0.63571109  0.62632255  1
  O  O295  1  0.87527336  0.12963615  0.13566867  1
  O  O296  1  0.88618374  0.12750014  0.62223839  1
  O  O297  1  0.87645665  0.62197455  0.13615227  1
  O  O298  1  0.88294684  0.63054807  0.62622796  1
  O  O299  1  0.26799992  0.24356445  0.10556928  1
  O  O300  1  0.25535217  0.25774538  0.61321067  1
  O  O301  1  0.24379037  0.75882692  0.11668187  1
  O  O302  1  0.26061745  0.75945555  0.62496505  1
  O  O303  1  0.75755185  0.25801254  0.12899270  1
  O  O304  1  0.74979424  0.24681621  0.61093460  1
  O  O305  1  0.74696756  0.75925727  0.13482929  1
  O  O306  1  0.74547455  0.74041418  0.60827941  1
  O  O307  1  0.24003565  0.25246923  0.38587580  1
  O  O308  1  0.24437368  0.24029967  0.88230823  1
  O  O309  1  0.24167909  0.74271722  0.37355297  1
  O  O310  1  0.23727510  0.75766372  0.88696733  1
  O  O311  1  0.74256761  0.24851401  0.37835698  1
  O  O312  1  0.73088762  0.25459968  0.87748712  1
  O  O313  1  0.74136533  0.74357584  0.37942025  1
  O  O314  1  0.74187015  0.73931400  0.87198992  1
  O  O315  1  0.01188815  0.11317576  0.00806499  1
  O  O316  1  -0.00582899  0.11357061  0.50784335  1
  O  O317  1  0.00622926  0.62473899  0.00924294  1
  O  O318  1  0.00390641  0.61903908  0.50146586  1
  O  O319  1  0.50204958  0.11587088  0.01229665  1
  O  O320  1  0.50657304  0.11909649  0.50122392  1
  O  O321  1  0.50864311  0.61152944  0.00777142  1
  O  O322  1  0.50037482  0.61903052  0.50655587  1
  O  O323  1  0.48805633  0.37768618  0.48855200  1
  O  O324  1  0.50587783  0.38261512  0.99326983  1
  O  O325  1  0.49951550  0.88350383  0.49286896  1
  O  O326  1  0.49344951  0.87946868  0.99243082  1
  O  O327  1  0.99482780  0.39040191  0.50126778  1
  O  O328  1  0.99791554  0.37284250  1.00407895  1
  O  O329  1  0.99889857  0.88801408  0.48937625  1
  O  O330  1  0.99828853  0.88037075  0.99756423  1
  O  O331  1  0.49284315  0.49410196  0.37454569  1
  O  O332  1  0.50609380  0.49054147  0.88971332  1
  O  O333  1  0.49778597  0.99704713  0.38367050  1
  O  O334  1  0.49703782  0.99340686  0.88029699  1
  O  O335  1  0.99145059  0.50167792  0.38242431  1
  O  O336  1  0.98407108  0.50498139  0.87326438  1
  O  O337  1  0.99485023  0.99893881  0.37948070  1
  O  O338  1  1.00194317  0.99196236  0.88800854  1
  O  O339  1  0.00826556  0.00062690  0.11708875  1
  O  O340  1  0.00721343  0.00694525  0.61546027  1
  O  O341  1  -0.00668916  0.51164069  0.12533788  1
  O  O342  1  0.01073120  0.51508585  0.61847599  1
  O  O343  1  0.49881469  0.00845067  0.11797857  1
  O  O344  1  0.50513030  0.00369476  0.61081338  1
  O  O345  1  0.50808441  0.50040380  0.12127950  1
  O  O346  1  0.50469896  0.50776936  0.61704468  1
  O  O347  1  0.25174977  0.38998580  0.24700939  1
  O  O348  1  0.25495730  0.37366764  0.73687405  1
  O  O349  1  0.23569148  0.87329765  0.25181290  1
  O  O350  1  0.24658189  0.88247901  0.73942418  1
  O  O351  1  0.75828364  0.37755521  0.23242256  1
  O  O352  1  0.74092876  0.39005677  0.75398106  1
  O  O353  1  0.74275487  0.88226004  0.24558306  1
  O  O354  1  0.74057812  0.87290018  0.75295278  1
  O  O355  1  0.26144945  0.13766459  0.24259161  1
  O  O356  1  0.25511098  0.12262410  0.75637082  1
  O  O357  1  0.24813719  0.61229645  0.24770421  1
  O  O358  1  0.21304548  0.59259948  0.71527894  1
  O  O359  1  0.75586274  0.11938368  0.25415796  1
  O  O360  1  0.75109303  0.11693534  0.76299691  1
  O  O361  1  0.75482061  0.62599714  0.26029986  1
  O  O362  1  0.74729188  0.61337342  0.76019344  1
  O  O363  1  0.37602908  0.11323655  0.36559410  1
  O  O364  1  0.36942430  0.11977077  0.86919949  1
  O  O365  1  0.36451962  0.61744967  0.37201934  1
  O  O366  1  0.39193813  0.63706805  0.86463439  1
  O  O367  1  0.86943013  0.12291200  0.36685406  1
  O  O368  1  0.87556496  0.10432708  0.88025941  1
  O  O369  1  0.86714583  0.61662227  0.36886036  1
  O  O370  1  0.86809960  0.61648976  0.87362599  1
  O  O371  1  0.15341318  0.33396814  0.13856212  1
  O  O372  1  0.13294854  0.38786899  0.63533638  1
  O  O373  1  0.12548659  0.88571049  0.13540019  1
  O  O374  1  0.13189197  0.88281249  0.62933292  1
  O  O375  1  0.63763545  0.37792903  0.12476325  1
  O  O376  1  0.61634294  0.38852277  0.63178272  1
  O  O377  1  0.63143171  0.87154841  0.13582742  1
  O  O378  1  0.62176874  0.87947818  0.63896976  1
  O  O379  1  0.11333721  0.24186007  0.26468358  1
  O  O380  1  0.12943832  0.26766978  0.74391475  1
  O  O381  1  0.11512643  0.75874702  0.25471068  1
  O  O382  1  0.12508476  0.76168179  0.76013633  1
  O  O383  1  0.61530752  0.24757206  0.26484556  1
  O  O384  1  0.62636609  0.26329569  0.74222198  1
  O  O385  1  0.61279986  0.75828010  0.25624566  1
  O  O386  1  0.62572839  0.76418262  0.75802667  1
  O  O387  1  0.38271028  0.23550778  0.26374415  1
  O  O388  1  0.37820362  0.24165482  0.74025012  1
  O  O389  1  0.38590044  0.75033240  0.25207175  1
  O  O390  1  0.37418968  0.74989750  0.74646779  1
  O  O391  1  0.88068609  0.24252388  0.24665159  1
  O  O392  1  0.86888957  0.24482060  0.74711555  1
  O  O393  1  0.88296837  0.73987027  0.25906537  1
  O  O394  1  0.88042483  0.74555247  0.75143690  1
  O  O395  1  0.38126700  0.49039702  0.48244735  1
  O  O396  1  0.39865610  0.49641823  1.01017598  1
  O  O397  1  0.38327485  1.00041917  0.48787768  1
  O  O398  1  0.38524565  0.99425535  0.99425033  1
  O  O399  1  0.88061433  0.49935723  0.49423087  1
  O  O400  1  0.87854713  0.50055068  0.98630729  1
  O  O401  1  0.88071387  1.00040619  0.48845122  1
  O  O402  1  0.88779183  0.98848692  0.99528710  1
  O  O403  1  0.12198658  0.00538117  0.01180439  1
  O  O404  1  0.11576530  -0.00137740  0.50990398  1
  O  O405  1  0.12124252  0.51312607  -0.00767733  1
  O  O406  1  0.11678950  0.50945963  0.49674176  1
  O  O407  1  0.61096612  -0.00275313  -0.00467368  1
  O  O408  1  0.61858571  0.00369914  0.50330234  1
  O  O409  1  0.61789538  0.49883649  0.01321412  1
  O  O410  1  0.61747052  0.50182277  0.50747375  1
  O  O411  1  0.35678910  0.37013601  0.13136765  1
  O  O412  1  0.37116905  0.37026180  0.61487874  1
  O  O413  1  0.37606169  0.88264994  0.11455890  1
  O  O414  1  0.36820725  0.86983783  0.62287017  1
  O  O415  1  0.86710983  0.36311199  0.12184090  1
  O  O416  1  0.87868445  0.38187497  0.61165450  1
  O  O417  1  0.86686473  0.87508827  0.11930538  1
  O  O418  1  0.88117684  0.87010369  0.61901219  1
  O  O419  1  0.11865866  0.14380358  0.38565723  1
  O  O420  1  0.14834023  0.10196835  0.88879658  1
  O  O421  1  0.12579425  0.63160601  0.37610570  1
  O  O422  1  0.11770710  0.63918413  0.88542077  1
  O  O423  1  0.62957160  0.13425887  0.38167542  1
  O  O424  1  0.61856816  0.14341508  0.87529140  1
  O  O425  1  0.63126681  0.63064755  0.37445356  1
  O  O426  1  0.63272314  0.63258326  0.87519769  1
