# generated using pymatgen
data_V85Zn86O256
_symmetry_space_group_name_H-M   'P 1'
_cell_length_a   16.96688759
_cell_length_b   16.97306411
_cell_length_c   16.98278906
_cell_angle_alpha   89.92153402
_cell_angle_beta   89.88635727
_cell_angle_gamma   89.97691999
_symmetry_Int_Tables_number   1
_chemical_formula_structural   V85Zn86O256
_chemical_formula_sum   'V85 Zn86 O256'
_cell_volume   4890.69019743
_cell_formula_units_Z   1
loop_
 _symmetry_equiv_pos_site_id
 _symmetry_equiv_pos_as_xyz
  1  'x, y, z'
loop_
 _atom_site_type_symbol
 _atom_site_label
 _atom_site_symmetry_multiplicity
 _atom_site_fract_x
 _atom_site_fract_y
 _atom_site_fract_z
 _atom_site_occupancy
  V  V0  1  0.12268504  0.12265916  -0.00137528  1
  V  V1  1  0.88586447  -0.01342060  0.38277193  1
  V  V2  1  0.12484444  0.38019971  0.74600232  1
  V  V3  1  0.00690926  0.50220057  0.00004003  1
  V  V4  1  0.87330811  0.74046721  0.62625840  1
  V  V5  1  0.87538984  -0.00427988  0.87833310  1
  V  V6  1  0.75500657  0.12466565  0.87249580  1
  V  V7  1  0.37272355  0.25059427  0.62282628  1
  V  V8  1  0.62531557  0.74728255  0.36744849  1
  V  V9  1  0.37305692  0.12405846  0.75048347  1
  V  V10  1  0.74773138  -0.00994453  0.24656081  1
  V  V11  1  0.74994820  0.24887116  0.00068539  1
  V  V12  1  0.00797375  0.50811370  0.51416069  1
  V  V13  1  0.74668450  0.24875968  0.50004962  1
  V  V14  1  0.00362365  0.62639588  0.12205656  1
  V  V15  1  0.49913988  0.24827301  0.75336373  1
  V  V16  1  0.74978965  0.50450740  0.74952382  1
  V  V17  1  0.37245305  0.37518959  0.49022404  1
  V  V18  1  0.37012824  0.61132114  0.25232088  1
  V  V19  1  0.37768669  0.12399891  0.24560787  1
  V  V20  1  0.50056024  0.37310510  0.36817122  1
  V  V21  1  0.12329673  -0.00304619  0.12343179  1
  V  V22  1  0.24752959  0.12179472  0.87505939  1
  V  V23  1  0.24353354  0.24655267  0.49976373  1
  V  V24  1  0.87357301  0.62688437  0.24856111  1
  V  V25  1  0.62543414  0.37478602  0.75632560  1
  V  V26  1  0.12149724  0.24780818  0.37461884  1
  V  V27  1  0.03881078  0.71483743  0.71800412  1
  V  V28  1  0.26903111  0.75056649  0.00516009  1
  V  V29  1  -0.00169863  0.37423676  0.37377814  1
  V  V30  1  0.24438757  0.12194277  0.37345034  1
  V  V31  1  0.50525454  0.24443707  0.24441939  1
  V  V32  1  0.12445824  0.74524775  0.89381217  1
  V  V33  1  -0.00594782  0.23823916  0.74750795  1
  V  V34  1  0.74891303  0.11791731  0.37805571  1
  V  V35  1  0.24704783  -0.00582181  0.74412386  1
  V  V36  1  0.49823046  0.00214068  0.00933710  1
  V  V37  1  0.12222248  0.24862772  0.87450415  1
  V  V38  1  0.75928213  0.00120134  0.74926492  1
  V  V39  1  0.61235602  0.50225899  0.62474299  1
  V  V40  1  0.63076937  0.00260963  0.62123477  1
  V  V41  1  0.87436128  0.37516201  0.50295073  1
  V  V42  1  -0.00129828  0.37497485  0.87457525  1
  V  V43  1  0.62505251  0.49792610  0.12653344  1
  V  V44  1  0.87723494  0.12356046  0.25142408  1
  V  V45  1  0.25671440  0.61588491  0.88012898  1
  V  V46  1  -0.00463703  -0.00624378  0.00042941  1
  V  V47  1  0.05577517  0.06870932  0.57115207  1
  V  V48  1  0.62343711  0.24976745  0.37278996  1
  V  V49  1  0.74394437  0.49704599  0.25134542  1
  V  V50  1  0.12761978  0.71076790  0.38932872  1
  V  V51  1  0.37107245  -0.00941549  0.37185205  1
  V  V52  1  0.50000405  0.12639721  0.62652381  1
  V  V53  1  0.62229484  0.12451533  0.00932875  1
  V  V54  1  0.12527535  0.87389455  0.74536392  1
  V  V55  1  0.49388461  0.62779215  0.12091631  1
  V  V56  1  0.50087280  0.50258076  0.49065296  1
  V  V57  1  0.87292347  0.76282974  0.12323251  1
  V  V58  1  0.87278202  0.50035582  0.37659152  1
  V  V59  1  0.24722857  -0.00059070  0.24698369  1
  V  V60  1  0.87449143  0.50209454  0.87688611  1
  V  V61  1  0.75280735  0.76951769  0.00298289  1
  V  V62  1  0.26165649  0.87327579  0.12055910  1
  V  V63  1  0.62304284  0.62970082  0.50289954  1
  V  V64  1  0.49556993  0.49271547  -0.00076771  1
  V  V65  1  0.44438746  0.42850241  0.82023448  1
  V  V66  1  0.87512693  0.23752148  0.62834733  1
  V  V67  1  0.25039316  0.38225442  0.12380273  1
  V  V68  1  0.74734193  0.37472005  0.62483151  1
  V  V69  1  0.24275180  0.38359514  0.62411380  1
  V  V70  1  0.37422165  0.24936769  0.12393730  1
  V  V71  1  0.74571638  0.37160284  0.13092688  1
  V  V72  1  0.62770991  0.87291411  0.74842750  1
  V  V73  1  0.48922977  0.86406629  0.39079489  1
  V  V74  1  0.49175862  0.74656091  0.74183144  1
  V  V75  1  -0.00237384  0.86817624  0.87565765  1
  V  V76  1  0.37451930  -0.00313001  0.88236433  1
  V  V77  1  0.11868366  0.87108550  0.25960498  1
  V  V78  1  0.63207802  0.62499982  0.00174573  1
  V  V79  1  0.62206168  0.24865222  0.87575668  1
  V  V80  1  0.87295407  0.37433259  0.00124970  1
  V  V81  1  0.48404940  0.75156034  0.24205670  1
  V  V82  1  0.45841197  -0.01975050  0.53496061  1
  V  V83  1  0.75454613  0.87339496  0.61609543  1
  V  V84  1  0.49944856  0.87378266  0.88219417  1
  Zn  Zn85  1  0.24212372  0.50244432  0.27439866  1
  Zn  Zn86  1  0.62063115  0.87057437  0.24640731  1
  Zn  Zn87  1  0.24984621  0.24981259  0.00110707  1
  Zn  Zn88  1  -0.00138722  0.75301708  0.25766978  1
  Zn  Zn89  1  0.62711097  0.74985645  0.87416390  1
  Zn  Zn90  1  0.75132898  0.63002895  0.87663336  1
  Zn  Zn91  1  0.37801250  0.61544292  0.76345353  1
  Zn  Zn92  1  0.12587538  0.37479225  0.24618924  1
  Zn  Zn93  1  0.61362846  0.12334348  0.49892906  1
  Zn  Zn94  1  0.74985183  0.62619532  0.37505505  1
  Zn  Zn95  1  -0.00161697  0.25009674  0.24713293  1
  Zn  Zn96  1  -0.00197320  0.12671035  0.12398300  1
  Zn  Zn97  1  0.91836557  0.87217175  0.50416799  1
  Zn  Zn98  1  0.87983616  0.62550469  0.74893506  1
  Zn  Zn99  1  0.12842920  0.50411696  0.12605213  1
  Zn  Zn100  1  0.75630639  0.75119074  0.49510953  1
  Zn  Zn101  1  0.28629111  0.87986136  0.59581220  1
  Zn  Zn102  1  0.31366883  0.57162779  0.44325812  1
  Zn  Zn103  1  0.37793384  0.37372079  -0.00470982  1
  Zn  Zn104  1  0.25152755  0.75581470  0.49126082  1
  Zn  Zn105  1  0.62681044  -0.00360318  0.12552145  1
  Zn  Zn106  1  0.87642421  0.24795678  0.12682150  1
  Zn  Zn107  1  0.18635158  0.18941736  0.18751218  1
  Zn  Zn108  1  0.18491167  0.18907958  0.68937521  1
  Zn  Zn109  1  0.18833976  0.68920594  0.18631847  1
  Zn  Zn110  1  0.21541643  0.70512202  0.69089528  1
  Zn  Zn111  1  0.69073008  0.18311389  0.19053582  1
  Zn  Zn112  1  0.69031676  0.18599233  0.68878230  1
  Zn  Zn113  1  0.68781379  0.68855415  0.18357338  1
  Zn  Zn114  1  0.68513187  0.68770132  0.68427503  1
  Zn  Zn115  1  0.31055329  0.31400930  0.30857085  1
  Zn  Zn116  1  0.30440390  0.30759911  0.80742916  1
  Zn  Zn117  1  0.30101334  0.80784860  0.30852223  1
  Zn  Zn118  1  0.31236938  0.81357077  0.82109457  1
  Zn  Zn119  1  0.81119199  0.31035968  0.31323450  1
  Zn  Zn120  1  0.81179307  0.31331596  0.81198892  1
  Zn  Zn121  1  0.81414944  0.81191773  0.31403948  1
  Zn  Zn122  1  0.81453030  0.81061858  0.81105127  1
  Zn  Zn123  1  0.18061022  0.43766095  0.44035458  1
  Zn  Zn124  1  0.18794216  0.43258445  0.94099399  1
  Zn  Zn125  1  0.13093148  0.91708438  0.47286774  1
  Zn  Zn126  1  0.18720024  0.93208380  0.93872700  1
  Zn  Zn127  1  0.68428218  0.43554272  0.43494410  1
  Zn  Zn128  1  0.68639748  0.43822517  0.93882761  1
  Zn  Zn129  1  0.67990130  0.93477208  0.43428948  1
  Zn  Zn130  1  0.68298892  0.94009249  0.93619730  1
  Zn  Zn131  1  0.31089615  0.06432912  0.06279677  1
  Zn  Zn132  1  0.29699609  0.06534407  0.56290973  1
  Zn  Zn133  1  0.31427417  0.56541806  0.05834416  1
  Zn  Zn134  1  0.37189455  0.69672014  0.59996024  1
  Zn  Zn135  1  0.81294207  0.06076233  0.06325065  1
  Zn  Zn136  1  0.81892421  0.05874761  0.55750428  1
  Zn  Zn137  1  0.81621319  0.56333125  0.06628382  1
  Zn  Zn138  1  0.80715698  0.56148623  0.56135357  1
  Zn  Zn139  1  0.43848779  0.43372965  0.18478531  1
  Zn  Zn140  1  0.38067113  0.49358088  0.62988551  1
  Zn  Zn141  1  0.44110328  0.93528913  0.19137331  1
  Zn  Zn142  1  0.44045725  0.93733986  0.70333421  1
  Zn  Zn143  1  0.93348686  0.43837595  0.18712509  1
  Zn  Zn144  1  0.93636425  0.43168781  0.69015200  1
  Zn  Zn145  1  0.93733545  0.94016805  0.19142302  1
  Zn  Zn146  1  0.94153765  0.92941214  0.68760014  1
  Zn  Zn147  1  0.06303060  0.06006049  0.31431706  1
  Zn  Zn148  1  0.06076279  0.05833097  0.80638898  1
  Zn  Zn149  1  0.05501900  0.55224258  0.30594209  1
  Zn  Zn150  1  0.10539858  0.58552340  0.77661133  1
  Zn  Zn151  1  0.55841177  0.05796975  0.31666223  1
  Zn  Zn152  1  0.56631820  0.06138363  0.81433345  1
  Zn  Zn153  1  0.56020552  0.56641667  0.31076557  1
  Zn  Zn154  1  0.56986306  0.56832842  0.81449442  1
  Zn  Zn155  1  0.43394251  0.17981286  0.43787393  1
  Zn  Zn156  1  0.43852536  0.18480581  0.93769403  1
  Zn  Zn157  1  0.43628153  0.69179610  0.43317143  1
  Zn  Zn158  1  0.44211883  0.68706442  0.93642305  1
  Zn  Zn159  1  0.93605702  0.18364745  0.43833739  1
  Zn  Zn160  1  0.93610837  0.18449082  0.93702894  1
  Zn  Zn161  1  0.93987598  0.68845498  0.43847037  1
  Zn  Zn162  1  0.93450565  0.68553018  0.93925158  1
  Zn  Zn163  1  0.06134948  0.31206391  0.06361982  1
  Zn  Zn164  1  0.05909679  0.30720714  0.56108404  1
  Zn  Zn165  1  0.06002548  0.81483533  0.06723392  1
  Zn  Zn166  1  0.07509850  0.78705495  0.55833919  1
  Zn  Zn167  1  0.56279945  0.31299766  0.06409456  1
  Zn  Zn168  1  0.56027889  0.31436750  0.56182213  1
  Zn  Zn169  1  0.56698971  0.81458199  0.06448220  1
  Zn  Zn170  1  0.54769926  0.81161528  0.55600658  1
  O  O171  1  0.12434025  0.11362827  0.11874684  1
  O  O172  1  0.11249290  0.12994999  0.63021286  1
  O  O173  1  0.10770920  0.62559565  0.13126014  1
  O  O174  1  0.11427521  0.65110103  0.67414963  1
  O  O175  1  0.63070953  0.12061523  0.11266831  1
  O  O176  1  0.61832115  0.11982348  0.62620722  1
  O  O177  1  0.61701553  0.61736800  0.11926150  1
  O  O178  1  0.62504115  0.61472542  0.61601298  1
  O  O179  1  0.38295594  0.36474928  0.38486589  1
  O  O180  1  0.37897921  0.36835074  0.87324617  1
  O  O181  1  0.37089526  0.88466675  0.36414913  1
  O  O182  1  0.38593414  0.88690612  0.87352222  1
  O  O183  1  0.87777362  0.37665289  0.38436644  1
  O  O184  1  0.87579684  0.38305154  0.88111398  1
  O  O185  1  0.87882074  0.88355748  0.37627876  1
  O  O186  1  0.88911986  0.87920936  0.87089026  1
  O  O187  1  0.25596377  0.01075216  0.36244061  1
  O  O188  1  0.25688942  0.00307815  0.87257206  1
  O  O189  1  0.25835900  0.49532276  0.38687095  1
  O  O190  1  0.24387547  0.51765877  0.88806156  1
  O  O191  1  0.75452569  0.00350031  0.37024297  1
  O  O192  1  0.75658983  0.00355834  0.87032108  1
  O  O193  1  0.75355964  0.49926100  0.36707940  1
  O  O194  1  0.75611246  0.49859706  0.86630596  1
  O  O195  1  0.24978708  0.48790016  0.11364145  1
  O  O196  1  0.25224332  0.48032233  0.61938295  1
  O  O197  1  0.24183064  0.99441509  0.12681026  1
  O  O198  1  0.25651750  0.99199972  0.64083703  1
  O  O199  1  0.74606659  0.49251751  0.13241128  1
  O  O200  1  0.73868207  0.49346722  0.63175553  1
  O  O201  1  0.75137072  1.00367978  0.14387348  1
  O  O202  1  0.75186139  0.99403499  0.63403016  1
  O  O203  1  -0.00672294  0.37366144  0.26393154  1
  O  O204  1  0.00550169  0.36636895  0.75777288  1
  O  O205  1  0.01417286  0.87293522  0.24377469  1
  O  O206  1  0.01302438  0.86672339  0.75973654  1
  O  O207  1  0.49410536  0.36427544  0.26232684  1
  O  O208  1  0.50684496  0.36966378  0.75813635  1
  O  O209  1  0.49536260  0.86286442  0.26237383  1
  O  O210  1  0.50867662  0.86619656  0.76023032  1
  O  O211  1  0.48971494  0.13230392  0.25668900  1
  O  O212  1  0.49502447  0.12788912  0.74474313  1
  O  O213  1  0.49218412  0.62880606  0.23815637  1
  O  O214  1  0.50371455  0.64589095  0.76310125  1
  O  O215  1  0.98603229  0.12192610  0.25077548  1
  O  O216  1  0.99673021  0.13927674  0.75992484  1
  O  O217  1  0.98521922  0.62274382  0.24215782  1
  O  O218  1  0.99583132  0.63737521  0.77161851  1
  O  O219  1  0.37845433  0.24505129  0.01497123  1
  O  O220  1  0.36863335  0.25464847  0.50342677  1
  O  O221  1  0.36757334  0.75234226  -0.00044967  1
  O  O222  1  0.45559554  0.80389455  0.47021820  1
  O  O223  1  0.86693206  0.25624264  -0.00020162  1
  O  O224  1  0.86757511  0.25961373  0.50560731  1
  O  O225  1  0.85974505  0.74767966  0.00700532  1
  O  O226  1  0.87603860  0.75655754  0.50737674  1
  O  O227  1  0.13152039  0.25383781  0.48613280  1
  O  O228  1  0.12119392  0.24294863  0.98693776  1
  O  O229  1  0.13619961  0.71265993  0.49392316  1
  O  O230  1  0.13098891  0.75537837  0.99488972  1
  O  O231  1  0.62805612  0.24432087  0.49406783  1
  O  O232  1  0.62921929  0.24299746  0.99516104  1
  O  O233  1  0.61981140  0.74171628  0.49206181  1
  O  O234  1  0.63878297  0.74342915  1.00147202  1
  O  O235  1  0.49482285  0.25464743  0.13868243  1
  O  O236  1  0.49311572  0.24588008  0.63062366  1
  O  O237  1  0.50551190  0.73967726  0.13141246  1
  O  O238  1  0.48934301  0.75407815  0.63846114  1
  O  O239  1  0.99572022  0.24520242  0.12840298  1
  O  O240  1  0.98649049  0.25757800  0.63526287  1
  O  O241  1  0.98989422  0.74250190  0.12401610  1
  O  O242  1  0.98999525  0.75018440  0.63066389  1
  O  O243  1  0.00528477  0.25451143  0.37515632  1
  O  O244  1  0.00326627  0.25537291  0.87078422  1
  O  O245  1  0.02411000  0.73651710  0.37338020  1
  O  O246  1  0.01157933  0.75557340  0.88879958  1
  O  O247  1  0.50555866  0.25066139  0.36894808  1
  O  O248  1  0.50995073  0.24124951  0.86596779  1
  O  O249  1  0.50878009  0.74488807  0.35358032  1
  O  O250  1  0.50665753  0.76127729  0.87428053  1
  O  O251  1  0.25487997  0.13936356  0.48759449  1
  O  O252  1  0.24044389  0.12750280  0.99283770  1
  O  O253  1  0.33481470  0.67321858  0.49036793  1
  O  O254  1  0.25376224  0.64075696  0.99481835  1
  O  O255  1  0.75359177  0.13110434  0.48768096  1
  O  O256  1  0.74373322  0.12935446  0.99383056  1
  O  O257  1  0.73550505  0.62726374  0.49658061  1
  O  O258  1  0.73896507  0.62217239  1.00298061  1
  O  O259  1  0.25755951  0.36756870  0.00543813  1
  O  O260  1  0.25315466  0.36300195  0.50500691  1
  O  O261  1  0.24965514  0.86364380  0.00770673  1
  O  O262  1  0.22942456  0.86724481  0.50021993  1
  O  O263  1  0.75368162  0.36839112  0.00640598  1
  O  O264  1  0.75343310  0.36803640  0.50357762  1
  O  O265  1  0.74619868  0.86767440  0.00025506  1
  O  O266  1  0.73933192  0.87281398  0.51407615  1
  O  O267  1  0.12833168  0.49259430  0.24316086  1
  O  O268  1  0.12283957  0.47914849  0.75396080  1
  O  O269  1  0.12733414  0.99555681  0.23922275  1
  O  O270  1  0.13320548  0.98425237  0.75775489  1
  O  O271  1  0.63746938  0.50580929  0.24562665  1
  O  O272  1  0.62742901  0.49427910  0.74345904  1
  O  O273  1  0.63882604  1.00297439  0.25414571  1
  O  O274  1  0.63672461  0.99446810  0.74268337  1
  O  O275  1  0.36915912  0.00761977  0.25337502  1
  O  O276  1  0.36711682  0.00484609  0.76333792  1
  O  O277  1  0.37448390  0.50954914  0.24310225  1
  O  O278  1  0.38842381  0.48218805  0.75862460  1
  O  O279  1  0.86414052  0.00282774  0.26006068  1
  O  O280  1  0.86549221  -0.00870447  0.76134735  1
  O  O281  1  0.86400001  0.50619526  0.25542650  1
  O  O282  1  0.86611874  0.50074270  0.75728003  1
  O  O283  1  0.11268495  0.36657271  0.37359605  1
  O  O284  1  0.12187192  0.36454343  0.86982538  1
  O  O285  1  0.12642079  0.88912679  0.35496599  1
  O  O286  1  0.11440294  0.86744943  0.87533321  1
  O  O287  1  0.61627577  0.35781363  0.37929725  1
  O  O288  1  0.63253013  0.36776449  0.86298417  1
  O  O289  1  0.61035215  0.86211474  0.37334678  1
  O  O290  1  0.61963833  0.87744299  0.86182199  1
  O  O291  1  0.36842145  0.13147670  0.13803633  1
  O  O292  1  0.37738408  0.12878915  0.63203930  1
  O  O293  1  0.38945126  0.62086037  0.12881816  1
  O  O294  1  0.38507835  0.60215760  0.65324267  1
  O  O295  1  0.87457587  0.12453390  0.13650750  1
  O  O296  1  0.86158506  0.13888445  0.62571127  1
  O  O297  1  0.88116063  0.63250425  0.13229774  1
  O  O298  1  0.86553398  0.63645347  0.62553672  1
  O  O299  1  0.25893781  0.25761980  0.12486168  1
  O  O300  1  0.25441076  0.24971064  0.61508531  1
  O  O301  1  0.24713260  0.75724224  0.11147650  1
  O  O302  1  0.28047056  0.76340708  0.62129508  1
  O  O303  1  0.75030057  0.25646524  0.12136071  1
  O  O304  1  0.75239929  0.25668574  0.62066509  1
  O  O305  1  0.75722576  0.74730764  0.11126667  1
  O  O306  1  0.75535483  0.75792804  0.62229699  1
  O  O307  1  0.24242798  0.24530283  0.37902952  1
  O  O308  1  0.23891016  0.24052185  0.87486120  1
  O  O309  1  0.22540823  0.74742651  0.36977469  1
  O  O310  1  0.24315797  0.75114103  0.89241321  1
  O  O311  1  0.74033411  0.24148214  0.37803362  1
  O  O312  1  0.74447720  0.24157827  0.87809775  1
  O  O313  1  0.73987590  0.74957041  0.37646648  1
  O  O314  1  0.74993138  0.75114668  0.88942058  1
  O  O315  1  0.00520987  0.11145562  -0.00223815  1
  O  O316  1  -0.00919818  0.12493157  0.51479404  1
  O  O317  1  -0.00903797  0.61316949  0.00925906  1
  O  O318  1  -0.00868985  0.60571724  0.49893758  1
  O  O319  1  0.51182140  0.11489340  -0.00670141  1
  O  O320  1  0.49317282  0.10576693  0.51278715  1
  O  O321  1  0.51158512  0.61991130  0.00431767  1
  O  O322  1  0.51088160  0.61230991  0.49004627  1
  O  O323  1  0.49260165  0.37731092  0.48860836  1
  O  O324  1  0.49940419  0.38374800  1.00072390  1
  O  O325  1  0.53172019  0.91852858  0.49699536  1
  O  O326  1  0.50834525  0.88508649  0.98782620  1
  O  O327  1  0.98922815  0.37680317  0.49135157  1
  O  O328  1  0.99042925  0.37947014  0.99524279  1
  O  O329  1  1.02992220  0.86947467  0.50018051  1
  O  O330  1  1.00328351  0.88761010  0.99365481  1
  O  O331  1  0.51110993  0.48624166  0.38080300  1
  O  O332  1  0.50299024  0.49391404  0.87751080  1
  O  O333  1  0.48398541  0.98404820  0.37042571  1
  O  O334  1  0.49291678  0.99502344  0.87970461  1
  O  O335  1  0.98947561  0.48963288  0.38277956  1
  O  O336  1  0.98718791  0.49118564  0.88480753  1
  O  O337  1  0.98312719  1.00289868  0.37228140  1
  O  O338  1  0.99239020  0.99220175  0.87875239  1
  O  O339  1  0.00478233  0.00134549  0.11631232  1
  O  O340  1  0.00357987  0.00268376  0.63057201  1
  O  O341  1  -0.00456807  0.50686417  0.11626632  1
  O  O342  1  -0.01033250  0.49354545  0.61277226  1
  O  O343  1  0.49412749  -0.00003384  0.11141108  1
  O  O344  1  0.51317555  0.00822239  0.63340005  1
  O  O345  1  0.50781975  0.50356895  0.11789198  1
  O  O346  1  0.51163062  0.48741874  0.60891459  1
  O  O347  1  0.25115662  0.38103643  0.23900413  1
  O  O348  1  0.24102100  0.36488551  0.73224156  1
  O  O349  1  0.23831527  0.88002326  0.23904219  1
  O  O350  1  0.23971223  0.88201367  0.76118632  1
  O  O351  1  0.75451995  0.38319834  0.24213150  1
  O  O352  1  0.74298033  0.38515851  0.74595848  1
  O  O353  1  0.74640205  0.88831908  0.25755509  1
  O  O354  1  0.74368397  0.88051606  0.74261876  1
  O  O355  1  0.25536933  0.12081391  0.25470649  1
  O  O356  1  0.25164388  0.11527487  0.75605225  1
  O  O357  1  0.26648292  0.62053746  0.23810503  1
  O  O358  1  0.25465795  0.63229552  0.77495039  1
  O  O359  1  0.75796607  0.11669460  0.26200054  1
  O  O360  1  0.74524571  0.11314346  0.76023508  1
  O  O361  1  0.75943416  0.61735493  0.24783575  1
  O  O362  1  0.74617272  0.61237312  0.75180450  1
  O  O363  1  0.36501381  0.12089664  0.36256029  1
  O  O364  1  0.36742855  0.11995173  0.86878439  1
  O  O365  1  0.38631894  0.61824748  0.35305660  1
  O  O366  1  0.36365049  0.62514828  0.87903787  1
  O  O367  1  0.86615829  0.11509702  0.37077288  1
  O  O368  1  0.86194104  0.11550173  0.87860042  1
  O  O369  1  0.87151737  0.62020227  0.36648911  1
  O  O370  1  0.86903706  0.61184943  0.87611086  1
  O  O371  1  0.13694309  0.37281662  0.12439716  1
  O  O372  1  0.13510903  0.36398902  0.63012622  1
  O  O373  1  0.13062751  0.88673900  0.12787699  1
  O  O374  1  0.12779342  0.85450395  0.64813951  1
  O  O375  1  0.63819953  0.38115412  0.12156830  1
  O  O376  1  0.62776806  0.37875103  0.63656920  1
  O  O377  1  0.61551105  0.88466597  0.13444594  1
  O  O378  1  0.62889223  0.88294782  0.63498111  1
  O  O379  1  0.12148709  0.25317027  0.26157765  1
  O  O380  1  0.11652092  0.25523996  0.76074808  1
  O  O381  1  0.12321620  0.76229586  0.25044098  1
  O  O382  1  0.12905034  0.76265901  0.77351612  1
  O  O383  1  0.61608077  0.24029665  0.25883565  1
  O  O384  1  0.62037708  0.25778651  0.75338403  1
  O  O385  1  0.62033612  0.74775151  0.25531211  1
  O  O386  1  0.61769243  0.75886980  0.74930939  1
  O  O387  1  0.38089285  0.24305258  0.24130488  1
  O  O388  1  0.37954881  0.24363396  0.74348888  1
  O  O389  1  0.38100525  0.73971691  0.25037663  1
  O  O390  1  0.39043799  0.75323269  0.76092039  1
  O  O391  1  0.87423369  0.23692234  0.25131862  1
  O  O392  1  0.88126037  0.25631128  0.74082713  1
  O  O393  1  0.87614098  0.74267170  0.24429666  1
  O  O394  1  0.87218571  0.74506000  0.73833592  1
  O  O395  1  0.38805839  0.48984489  0.50415099  1
  O  O396  1  0.39228807  0.49974151  1.00116334  1
  O  O397  1  0.36631980  1.01023663  0.48345835  1
  O  O398  1  0.38232537  1.01031476  0.98906666  1
  O  O399  1  0.87072787  0.48710258  0.49547678  1
  O  O400  1  0.87600717  0.49176149  0.99388803  1
  O  O401  1  0.87235396  0.98794820  0.48715638  1
  O  O402  1  0.88019689  1.00136429  0.98807074  1
  O  O403  1  0.11792004  0.00299406  0.00499606  1
  O  O404  1  0.12328166  0.02395072  0.50871282  1
  O  O405  1  0.10917179  0.49342769  0.00282364  1
  O  O406  1  0.10699146  0.49370311  0.50513010  1
  O  O407  1  0.61681857  0.00868346  0.00023791  1
  O  O408  1  0.64754635  0.01024392  0.51935861  1
  O  O409  1  0.61788004  0.50621584  0.00465199  1
  O  O410  1  0.62068072  0.50442840  0.50571961  1
  O  O411  1  0.36891804  0.36528877  0.12243371  1
  O  O412  1  0.36172376  0.37007328  0.61002073  1
  O  O413  1  0.36036319  0.88131833  0.13054835  1
  O  O414  1  0.39935558  0.91358075  0.60099559  1
  O  O415  1  0.86243555  0.37372202  0.11841958  1
  O  O416  1  0.86474102  0.36933042  0.61781815  1
  O  O417  1  0.87833641  0.86191040  0.13163761  1
  O  O418  1  0.86820892  0.86614700  0.62189215  1
  O  O419  1  0.13662599  0.13166396  0.36709646  1
  O  O420  1  0.12774419  0.12885896  0.87746355  1
  O  O421  1  0.13121658  0.61509137  0.36547770  1
  O  O422  1  0.13648149  0.64096187  0.87691633  1
  O  O423  1  0.62953818  0.12960151  0.37979159  1
  O  O424  1  0.63686482  0.12784313  0.88249988  1
  O  O425  1  0.62662203  0.63396276  0.37979872  1
  O  O426  1  0.63172196  0.62932128  0.88698029  1
