# generated using pymatgen
data_V85Zn86O256
_symmetry_space_group_name_H-M   'P 1'
_cell_length_a   16.97586719
_cell_length_b   16.96050505
_cell_length_c   16.97456627
_cell_angle_alpha   90.04238338
_cell_angle_beta   89.96359103
_cell_angle_gamma   90.01354502
_symmetry_Int_Tables_number   1
_chemical_formula_structural   V85Zn86O256
_chemical_formula_sum   'V85 Zn86 O256'
_cell_volume   4887.30246122
_cell_formula_units_Z   1
loop_
 _symmetry_equiv_pos_site_id
 _symmetry_equiv_pos_as_xyz
  1  'x, y, z'
loop_
 _atom_site_type_symbol
 _atom_site_label
 _atom_site_symmetry_multiplicity
 _atom_site_fract_x
 _atom_site_fract_y
 _atom_site_fract_z
 _atom_site_occupancy
  V  V0  1  0.61068764  0.37120145  0.75470310  1
  V  V1  1  0.87123880  0.87917147  -0.00242212  1
  V  V2  1  -0.00287792  -0.00863156  0.49937409  1
  V  V3  1  0.37972073  0.24994549  0.63373267  1
  V  V4  1  0.62677227  0.37592519  0.23836679  1
  V  V5  1  0.50157321  0.50009847  0.50075513  1
  V  V6  1  0.49901052  0.62390790  0.63027064  1
  V  V7  1  0.50144732  0.49268955  -0.00161994  1
  V  V8  1  0.37518545  0.37708180  0.50140947  1
  V  V9  1  0.37536389  0.62691345  0.25047981  1
  V  V10  1  0.25131449  0.12757212  0.87175988  1
  V  V11  1  0.86745782  0.38233692  0.00937218  1
  V  V12  1  -0.00475801  0.12186581  0.63175773  1
  V  V13  1  0.00117101  0.61659008  0.12405042  1
  V  V14  1  0.75385654  0.74589618  0.49901535  1
  V  V15  1  0.62520288  0.62382786  0.50139349  1
  V  V16  1  0.57070089  0.06623933  0.45322304  1
  V  V17  1  0.37775846  0.74693037  0.62643880  1
  V  V18  1  0.76140320  0.12313039  0.36872261  1
  V  V19  1  0.74790779  0.24417041  0.50184457  1
  V  V20  1  0.11989096  0.75202518  0.37614140  1
  V  V21  1  0.75478901  0.62269578  0.87596571  1
  V  V22  1  0.62746212  0.61822309  0.00388163  1
  V  V23  1  0.12347046  0.37620641  0.75285690  1
  V  V24  1  0.25426290  0.75099338  0.50084904  1
  V  V25  1  0.76058027  0.00633076  0.75027562  1
  V  V26  1  0.63288522  -0.00983773  0.12014671  1
  V  V27  1  0.49745155  0.13014041  0.12264147  1
  V  V28  1  0.75220584  0.49665621  0.75606089  1
  V  V29  1  0.50010903  -0.00002699  -0.00007238  1
  V  V30  1  0.37920491  0.49165190  0.87336157  1
  V  V31  1  0.12974484  0.62407978  0.00082121  1
  V  V32  1  0.00292225  0.87526204  0.86991983  1
  V  V33  1  0.11531349  0.62295311  0.50942122  1
  V  V34  1  0.24832967  0.25361460  0.50226935  1
  V  V35  1  0.25471752  0.12322868  0.37420452  1
  V  V36  1  0.87909953  0.74357683  0.62281530  1
  V  V37  1  0.61352462  0.25112634  0.87291941  1
  V  V38  1  0.25857649  0.62865201  0.87618789  1
  V  V39  1  0.12645942  0.11256721  0.00258446  1
  V  V40  1  0.76503117  0.13135244  0.87475310  1
  V  V41  1  -0.00109188  0.75438020  0.25637272  1
  V  V42  1  0.62740822  0.87511993  0.74896819  1
  V  V43  1  0.24976361  0.37815544  0.62884650  1
  V  V44  1  0.74841066  0.75292681  0.00292040  1
  V  V45  1  0.12153345  0.12678376  0.50086214  1
  V  V46  1  -0.01381460  0.37824211  0.87338232  1
  V  V47  1  0.87270880  0.61924699  0.25051044  1
  V  V48  1  0.87303704  0.75379632  0.12513108  1
  V  V49  1  0.11127860  0.50415037  0.62747816  1
  V  V50  1  0.75162182  0.25522810  0.01226163  1
  V  V51  1  0.87169144  0.24318320  0.63150545  1
  V  V52  1  0.12013373  0.38398465  0.23643650  1
  V  V53  1  0.36998525  0.87023214  -0.00108021  1
  V  V54  1  0.49911718  0.74616159  0.75111497  1
  V  V55  1  0.50499282  0.12684487  0.63372545  1
  V  V56  1  -0.00044651  0.50234911  -0.00635793  1
  V  V57  1  0.62453556  0.49792636  0.62749872  1
  V  V58  1  0.11149428  0.26770596  0.37922460  1
  V  V59  1  0.62356316  0.25311008  0.37844868  1
  V  V60  1  0.50129865  0.37640102  0.37462237  1
  V  V61  1  0.38054705  0.88409148  0.49422994  1
  V  V62  1  0.13085102  0.75149185  0.87409668  1
  V  V63  1  0.24911552  0.49966190  0.23480597  1
  V  V64  1  0.24655994  0.62224722  0.37638636  1
  V  V65  1  0.25472925  0.50799630  0.75014401  1
  V  V66  1  0.62057535  0.75127016  0.37402786  1
  V  V67  1  0.37347624  0.49981130  0.37570577  1
  V  V68  1  0.12285784  0.25156662  0.87680591  1
  V  V69  1  0.74566007  0.49525719  0.23779651  1
  V  V70  1  0.88209928  0.62041773  0.75139370  1
  V  V71  1  0.62779233  0.12722322  -0.00212626  1
  V  V72  1  0.74755366  0.37251759  0.62668369  1
  V  V73  1  0.35665029  0.25374476  0.12831388  1
  V  V74  1  0.12722632  -0.00756752  0.63016526  1
  V  V75  1  0.00478124  0.75044463  0.74573683  1
  V  V76  1  0.37221469  0.75024061  0.12210516  1
  V  V77  1  0.50281186  0.87487029  0.87365981  1
  V  V78  1  0.88555229  0.38040837  0.50215453  1
  V  V79  1  0.75131192  0.87350302  0.62486687  1
  V  V80  1  0.37754260  0.00118040  0.87088887  1
  V  V81  1  0.50394758  0.62005064  0.12687934  1
  V  V82  1  0.88054395  -0.00906510  0.36710040  1
  V  V83  1  0.62352102  0.00368045  0.62570197  1
  V  V84  1  -0.00636384  0.24505397  0.75572607  1
  Zn  Zn85  1  0.89294250  0.22494659  0.16190291  1
  Zn  Zn86  1  0.36574372  0.37814177  0.00682739  1
  Zn  Zn87  1  0.49720007  0.88728195  0.37321852  1
  Zn  Zn88  1  0.87881438  0.48930623  0.37519104  1
  Zn  Zn89  1  0.01365759  -0.01201216  0.01261030  1
  Zn  Zn90  1  0.88154407  0.86501214  0.49491081  1
  Zn  Zn91  1  0.37439837  0.12097117  0.25184021  1
  Zn  Zn92  1  0.88176312  0.00528603  0.87366438  1
  Zn  Zn93  1  -0.00114170  0.10598754  0.13984947  1
  Zn  Zn94  1  0.62764437  0.87375045  0.24938399  1
  Zn  Zn95  1  0.24391705  0.25774512  0.00384741  1
  Zn  Zn96  1  0.62694584  0.74937606  0.87504188  1
  Zn  Zn97  1  0.24652472  0.88027072  0.12103796  1
  Zn  Zn98  1  0.25397642  -0.00767623  0.24340496  1
  Zn  Zn99  1  0.49986949  0.75740635  0.24937102  1
  Zn  Zn100  1  0.37960105  0.12895053  0.75253697  1
  Zn  Zn101  1  0.11179275  0.90277184  0.21873280  1
  Zn  Zn102  1  0.75985513  -0.00229188  0.23754923  1
  Zn  Zn103  1  0.74550796  0.61791688  0.37311134  1
  Zn  Zn104  1  0.24897541  -0.00456724  0.74992583  1
  Zn  Zn105  1  0.49536612  0.25337746  0.24880661  1
  Zn  Zn106  1  0.25009847  0.87099050  0.62893788  1
  Zn  Zn107  1  0.15198017  0.17690981  0.20776743  1
  Zn  Zn108  1  0.18685253  0.18462911  0.68996125  1
  Zn  Zn109  1  0.16830824  0.72781296  0.16739659  1
  Zn  Zn110  1  0.19030912  0.68838336  0.69021563  1
  Zn  Zn111  1  0.68451611  0.18546622  0.18907756  1
  Zn  Zn112  1  0.68491727  0.18540863  0.69225647  1
  Zn  Zn113  1  0.68709245  0.68572141  0.18643344  1
  Zn  Zn114  1  0.68818724  0.68611150  0.68851186  1
  Zn  Zn115  1  0.30627154  0.31229815  0.31010850  1
  Zn  Zn116  1  0.31089734  0.31625288  0.81560396  1
  Zn  Zn117  1  0.30911787  0.81601872  0.30940038  1
  Zn  Zn118  1  0.31289128  0.81541183  0.80745073  1
  Zn  Zn119  1  0.80968377  0.31337849  0.31742542  1
  Zn  Zn120  1  0.80704263  0.31011770  0.81509311  1
  Zn  Zn121  1  0.80701236  0.81301818  0.30908105  1
  Zn  Zn122  1  0.81465415  0.81053740  0.81304292  1
  Zn  Zn123  1  0.18652940  0.44358360  0.44430816  1
  Zn  Zn124  1  0.18573101  0.43895786  0.94058189  1
  Zn  Zn125  1  0.16158861  0.95646320  0.40165234  1
  Zn  Zn126  1  0.19356088  0.93302312  0.92958712  1
  Zn  Zn127  1  0.69489220  0.43627808  0.43466668  1
  Zn  Zn128  1  0.68571897  0.43610460  0.93573161  1
  Zn  Zn129  1  0.70018679  0.92716834  0.42682021  1
  Zn  Zn130  1  0.69026362  0.93970288  0.93445413  1
  Zn  Zn131  1  0.30840204  0.06202823  0.06544098  1
  Zn  Zn132  1  0.31221679  0.06537268  0.56097735  1
  Zn  Zn133  1  0.31616373  0.56641042  0.05868286  1
  Zn  Zn134  1  0.31167720  0.56554757  0.56483875  1
  Zn  Zn135  1  0.81747532  0.06935908  0.06111495  1
  Zn  Zn136  1  0.81156433  0.06170651  0.55777448  1
  Zn  Zn137  1  0.81613090  0.55887665  0.06335472  1
  Zn  Zn138  1  0.81190681  0.56235270  0.56866303  1
  Zn  Zn139  1  0.43802650  0.43700673  0.18672676  1
  Zn  Zn140  1  0.43467891  0.43953038  0.68939840  1
  Zn  Zn141  1  0.43473828  0.94058570  0.19257766  1
  Zn  Zn142  1  0.43873991  0.93551131  0.68404936  1
  Zn  Zn143  1  0.92137133  0.40370900  0.21277485  1
  Zn  Zn144  1  0.93300169  0.43293599  0.68851350  1
  Zn  Zn145  1  0.93642193  0.93577276  0.18212296  1
  Zn  Zn146  1  0.93852384  0.93133050  0.68473399  1
  Zn  Zn147  1  0.05933647  0.06761819  0.31250568  1
  Zn  Zn148  1  0.06189396  0.06258369  0.81489875  1
  Zn  Zn149  1  0.05746104  0.55051710  0.31037440  1
  Zn  Zn150  1  0.06477720  0.56323441  0.81479790  1
  Zn  Zn151  1  0.56307272  0.06387149  0.29092287  1
  Zn  Zn152  1  0.56816718  0.06474514  0.81257744  1
  Zn  Zn153  1  0.56475280  0.56224377  0.31156794  1
  Zn  Zn154  1  0.56566541  0.56230967  0.81583403  1
  Zn  Zn155  1  0.43398054  0.19444400  0.44111121  1
  Zn  Zn156  1  0.43318055  0.18988565  0.94430510  1
  Zn  Zn157  1  0.43803731  0.68680150  0.43829182  1
  Zn  Zn158  1  0.44086839  0.68472441  0.93758388  1
  Zn  Zn159  1  0.93470047  0.18604603  0.44262995  1
  Zn  Zn160  1  0.94974760  0.19751470  0.97496413  1
  Zn  Zn161  1  0.95431941  0.64739129  0.42116792  1
  Zn  Zn162  1  0.93682918  0.68981955  0.93429387  1
  Zn  Zn163  1  0.05620961  0.30845204  0.06311161  1
  Zn  Zn164  1  0.06105281  0.31205415  0.56960596  1
  Zn  Zn165  1  0.05509089  0.80637715  0.05595885  1
  Zn  Zn166  1  0.06319170  0.80840363  0.55995543  1
  Zn  Zn167  1  0.56076483  0.31045895  0.05863411  1
  Zn  Zn168  1  0.56298234  0.31061031  0.56297268  1
  Zn  Zn169  1  0.55722368  0.80742092  0.06007605  1
  Zn  Zn170  1  0.56226617  0.81522120  0.55900312  1
  O  O171  1  0.13235662  0.13024767  0.10054575  1
  O  O172  1  0.11754926  0.11995648  0.61653404  1
  O  O173  1  0.11460261  0.63741165  0.10966472  1
  O  O174  1  0.13524416  0.61770503  0.61674043  1
  O  O175  1  0.61727953  0.11958092  0.11649861  1
  O  O176  1  0.61910126  0.11790838  0.62437877  1
  O  O177  1  0.61746315  0.62632883  0.11491517  1
  O  O178  1  0.62028795  0.61837813  0.61945102  1
  O  O179  1  0.37934365  0.37891354  0.38135685  1
  O  O180  1  0.37637682  0.38869313  0.87559394  1
  O  O181  1  0.37653829  0.86848821  0.38993196  1
  O  O182  1  0.38370610  0.88165406  0.87938253  1
  O  O183  1  0.87216875  0.37261922  0.39884331  1
  O  O184  1  0.88395941  0.37533052  0.87417058  1
  O  O185  1  0.87327424  0.88743196  0.37878845  1
  O  O186  1  0.88357365  0.87396410  0.88123829  1
  O  O187  1  0.25463904  0.02437706  0.39232133  1
  O  O188  1  0.26186410  0.00753454  0.87144754  1
  O  O189  1  0.25627595  0.51071509  0.38025683  1
  O  O190  1  0.25750534  0.50766135  0.86780058  1
  O  O191  1  0.76733525  0.00858074  0.38181525  1
  O  O192  1  0.75391894  0.01031890  0.86622073  1
  O  O193  1  0.75832001  0.50161916  0.36690673  1
  O  O194  1  0.74651813  0.50618138  0.86286496  1
  O  O195  1  0.25608910  0.50449636  0.13702345  1
  O  O196  1  0.24716262  0.49650351  0.63419787  1
  O  O197  1  0.24643250  0.99490950  0.12613713  1
  O  O198  1  0.23368789  1.00437605  0.62153922  1
  O  O199  1  0.75065085  0.49980080  0.13846940  1
  O  O200  1  0.74124473  0.49567538  0.63699686  1
  O  O201  1  0.73521648  1.00503076  0.11763559  1
  O  O202  1  0.74256162  0.99803644  0.63026352  1
  O  O203  1  0.02520608  0.40793158  0.26088890  1
  O  O204  1  0.00329111  0.36711917  0.75643401  1
  O  O205  1  0.00108227  0.85685527  0.24610827  1
  O  O206  1  -0.00413342  0.86183009  0.75644262  1
  O  O207  1  0.50786581  0.37564272  0.25864058  1
  O  O208  1  0.51197097  0.37858614  0.74641710  1
  O  O209  1  0.50759674  0.87533787  0.25642590  1
  O  O210  1  0.50807723  0.86826005  0.75384591  1
  O  O211  1  0.49601836  0.13375955  0.23741753  1
  O  O212  1  0.50094205  0.12410112  0.73761532  1
  O  O213  1  0.49317137  0.62092196  0.24202797  1
  O  O214  1  0.50921047  0.63334179  0.74154908  1
  O  O215  1  1.04535739  0.14443166  0.23680612  1
  O  O216  1  1.00208282  0.12865065  0.73941144  1
  O  O217  1  0.99009803  0.62706951  0.23858693  1
  O  O218  1  0.98745688  0.63101253  0.75888450  1
  O  O219  1  0.37027832  0.25376523  0.01483971  1
  O  O220  1  0.36583197  0.25792930  0.51154620  1
  O  O221  1  0.38791279  0.75996183  0.00693480  1
  O  O222  1  0.37069967  0.75027105  0.50799198  1
  O  O223  1  0.86161362  0.27118079  -0.01181234  1
  O  O224  1  0.86804913  0.25627686  0.51301281  1
  O  O225  1  0.86818151  0.75627530  0.00455161  1
  O  O226  1  0.86792616  0.74402264  0.50786698  1
  O  O227  1  0.13052605  0.24772532  0.50162004  1
  O  O228  1  0.12393226  0.24238503  0.98488166  1
  O  O229  1  0.13552172  0.73889395  0.50165748  1
  O  O230  1  0.11704320  0.73670815  0.98097425  1
  O  O231  1  0.63289903  0.25382474  0.48816748  1
  O  O232  1  0.63363633  0.24800685  0.99278473  1
  O  O233  1  0.63182980  0.74212234  0.49775809  1
  O  O234  1  0.63245037  0.73915512  0.99858510  1
  O  O235  1  0.49812556  0.23845739  0.12320194  1
  O  O236  1  0.49121207  0.24035690  0.61810391  1
  O  O237  1  0.49440629  0.73646064  0.12733440  1
  O  O238  1  0.49738026  0.74428234  0.63074184  1
  O  O239  1  0.98351226  0.22773612  0.08610136  1
  O  O240  1  0.99117539  0.24065187  0.63325224  1
  O  O241  1  0.98739154  0.73829141  0.12894187  1
  O  O242  1  0.99239841  0.75462737  0.63474632  1
  O  O243  1  0.01475323  0.24919878  0.38831462  1
  O  O244  1  0.00451669  0.25657446  0.87395747  1
  O  O245  1  0.00585244  0.73865773  0.36771146  1
  O  O246  1  0.00546667  0.75687893  0.86548062  1
  O  O247  1  0.50768203  0.25631116  0.37605723  1
  O  O248  1  0.51409200  0.24253592  0.88122411  1
  O  O249  1  0.51324493  0.74453390  0.37479319  1
  O  O250  1  0.50384721  0.75276392  0.86586761  1
  O  O251  1  0.24224413  0.13778497  0.50045971  1
  O  O252  1  0.24342459  0.13003649  0.98453281  1
  O  O253  1  0.24783036  0.63337124  0.49511305  1
  O  O254  1  0.23865564  0.61881275  0.99125729  1
  O  O255  1  0.75412087  0.13802569  0.49087334  1
  O  O256  1  0.74635341  0.13510948  0.99289555  1
  O  O257  1  0.74402814  0.63262646  0.50259033  1
  O  O258  1  0.74626875  0.62621178  0.99374078  1
  O  O259  1  0.25178807  0.37103964  -0.00500033  1
  O  O260  1  0.25460603  0.37203048  0.50998988  1
  O  O261  1  0.26725413  0.87383340  -0.00371742  1
  O  O262  1  0.26255381  0.85725436  0.50675566  1
  O  O263  1  0.75936631  0.37316770  -0.00309621  1
  O  O264  1  0.75196699  0.36145870  0.50895860  1
  O  O265  1  0.75688994  0.86304508  -0.00924907  1
  O  O266  1  0.75345242  0.85967380  0.50672791  1
  O  O267  1  0.14180415  0.49897760  0.25263833  1
  O  O268  1  0.13314196  0.49715928  0.74521100  1
  O  O269  1  0.13707078  0.98671047  0.28997828  1
  O  O270  1  0.12303517  1.00470384  0.73176355  1
  O  O271  1  0.63641709  0.49142854  0.25433772  1
  O  O272  1  0.63117564  0.49229294  0.74703515  1
  O  O273  1  0.62852070  0.99894362  0.22850871  1
  O  O274  1  0.63563352  0.99511313  0.74206380  1
  O  O275  1  0.36856860  0.00812104  0.25116635  1
  O  O276  1  0.38197340  0.00188083  0.76231847  1
  O  O277  1  0.36572651  0.50312525  0.25635922  1
  O  O278  1  0.36629776  0.49987524  0.75784934  1
  O  O279  1  0.87765677  -0.00539462  0.26388468  1
  O  O280  1  0.86329636  -0.00551944  0.74852472  1
  O  O281  1  0.86367107  0.50225658  0.24976783  1
  O  O282  1  0.86470801  0.50896608  0.74281750  1
  O  O283  1  0.12167663  0.36835324  0.39059438  1
  O  O284  1  0.11545166  0.36805986  0.86936185  1
  O  O285  1  0.12536127  0.85030172  0.39160800  1
  O  O286  1  0.11762588  0.86305029  0.87792671  1
  O  O287  1  0.61978404  0.36749248  0.37205297  1
  O  O288  1  0.62729255  0.36507875  0.86567739  1
  O  O289  1  0.61808458  0.86378812  0.38103998  1
  O  O290  1  0.62062073  0.87344211  0.86721309  1
  O  O291  1  0.38153899  0.13701889  0.12187141  1
  O  O292  1  0.38400234  0.13238334  0.62591048  1
  O  O293  1  0.38355823  0.63065679  0.12907956  1
  O  O294  1  0.38460965  0.63688176  0.62212350  1
  O  O295  1  0.88218505  0.11640102  0.13618559  1
  O  O296  1  0.88295507  0.13110274  0.62052385  1
  O  O297  1  0.87835641  0.63255270  0.13145327  1
  O  O298  1  0.86990514  0.63598815  0.63643526  1
  O  O299  1  0.25751338  0.24446502  0.12834232  1
  O  O300  1  0.25338542  0.25538707  0.61879919  1
  O  O301  1  0.27085006  0.74561606  0.12094465  1
  O  O302  1  0.26136197  0.74634851  0.62002231  1
  O  O303  1  0.75090576  0.24331664  0.11320245  1
  O  O304  1  0.75410449  0.24883457  0.62022277  1
  O  O305  1  0.75725048  0.74195691  0.11068604  1
  O  O306  1  0.75632479  0.75242195  0.61953650  1
  O  O307  1  0.24161120  0.25127487  0.39089603  1
  O  O308  1  0.24057763  0.24325145  0.87070375  1
  O  O309  1  0.24501062  0.73726804  0.38233521  1
  O  O310  1  0.24241731  0.74166228  0.86574141  1
  O  O311  1  0.74404162  0.24210106  0.38162351  1
  O  O312  1  0.74111626  0.24319309  0.88096241  1
  O  O313  1  0.73857283  0.74695696  0.38506124  1
  O  O314  1  0.74970803  0.74108555  0.88475161  1
  O  O315  1  0.02027955  0.10695712  -0.01553066  1
  O  O316  1  0.00523832  0.11973733  0.51299288  1
  O  O317  1  0.00274392  0.61910128  -0.00068145  1
  O  O318  1  0.01806882  0.63715691  0.51641252  1
  O  O319  1  0.50639645  0.11873316  0.00413544  1
  O  O320  1  0.50292141  0.12287367  0.50624885  1
  O  O321  1  0.51033602  0.61866830  0.00610151  1
  O  O322  1  0.50643735  0.61863259  0.50919261  1
  O  O323  1  0.49546528  0.38148914  0.49562987  1
  O  O324  1  0.49971733  0.39043544  1.00399031  1
  O  O325  1  0.48563122  0.87183007  0.49597622  1
  O  O326  1  0.49605538  0.88138100  0.99095305  1
  O  O327  1  0.98378867  0.37370906  0.51398636  1
  O  O328  1  0.99083339  0.38394239  0.99168652  1
  O  O329  1  0.99915668  0.88762377  0.50486587  1
  O  O330  1  0.99026301  0.87257457  0.98850049  1
  O  O331  1  0.49389652  0.49637597  0.38155127  1
  O  O332  1  0.48929623  0.51179612  0.88449777  1
  O  O333  1  0.51732894  1.01086197  0.38634070  1
  O  O334  1  0.49747364  0.99729283  0.87985154  1
  O  O335  1  0.97956237  0.53881160  0.38656119  1
  O  O336  1  1.00255609  0.49024677  0.87998855  1
  O  O337  1  0.98713847  1.00916136  0.38512820  1
  O  O338  1  0.99972606  0.98419127  0.87039950  1
  O  O339  1  0.01593983  -0.00949205  0.12725655  1
  O  O340  1  0.00702713  0.00460001  0.62021015  1
  O  O341  1  -0.00614146  0.51524624  0.11138221  1
  O  O342  1  0.01255326  0.49834342  0.63699989  1
  O  O343  1  0.50713662  0.01092758  0.11687439  1
  O  O344  1  0.51560818  0.00602588  0.62725508  1
  O  O345  1  0.49260569  0.51239570  0.11530718  1
  O  O346  1  0.50474223  0.50511922  0.62127401  1
  O  O347  1  0.24019706  0.39397295  0.25777997  1
  O  O348  1  0.24307701  0.38567209  0.74731445  1
  O  O349  1  0.24053206  0.87150664  0.24299859  1
  O  O350  1  0.25525880  0.88231433  0.74107178  1
  O  O351  1  0.73952532  0.38672507  0.25541889  1
  O  O352  1  0.74482694  0.38231203  0.74555163  1
  O  O353  1  0.74060718  0.88623411  0.25923975  1
  O  O354  1  0.74541690  0.87985579  0.74461857  1
  O  O355  1  0.24107959  0.12988560  0.26972845  1
  O  O356  1  0.25408623  0.11982572  0.75939645  1
  O  O357  1  0.25690469  0.61215660  0.26216902  1
  O  O358  1  0.24771450  0.61445795  0.75901533  1
  O  O359  1  0.74133152  0.11886321  0.26604188  1
  O  O360  1  0.74838878  0.11702381  0.76028526  1
  O  O361  1  0.75290924  0.61129158  0.24723608  1
  O  O362  1  0.75604518  0.61867539  0.75765465  1
  O  O363  1  0.35739376  0.14088323  0.37618160  1
  O  O364  1  0.36977143  0.11995321  0.87402152  1
  O  O365  1  0.36826692  0.61997217  0.37119758  1
  O  O366  1  0.36240718  0.61965969  0.88238736  1
  O  O367  1  0.86959112  0.11715894  0.37733796  1
  O  O368  1  0.86612122  0.12606585  0.88553119  1
  O  O369  1  0.86125687  0.63876150  0.35298943  1
  O  O370  1  0.86252228  0.62900805  0.86706379  1
  O  O371  1  0.11774248  0.36892205  0.13815539  1
  O  O372  1  0.13015951  0.38377328  0.63280675  1
  O  O373  1  0.13479716  0.83696843  0.12755839  1
  O  O374  1  0.12624148  0.89050983  0.61560039  1
  O  O375  1  0.61941157  0.36727209  0.13987320  1
  O  O376  1  0.62951490  0.37761298  0.63274266  1
  O  O377  1  0.61933346  0.88876482  0.11646285  1
  O  O378  1  0.63128739  0.88287568  0.62796635  1
  O  O379  1  0.13250861  0.27796351  0.27141797  1
  O  O380  1  0.11712651  0.25366029  0.75852841  1
  O  O381  1  0.11112684  0.73320743  0.26547574  1
  O  O382  1  0.11278036  0.74005177  0.75809457  1
  O  O383  1  0.62561745  0.25695984  0.26339310  1
  O  O384  1  0.62868382  0.26007302  0.75935190  1
  O  O385  1  0.62420303  0.74784082  0.26048765  1
  O  O386  1  0.61685099  0.75670642  0.74891513  1
  O  O387  1  0.37349588  0.24632602  0.24002725  1
  O  O388  1  0.36951610  0.25193559  0.73683447  1
  O  O389  1  0.37901031  0.74199924  0.24334056  1
  O  O390  1  0.39134112  0.75341040  0.74251333  1
  O  O391  1  0.88951842  0.29718399  0.24349214  1
  O  O392  1  0.87650822  0.25328938  0.73889822  1
  O  O393  1  0.87719451  0.74474342  0.24095420  1
  O  O394  1  0.88198779  0.74125485  0.74381851  1
  O  O395  1  0.38075563  0.49563268  0.49698914  1
  O  O396  1  0.38367513  0.49946998  0.99194197  1
  O  O397  1  0.37130784  0.98202529  0.50896770  1
  O  O398  1  0.38224674  0.99495610  0.98815628  1
  O  O399  1  0.86684240  0.48247907  0.51030779  1
  O  O400  1  0.88159603  0.49141402  0.99415490  1
  O  O401  1  0.88315414  0.99590904  0.49453997  1
  O  O402  1  0.87289851  0.98537814  0.99761907  1
  O  O403  1  0.13218974  0.00923820  -0.01078808  1
  O  O404  1  0.11471208  0.01023065  0.50131795  1
  O  O405  1  0.11014547  0.51088798  -0.00673363  1
  O  O406  1  0.12789038  0.51414313  0.51255239  1
  O  O407  1  0.62104003  0.00596658  0.00444108  1
  O  O408  1  0.63295799  0.00169670  0.50425482  1
  O  O409  1  0.61852298  0.51062825  -0.00700863  1
  O  O410  1  0.62234910  0.50347166  0.50651169  1
  O  O411  1  0.37904629  0.35764951  0.12750506  1
  O  O412  1  0.37084298  0.36958519  0.62053213  1
  O  O413  1  0.38252472  0.86603132  0.11399862  1
  O  O414  1  0.37973319  0.86084321  0.61584943  1
  O  O415  1  0.87689775  0.38265693  0.10663334  1
  O  O416  1  0.86560929  0.36440528  0.62178668  1
  O  O417  1  0.87593040  0.86131241  0.11466685  1
  O  O418  1  0.86836554  0.86063383  0.62285800  1
  O  O419  1  0.13319579  0.14015048  0.39183675  1
  O  O420  1  0.13353631  0.13227287  0.87519836  1
  O  O421  1  0.13282196  0.62653177  0.39268657  1
  O  O422  1  0.13618240  0.62947833  0.87998603  1
  O  O423  1  0.62497711  0.12618947  0.38387568  1
  O  O424  1  0.63411526  0.13128327  0.88124865  1
  O  O425  1  0.62611180  0.62883247  0.38613983  1
  O  O426  1  0.63889933  0.62756246  0.88115067  1
