# generated using pymatgen
data_V85Zn86O256
_symmetry_space_group_name_H-M   'P 1'
_cell_length_a   16.92968181
_cell_length_b   16.93142624
_cell_length_c   16.94177412
_cell_angle_alpha   89.98784292
_cell_angle_beta   90.03916538
_cell_angle_gamma   90.02121547
_symmetry_Int_Tables_number   1
_chemical_formula_structural   V85Zn86O256
_chemical_formula_sum   'V85 Zn86 O256'
_cell_volume   4856.25054446
_cell_formula_units_Z   1
loop_
 _symmetry_equiv_pos_site_id
 _symmetry_equiv_pos_as_xyz
  1  'x, y, z'
loop_
 _atom_site_type_symbol
 _atom_site_label
 _atom_site_symmetry_multiplicity
 _atom_site_fract_x
 _atom_site_fract_y
 _atom_site_fract_z
 _atom_site_occupancy
  V  V0  1  0.63485783  0.50137920  0.62315192  1
  V  V1  1  0.72995637  0.62989838  0.88538222  1
  V  V2  1  0.37587770  0.62587515  0.25090221  1
  V  V3  1  0.12181550  0.24684426  0.37309777  1
  V  V4  1  0.63503528  0.37113068  0.75047271  1
  V  V5  1  0.37450237  0.24952128  0.12474968  1
  V  V6  1  0.11662441  0.36916299  0.25007076  1
  V  V7  1  0.88305311  0.12863826  0.25044925  1
  V  V8  1  0.75381074  0.49440671  0.24385367  1
  V  V9  1  -0.00281979  0.62567272  0.63032934  1
  V  V10  1  0.00245735  -0.00135865  0.50116746  1
  V  V11  1  0.11351450  0.12073979  -0.00436758  1
  V  V12  1  0.37604567  0.37903054  -0.00146192  1
  V  V13  1  0.62426754  0.63036705  0.48978393  1
  V  V14  1  0.62813954  0.12007610  0.50621471  1
  V  V15  1  0.87935036  0.63560401  0.24866316  1
  V  V16  1  -0.00045374  0.50069333  0.00270283  1
  V  V17  1  0.12044343  0.24995399  0.87294597  1
  V  V18  1  0.24828502  0.37373058  0.12668476  1
  V  V19  1  0.74413812  0.00218338  0.75180412  1
  V  V20  1  0.37917779  0.36783184  0.50954342  1
  V  V21  1  0.62784370  0.86761290  0.25548711  1
  V  V22  1  0.62672981  -0.00338660  0.12272294  1
  V  V23  1  0.38055090  0.75053861  0.12279232  1
  V  V24  1  0.00102608  0.87102825  0.37193973  1
  V  V25  1  0.87394755  0.86731073  0.01705363  1
  V  V26  1  0.75100647  -0.00253112  0.24466178  1
  V  V27  1  0.25170364  0.87500156  0.63335275  1
  V  V28  1  0.87683648  0.51433543  0.87411068  1
  V  V29  1  0.87369066  0.49696015  0.37959841  1
  V  V30  1  0.74651144  0.87853084  0.62585423  1
  V  V31  1  0.87528607  0.12408393  0.74316679  1
  V  V32  1  0.63279810  0.13888786  -0.00572131  1
  V  V33  1  0.87202287  0.27065527  0.62002545  1
  V  V34  1  0.24393882  0.62421238  0.38104445  1
  V  V35  1  0.11322118  0.87261856  0.74872052  1
  V  V36  1  0.87823851  0.00032539  0.37462257  1
  V  V37  1  0.25294409  0.24859047  0.50781606  1
  V  V38  1  0.88174479  -0.00100971  0.88285911  1
  V  V39  1  0.62971827  0.37041365  0.24451537  1
  V  V40  1  0.24826579  0.49773051  0.25197398  1
  V  V41  1  0.50169377  0.25163366  0.73648394  1
  V  V42  1  0.24856524  0.24760493  -0.00123191  1
  V  V43  1  0.11973937  -0.00084508  0.12089002  1
  V  V44  1  0.11769106  0.74549422  0.37498061  1
  V  V45  1  0.50231234  0.86657320  0.37678812  1
  V  V46  1  0.74957524  0.12617337  0.37668699  1
  V  V47  1  0.50157593  0.50078775  0.50132458  1
  V  V48  1  0.37520959  0.12333936  0.25055228  1
  V  V49  1  -0.00361876  0.37168737  0.38413938  1
  V  V50  1  0.12756928  0.62774813  0.00112897  1
  V  V51  1  0.50085891  0.00398665  -0.00944702  1
  V  V52  1  0.48919990  0.75248330  0.74141382  1
  V  V53  1  0.24883753  0.11995822  0.87058404  1
  V  V54  1  0.74810998  0.75182645  0.49216343  1
  V  V55  1  0.50009647  0.36963471  0.37247418  1
  V  V56  1  0.50243636  0.36861960  0.87268599  1
  V  V57  1  0.62043471  0.87055896  0.74710816  1
  V  V58  1  0.87641625  0.87172090  0.50092804  1
  V  V59  1  0.24569100  0.74825419  0.50567080  1
  V  V60  1  0.12017547  0.86940480  0.24760001  1
  V  V61  1  0.13298747  0.38293542  0.74959023  1
  V  V62  1  0.62340648  0.50239370  0.11982879  1
  V  V63  1  0.87683103  0.74683916  0.64063074  1
  V  V64  1  0.49898196  0.12472695  0.12221145  1
  V  V65  1  0.37153687  0.12825030  0.74440151  1
  V  V66  1  0.37280800  -0.00480960  0.86988833  1
  V  V67  1  0.37373411  0.49694692  0.37566009  1
  V  V68  1  0.12289809  0.50026976  0.12656605  1
  V  V69  1  0.13175729  0.50712550  0.61843602  1
  V  V70  1  -0.00177872  0.37708776  0.87462192  1
  V  V71  1  0.12705363  0.12340856  0.50006879  1
  V  V72  1  0.36797686  0.50108098  0.85823384  1
  V  V73  1  0.25251178  0.87556963  0.12330889  1
  V  V74  1  0.86194700  0.37418379  0.00139329  1
  V  V75  1  0.86229512  0.25757044  0.12675796  1
  V  V76  1  0.37558825  -0.00323841  0.37576936  1
  V  V77  1  0.12877325  0.00079718  0.63161990  1
  V  V78  1  0.00152297  0.13502948  0.12414204  1
  V  V79  1  0.37396002  0.87052529  0.50583652  1
  V  V80  1  0.12009442  0.74867996  0.86996848  1
  V  V81  1  -0.00191745  0.63979249  0.12939500  1
  V  V82  1  0.55351645  0.82341279  0.92035785  1
  V  V83  1  0.75329131  0.51267453  0.74953833  1
  V  V84  1  0.50278277  0.11577503  0.62687303  1
  Zn  Zn85  1  -0.00076747  0.25168985  0.74566832  1
  Zn  Zn86  1  0.50065004  0.62343431  0.11919941  1
  Zn  Zn87  1  0.50477216  -0.00501965  0.50552124  1
  Zn  Zn88  1  0.75662284  0.26392354  0.49885353  1
  Zn  Zn89  1  -0.00269384  0.50414158  0.50105906  1
  Zn  Zn90  1  -0.00041771  0.12932321  0.62299473  1
  Zn  Zn91  1  0.25495256  0.37651901  0.63095077  1
  Zn  Zn92  1  0.49995832  0.63046749  0.62333027  1
  Zn  Zn93  1  0.74608097  0.14115953  0.87126415  1
  Zn  Zn94  1  0.50664038  0.50533882  -0.00929215  1
  Zn  Zn95  1  0.25097244  0.74945083  -0.00119304  1
  Zn  Zn96  1  0.25227642  0.12381885  0.37638260  1
  Zn  Zn97  1  0.24601281  0.62124110  0.86707182  1
  Zn  Zn98  1  0.50424450  0.74438283  0.25683252  1
  Zn  Zn99  1  0.74850533  0.62814764  0.37136981  1
  Zn  Zn100  1  0.24975982  -0.00102600  0.25047351  1
  Zn  Zn101  1  0.74988625  0.75103226  0.00337573  1
  Zn  Zn102  1  0.50189936  0.24764008  0.24944305  1
  Zn  Zn103  1  0.37610115  0.87330346  -0.00560418  1
  Zn  Zn104  1  0.62785857  0.24714990  0.37272708  1
  Zn  Zn105  1  -0.00241694  0.87394205  0.87903298  1
  Zn  Zn106  1  0.35972063  0.63055189  0.72967798  1
  Zn  Zn107  1  0.18891383  0.18586664  0.18849658  1
  Zn  Zn108  1  0.18557382  0.19013358  0.68862493  1
  Zn  Zn109  1  0.19057009  0.68893011  0.18853544  1
  Zn  Zn110  1  0.18333187  0.68646284  0.68837997  1
  Zn  Zn111  1  0.68794701  0.18271032  0.18672603  1
  Zn  Zn112  1  0.69010782  0.19032503  0.68306317  1
  Zn  Zn113  1  0.69781528  0.68097368  0.18622298  1
  Zn  Zn114  1  0.68423281  0.68997499  0.68643075  1
  Zn  Zn115  1  0.31001443  0.30869299  0.31626755  1
  Zn  Zn116  1  0.31399444  0.30736159  0.81221156  1
  Zn  Zn117  1  0.30957102  0.81078904  0.31237700  1
  Zn  Zn118  1  0.30516554  0.80811496  0.81274588  1
  Zn  Zn119  1  0.81476626  0.31098346  0.31014511  1
  Zn  Zn120  1  0.81445689  0.31554949  0.80868979  1
  Zn  Zn121  1  0.81323445  0.81449674  0.31061141  1
  Zn  Zn122  1  0.80633118  0.81374255  0.81898524  1
  Zn  Zn123  1  0.18678693  0.43361356  0.44175103  1
  Zn  Zn124  1  0.18776882  0.43790964  0.93851945  1
  Zn  Zn125  1  0.18930762  0.93503492  0.43820668  1
  Zn  Zn126  1  0.18637812  0.93722949  0.93620153  1
  Zn  Zn127  1  0.68979453  0.43890011  0.43002423  1
  Zn  Zn128  1  0.68889161  0.43904566  0.93235811  1
  Zn  Zn129  1  0.68823039  0.94070913  0.43686538  1
  Zn  Zn130  1  0.69745052  0.94552371  0.93908501  1
  Zn  Zn131  1  0.30954859  0.06005238  0.05895904  1
  Zn  Zn132  1  0.31454419  0.05975718  0.56449726  1
  Zn  Zn133  1  0.31412243  0.56185432  0.06170547  1
  Zn  Zn134  1  0.31349977  0.56156899  0.56236101  1
  Zn  Zn135  1  0.81354646  0.06372057  0.06267652  1
  Zn  Zn136  1  0.81145864  0.06081811  0.56253642  1
  Zn  Zn137  1  0.81177501  0.56318322  0.06391089  1
  Zn  Zn138  1  0.81364685  0.56774005  0.56131263  1
  Zn  Zn139  1  0.43918386  0.43691986  0.18754288  1
  Zn  Zn140  1  0.44532033  0.43877094  0.68423584  1
  Zn  Zn141  1  0.44250016  0.93663281  0.18693732  1
  Zn  Zn142  1  0.43561653  0.93802077  0.69134094  1
  Zn  Zn143  1  0.93797119  0.43870140  0.18997615  1
  Zn  Zn144  1  0.94128843  0.44457542  0.69209084  1
  Zn  Zn145  1  0.94224799  0.94098798  0.18547426  1
  Zn  Zn146  1  0.93424945  0.93984203  0.68635219  1
  Zn  Zn147  1  0.06441886  0.05937621  0.31032620  1
  Zn  Zn148  1  0.05794843  0.06166462  0.80860511  1
  Zn  Zn149  1  0.05906394  0.55969668  0.31330376  1
  Zn  Zn150  1  0.06366655  0.56424223  0.80828785  1
  Zn  Zn151  1  0.56123458  0.05752635  0.31472464  1
  Zn  Zn152  1  0.56508296  0.06430409  0.81242697  1
  Zn  Zn153  1  0.56379345  0.55747491  0.31082305  1
  Zn  Zn154  1  0.55681421  0.56207552  0.81006919  1
  Zn  Zn155  1  0.44093488  0.18551505  0.44123647  1
  Zn  Zn156  1  0.43874363  0.18899172  0.93290416  1
  Zn  Zn157  1  0.43204527  0.68713740  0.44145007  1
  Zn  Zn158  1  0.43651563  0.68061593  0.93804285  1
  Zn  Zn159  1  0.93876095  0.18971936  0.44171777  1
  Zn  Zn160  1  0.90388465  0.20630053  0.92129340  1
  Zn  Zn161  1  0.93666924  0.68350401  0.44216000  1
  Zn  Zn162  1  0.93972949  0.69297037  0.94274905  1
  Zn  Zn163  1  0.05841037  0.31036497  0.05948538  1
  Zn  Zn164  1  0.06286160  0.31356062  0.56455083  1
  Zn  Zn165  1  0.05773807  0.81551026  0.05633836  1
  Zn  Zn166  1  0.06185405  0.80842561  0.56305377  1
  Zn  Zn167  1  0.56091547  0.31579596  0.06413353  1
  Zn  Zn168  1  0.59833440  0.32629212  0.54745651  1
  Zn  Zn169  1  0.59725290  0.78598485  0.09427159  1
  Zn  Zn170  1  0.56477782  0.81408888  0.56370573  1
  O  O171  1  0.12159353  0.11957039  0.11849515  1
  O  O172  1  0.12499157  0.11660003  0.61969214  1
  O  O173  1  0.12078591  0.62031262  0.12214939  1
  O  O174  1  0.11657147  0.61334020  0.62453145  1
  O  O175  1  0.61812138  0.11572118  0.11815398  1
  O  O176  1  0.61807108  0.12646547  0.61848364  1
  O  O177  1  0.61978132  0.60513086  0.13758796  1
  O  O178  1  0.62099264  0.61802279  0.61511801  1
  O  O179  1  0.38201247  0.37921238  0.37992717  1
  O  O180  1  0.37885642  0.38094117  0.87973511  1
  O  O181  1  0.37898833  0.87963932  0.38060684  1
  O  O182  1  0.36162073  0.89160528  0.87351235  1
  O  O183  1  0.88566198  0.38137558  0.36729721  1
  O  O184  1  0.88392275  0.38725474  0.88307803  1
  O  O185  1  0.88223258  0.87988174  0.37907282  1
  O  O186  1  0.87573963  0.88878565  0.87316602  1
  O  O187  1  0.26286147  -0.00085724  0.37340289  1
  O  O188  1  0.25529281  0.01356700  0.87936902  1
  O  O189  1  0.25101291  0.50602383  0.37275958  1
  O  O190  1  0.26514822  0.49611501  0.87713715  1
  O  O191  1  0.75930457  0.00990750  0.36891464  1
  O  O192  1  0.76161547  0.00822827  0.86543738  1
  O  O193  1  0.75606640  0.50195003  0.36219503  1
  O  O194  1  0.75676589  0.51323503  0.87033655  1
  O  O195  1  0.24356282  0.49298834  0.13116194  1
  O  O196  1  0.23574579  0.49620462  0.61889801  1
  O  O197  1  0.24011104  0.99341412  0.12647914  1
  O  O198  1  0.23888454  0.98842192  0.61726529  1
  O  O199  1  0.74087715  0.50201468  0.13585623  1
  O  O200  1  0.74252728  0.50887807  0.63262498  1
  O  O201  1  0.74132058  1.00678495  0.13439307  1
  O  O202  1  0.75772550  0.98529122  0.63333277  1
  O  O203  1  0.01307683  0.37876491  0.25879026  1
  O  O204  1  0.00845242  0.37767787  0.76305844  1
  O  O205  1  0.01049922  0.87897533  0.25571676  1
  O  O206  1  0.01074415  0.87880967  0.74881005  1
  O  O207  1  0.50443293  0.37204725  0.25792507  1
  O  O208  1  0.50778779  0.36848480  0.75370615  1
  O  O209  1  0.50834062  0.87421304  0.26023553  1
  O  O210  1  0.50623146  0.86596655  0.74832073  1
  O  O211  1  0.48994869  0.12302978  0.24361570  1
  O  O212  1  0.49790402  0.13250339  0.74510473  1
  O  O213  1  0.48610613  0.62311674  0.25349461  1
  O  O214  1  0.50113234  0.64417549  0.75041596  1
  O  O215  1  0.98873939  0.11978861  0.24428945  1
  O  O216  1  0.99100561  0.12824907  0.74385242  1
  O  O217  1  0.98791718  0.62015249  0.24380410  1
  O  O218  1  1.00008855  0.62185574  0.73240557  1
  O  O219  1  0.37017463  0.25988222  0.00214792  1
  O  O220  1  0.36675197  0.25738985  0.49267419  1
  O  O221  1  0.37261772  0.75327636  0.00840678  1
  O  O222  1  0.36281853  0.76269270  0.49493785  1
  O  O223  1  0.88953439  0.26247252  0.02078372  1
  O  O224  1  0.87385059  0.24996056  0.51413613  1
  O  O225  1  0.87218596  0.76204574  0.00584144  1
  O  O226  1  0.86594230  0.75634473  0.50577834  1
  O  O227  1  0.13061622  0.24288922  0.49470875  1
  O  O228  1  0.12895713  0.24301812  0.99209803  1
  O  O229  1  0.13419698  0.75573832  0.48774725  1
  O  O230  1  0.12705421  0.74211282  0.99637407  1
  O  O231  1  0.62215765  0.22847774  0.49088220  1
  O  O232  1  0.62201952  0.23687902  1.00714791  1
  O  O233  1  0.63424690  0.74201629  0.50656938  1
  O  O234  1  0.60844482  0.76490228  0.97936748  1
  O  O235  1  0.49108857  0.24306529  0.12611068  1
  O  O236  1  0.50612626  0.24165892  0.63577608  1
  O  O237  1  0.49134729  0.74818064  0.13313772  1
  O  O238  1  0.50026867  0.75257871  0.63790268  1
  O  O239  1  1.00234903  0.23803824  0.13010665  1
  O  O240  1  0.98774598  0.24983367  0.62436826  1
  O  O241  1  1.00708833  0.73869063  0.12678242  1
  O  O242  1  0.98522908  0.74407975  0.62188497  1
  O  O243  1  0.01255873  0.25521344  0.37866720  1
  O  O244  1  0.00138485  0.26125399  0.87402786  1
  O  O245  1  0.01107629  0.75184245  0.37978786  1
  O  O246  1  0.01422204  0.75412162  0.88095387  1
  O  O247  1  0.50001846  0.26024258  0.37274054  1
  O  O248  1  0.49606322  0.26343215  0.86504030  1
  O  O249  1  0.49394309  0.76233607  0.37562435  1
  O  O250  1  0.49201482  0.75887903  0.86703753  1
  O  O251  1  0.24617461  0.13072796  0.49854356  1
  O  O252  1  0.24114604  0.13065801  0.99258796  1
  O  O253  1  0.25330704  0.63211883  0.48836957  1
  O  O254  1  0.23651621  0.62294286  0.99956270  1
  O  O255  1  0.74501689  0.12340176  0.49206605  1
  O  O256  1  0.73458785  0.12155550  1.00092065  1
  O  O257  1  0.74266460  0.63514347  0.49679493  1
  O  O258  1  0.75015573  0.62465092  0.98842955  1
  O  O259  1  0.25480750  0.36782440  0.00636050  1
  O  O260  1  0.26248392  0.36679365  0.50020372  1
  O  O261  1  0.25041103  0.87524339  0.01357057  1
  O  O262  1  0.25560550  0.86733419  0.50728287  1
  O  O263  1  0.76292866  0.37893613  -0.00356881  1
  O  O264  1  0.70389364  0.36369956  0.50827456  1
  O  O265  1  0.76909946  0.87455113  -0.00811329  1
  O  O266  1  0.75346010  0.87143347  0.50734985  1
  O  O267  1  0.13036829  0.49127260  0.24652850  1
  O  O268  1  0.12144569  0.49207914  0.73696996  1
  O  O269  1  0.12914007  0.98974032  0.24238181  1
  O  O270  1  0.12334491  0.99435728  0.73764363  1
  O  O271  1  0.63335130  0.49074145  0.24431471  1
  O  O272  1  0.63093442  0.49695180  0.74203442  1
  O  O273  1  0.63344173  0.99821492  0.24353031  1
  O  O274  1  0.63711908  0.99267813  0.75566756  1
  O  O275  1  0.37476178  0.00537697  0.25616747  1
  O  O276  1  0.38012128  0.01476168  0.75924231  1
  O  O277  1  0.36788265  0.50439254  0.25541443  1
  O  O278  1  0.37615905  0.49596142  0.75700866  1
  O  O279  1  0.86950174  0.00726468  0.25319306  1
  O  O280  1  0.86484834  0.00462451  0.75394378  1
  O  O281  1  0.86880337  0.50408262  0.25686221  1
  O  O282  1  0.86400568  0.49664989  0.76109629  1
  O  O283  1  0.11979983  0.36715786  0.36912229  1
  O  O284  1  0.11862736  0.37282863  0.86983527  1
  O  O285  1  0.12183050  0.86805113  0.36630491  1
  O  O286  1  0.12374218  0.87052501  0.86575851  1
  O  O287  1  0.61534610  0.37346527  0.35992349  1
  O  O288  1  0.61608148  0.38430911  0.86100075  1
  O  O289  1  0.61452325  0.88446302  0.36768049  1
  O  O290  1  0.62252525  0.88185474  0.86814789  1
  O  O291  1  0.37797914  0.12818446  0.13007698  1
  O  O292  1  0.38359629  0.12162610  0.63440412  1
  O  O293  1  0.37247557  0.63239423  0.13486930  1
  O  O294  1  0.38763679  0.61666397  0.62148910  1
  O  O295  1  0.88275839  0.13369303  0.12913639  1
  O  O296  1  0.87688363  0.12116454  0.63524434  1
  O  O297  1  0.88346466  0.61971473  0.13838078  1
  O  O298  1  0.87771112  0.63938081  0.62685547  1
  O  O299  1  0.25472187  0.25464043  0.11931785  1
  O  O300  1  0.24420451  0.25453892  0.61152751  1
  O  O301  1  0.26262493  0.75710719  0.12458255  1
  O  O302  1  0.23978046  0.75757267  0.61185323  1
  O  O303  1  0.76422892  0.24622255  0.12483066  1
  O  O304  1  0.76816029  0.24891442  0.62281189  1
  O  O305  1  0.70696976  0.75512217  0.10754543  1
  O  O306  1  0.75924836  0.75812509  0.62008220  1
  O  O307  1  0.23802420  0.24813286  0.38596483  1
  O  O308  1  0.24219367  0.24007897  0.87966135  1
  O  O309  1  0.24102433  0.74259065  0.38154945  1
  O  O310  1  0.23613939  0.74743104  0.88122651  1
  O  O311  1  0.75373859  0.23656086  0.37668563  1
  O  O312  1  0.79549312  0.24169227  0.88845884  1
  O  O313  1  0.75321629  0.75175503  0.38833481  1
  O  O314  1  0.75011010  0.73322563  0.87870739  1
  O  O315  1  0.01143851  0.13004783  0.00601473  1
  O  O316  1  0.00869626  0.11596293  0.50071639  1
  O  O317  1  0.00915476  0.62075662  0.01020603  1
  O  O318  1  -0.00720781  0.62098919  0.51771837  1
  O  O319  1  0.50729312  0.12036231  0.00211786  1
  O  O320  1  0.50491396  0.11988093  0.51060240  1
  O  O321  1  0.49413182  0.61582201  0.00617525  1
  O  O322  1  0.50630128  0.61697488  0.49572820  1
  O  O323  1  0.49905365  0.37925020  0.49279405  1
  O  O324  1  0.49257893  0.37722413  0.99092111  1
  O  O325  1  0.49224395  0.87495372  0.49640112  1
  O  O326  1  0.49879979  0.88347205  0.98745854  1
  O  O327  1  1.00419525  0.37807688  0.48657628  1
  O  O328  1  0.99861842  0.38269781  0.99026793  1
  O  O329  1  0.99654676  0.87952654  0.49312458  1
  O  O330  1  0.98154151  0.87715748  0.99825612  1
  O  O331  1  0.49731811  0.48912532  0.38366264  1
  O  O332  1  0.48735206  0.48792269  0.87156841  1
  O  O333  1  0.48802836  0.98968304  0.37755469  1
  O  O334  1  0.49021982  1.00909059  0.88372663  1
  O  O335  1  0.99210997  0.49149253  0.37780881  1
  O  O336  1  0.99517512  0.49720306  0.88080669  1
  O  O337  1  0.99664449  0.99362181  0.38124085  1
  O  O338  1  0.98590506  0.99616822  0.87038495  1
  O  O339  1  0.01361974  0.01349218  0.12848293  1
  O  O340  1  0.00888048  -0.00133792  0.61524321  1
  O  O341  1  0.00723662  0.50504656  0.12094045  1
  O  O342  1  0.00597816  0.50759052  0.62197662  1
  O  O343  1  0.50303802  0.00650314  0.11155731  1
  O  O344  1  0.49955284  0.01153330  0.62756395  1
  O  O345  1  0.51313701  0.49803540  0.12568301  1
  O  O346  1  0.51249080  0.49857073  0.61118360  1
  O  O347  1  0.24157737  0.37826225  0.24656608  1
  O  O348  1  0.23748479  0.36751874  0.74977030  1
  O  O349  1  0.24254887  0.87547574  0.23848085  1
  O  O350  1  0.24072163  0.87018195  0.73654557  1
  O  O351  1  0.74168470  0.38084363  0.25318790  1
  O  O352  1  0.73882959  0.38800470  0.75857556  1
  O  O353  1  0.74339279  0.88944151  0.25829159  1
  O  O354  1  0.74129493  0.87993533  0.74517652  1
  O  O355  1  0.26318529  0.12190532  0.25228062  1
  O  O356  1  0.25846262  0.13241939  0.75804655  1
  O  O357  1  0.25881608  0.61989344  0.25943468  1
  O  O358  1  0.25038703  0.62842019  0.75404120  1
  O  O359  1  0.76030258  0.11690939  0.25579412  1
  O  O360  1  0.75420050  0.11837328  0.75030627  1
  O  O361  1  0.76228377  0.61636900  0.25225191  1
  O  O362  1  0.74237489  0.61766636  0.76130792  1
  O  O363  1  0.37745330  0.11611652  0.36792330  1
  O  O364  1  0.36590043  0.11982912  0.86973874  1
  O  O365  1  0.36605847  0.61764944  0.37055605  1
  O  O366  1  0.37292617  0.60683001  0.87174843  1
  O  O367  1  0.87282847  0.12195910  0.36783550  1
  O  O368  1  0.88024188  0.11030667  0.85953644  1
  O  O369  1  0.87599574  0.61713435  0.36332225  1
  O  O370  1  0.87754102  0.61571574  0.88232643  1
  O  O371  1  0.12731151  0.37705603  0.13213833  1
  O  O372  1  0.12441665  0.38486810  0.63408820  1
  O  O373  1  0.12829430  0.88038251  0.12893144  1
  O  O374  1  0.12907985  0.88019639  0.63020144  1
  O  O375  1  0.61964429  0.38233988  0.13798362  1
  O  O376  1  0.61930836  0.38772986  0.64408882  1
  O  O377  1  0.61291789  0.89312944  0.13912947  1
  O  O378  1  0.63507198  0.87470827  0.63315946  1
  O  O379  1  0.13181652  0.25701574  0.25991687  1
  O  O380  1  0.11950845  0.25817326  0.75688774  1
  O  O381  1  0.13119517  0.76083765  0.25849429  1
  O  O382  1  0.12434951  0.76002272  0.75767422  1
  O  O383  1  0.62408556  0.25443219  0.25066905  1
  O  O384  1  0.62356834  0.26491876  0.74758857  1
  O  O385  1  0.62628505  0.76431483  0.25090718  1
  O  O386  1  0.61629434  0.76319592  0.75014021  1
  O  O387  1  0.37488093  0.24066592  0.24501690  1
  O  O388  1  0.38592872  0.23823267  0.75301400  1
  O  O389  1  0.37470747  0.74082905  0.24512640  1
  O  O390  1  0.38580362  0.75258752  0.75123525  1
  O  O391  1  0.87514847  0.24239796  0.23715633  1
  O  O392  1  0.87762500  0.24348395  0.73586893  1
  O  O393  1  0.87030868  0.73479109  0.25194760  1
  O  O394  1  0.87015365  0.75685149  0.73827064  1
  O  O395  1  0.38409526  0.48990789  0.49304439  1
  O  O396  1  0.37303824  0.48584935  0.99638047  1
  O  O397  1  0.37618234  0.98771184  0.49270244  1
  O  O398  1  0.38396351  0.99973282  0.99191623  1
  O  O399  1  0.86910644  0.50296510  0.48350968  1
  O  O400  1  0.88144914  0.49328491  0.99713457  1
  O  O401  1  0.88204019  0.99284504  0.49469545  1
  O  O402  1  0.87128248  0.99877197  0.98622516  1
  O  O403  1  0.12846107  0.00884434  0.00783172  1
  O  O404  1  0.12142400  0.00392458  0.50538874  1
  O  O405  1  0.11951016  0.50657695  0.00592639  1
  O  O406  1  0.12074994  0.49385944  0.51503153  1
  O  O407  1  0.61850641  0.00524852  0.00515627  1
  O  O408  1  0.62206970  0.01296356  0.49557749  1
  O  O409  1  0.62696639  0.48941988  0.01692392  1
  O  O410  1  0.61996511  0.50924222  0.50494903  1
  O  O411  1  0.37021032  0.36982689  0.11825484  1
  O  O412  1  0.37677664  0.37807637  0.61283004  1
  O  O413  1  0.36894450  0.86891940  0.12484710  1
  O  O414  1  0.36493147  0.88137901  0.61762148  1
  O  O415  1  0.87961978  0.36462260  0.12175249  1
  O  O416  1  0.87770983  0.36915403  0.62878343  1
  O  O417  1  0.87325073  0.88366439  0.11571508  1
  O  O418  1  0.87035019  0.86550809  0.61979321  1
  O  O419  1  0.12738916  0.13032535  0.37888284  1
  O  O420  1  0.12848573  0.12679056  0.87876549  1
  O  O421  1  0.13275479  0.63190270  0.36682280  1
  O  O422  1  0.12282749  0.62976092  0.88433378  1
  O  O423  1  0.63550066  0.12275465  0.37689055  1
  O  O424  1  0.62720008  0.12720564  0.88903693  1
  O  O425  1  0.62723352  0.62079018  0.38522290  1
  O  O426  1  0.63174664  0.61828199  0.87918908  1
