# generated using pymatgen
data_V85Zn86O256
_symmetry_space_group_name_H-M   'P 1'
_cell_length_a   16.96947564
_cell_length_b   16.96011504
_cell_length_c   16.97027501
_cell_angle_alpha   90.02775627
_cell_angle_beta   90.01370489
_cell_angle_gamma   89.98261755
_symmetry_Int_Tables_number   1
_chemical_formula_structural   V85Zn86O256
_chemical_formula_sum   'V85 Zn86 O256'
_cell_volume   4884.11648671
_cell_formula_units_Z   1
loop_
 _symmetry_equiv_pos_site_id
 _symmetry_equiv_pos_as_xyz
  1  'x, y, z'
loop_
 _atom_site_type_symbol
 _atom_site_label
 _atom_site_symmetry_multiplicity
 _atom_site_fract_x
 _atom_site_fract_y
 _atom_site_fract_z
 _atom_site_occupancy
  V  V0  1  0.00307972  0.50148957  -0.00301168  1
  V  V1  1  0.13050672  0.49910100  0.61981256  1
  V  V2  1  0.37653431  0.74544291  0.62235909  1
  V  V3  1  0.00450947  0.87814067  0.85579901  1
  V  V4  1  0.87039687  0.11724734  0.25363429  1
  V  V5  1  0.37286194  0.00019900  0.37645624  1
  V  V6  1  0.37390750  0.12547845  0.25157404  1
  V  V7  1  0.63171046  0.12972743  0.49971351  1
  V  V8  1  0.24695585  -0.00401895  0.24949705  1
  V  V9  1  0.62637934  0.61733369  0.49588868  1
  V  V10  1  0.24816391  0.63379370  0.37989251  1
  V  V11  1  0.49743130  0.87107924  0.37388288  1
  V  V12  1  0.50014372  0.62730101  0.12095455  1
  V  V13  1  0.66854984  0.57046732  0.05702823  1
  V  V14  1  0.12277725  0.74983375  0.85927327  1
  V  V15  1  0.88295055  0.75578802  0.12628911  1
  V  V16  1  0.10721079  0.87075123  0.25353232  1
  V  V17  1  0.74319288  -0.00632829  0.74439556  1
  V  V18  1  -0.03809385  0.52371446  0.54149228  1
  V  V19  1  0.50125625  0.37444849  0.87173071  1
  V  V20  1  0.37331047  0.76056716  0.11938460  1
  V  V21  1  0.75431921  0.11714986  0.87622370  1
  V  V22  1  0.12686378  0.37432123  0.74956980  1
  V  V23  1  0.50003666  0.24961318  0.75230304  1
  V  V24  1  0.50336700  0.61736017  0.62751813  1
  V  V25  1  0.73388820  0.36951128  0.62204552  1
  V  V26  1  0.24809622  0.75957634  -0.00449531  1
  V  V27  1  0.85004619  0.87217208  0.50030734  1
  V  V28  1  0.49995318  0.50054733  0.00614439  1
  V  V29  1  0.85995473  0.50215185  0.36568635  1
  V  V30  1  0.72871444  0.48946952  0.75035047  1
  V  V31  1  0.50190789  0.37356500  0.37477790  1
  V  V32  1  0.49453873  -0.01160964  0.00264120  1
  V  V33  1  0.87745077  0.50283820  0.86405369  1
  V  V34  1  0.50136675  0.24904716  0.25033631  1
  V  V35  1  0.37485684  0.62519650  0.24873559  1
  V  V36  1  0.62624889  0.24939246  0.87201071  1
  V  V37  1  0.87418923  0.11874675  0.75280425  1
  V  V38  1  0.25016538  0.12271859  0.87583249  1
  V  V39  1  0.37225350  0.24904117  0.62365282  1
  V  V40  1  0.75321185  0.10961363  0.37416188  1
  V  V41  1  0.37919581  0.63075847  0.75455567  1
  V  V42  1  -0.00272867  0.24924729  0.75065722  1
  V  V43  1  0.12842049  0.63113415  -0.00292847  1
  V  V44  1  0.24896252  0.50090449  0.25029296  1
  V  V45  1  0.12478220  0.37275882  0.25522254  1
  V  V46  1  0.74556007  0.62384798  0.87068239  1
  V  V47  1  0.25187642  0.50427902  0.75370438  1
  V  V48  1  0.12653291  0.50143986  0.12541724  1
  V  V49  1  0.24922645  0.87042166  0.63306002  1
  V  V50  1  0.37538959  0.24836615  0.12485295  1
  V  V51  1  0.75204095  0.25420152  0.00630664  1
  V  V52  1  -0.00253278  0.12706382  0.62000662  1
  V  V53  1  0.25053450  0.37556466  0.12634332  1
  V  V54  1  0.62415208  0.75009084  0.87367052  1
  V  V55  1  0.87737614  0.87486202  -0.01297583  1
  V  V56  1  -0.00725576  -0.01164527  0.48881122  1
  V  V57  1  0.12583314  -0.00235698  0.62830398  1
  V  V58  1  0.63709929  0.74856091  0.37587846  1
  V  V59  1  0.37433420  0.11665406  0.75119876  1
  V  V60  1  0.49700137  0.00089137  0.49999020  1
  V  V61  1  0.75381128  0.88368698  0.13456935  1
  V  V62  1  -0.00141055  0.13113122  0.12638350  1
  V  V63  1  0.50263943  0.12509456  0.62403192  1
  V  V64  1  -0.00487664  -0.00097145  -0.00184226  1
  V  V65  1  0.12341618  0.12539034  0.00129148  1
  V  V66  1  0.37676629  0.50057913  0.37765063  1
  V  V67  1  0.37054945  0.50463204  0.87771916  1
  V  V68  1  0.63860127  0.25101670  0.37452531  1
  V  V69  1  0.12055588  0.12812680  0.49459704  1
  V  V70  1  0.36381378  0.86787440  0.49886983  1
  V  V71  1  0.86491766  0.63114762  0.25154148  1
  V  V72  1  0.00156573  0.39403163  0.37980716  1
  V  V73  1  0.12575910  0.24914768  0.87515292  1
  V  V74  1  0.24638559  0.12766371  0.37601011  1
  V  V75  1  0.00527061  0.62922472  0.13478609  1
  V  V76  1  0.13348842  0.63508269  0.50580906  1
  V  V77  1  0.74772985  0.75324236  -0.00104332  1
  V  V78  1  0.24236320  0.25188117  0.49652443  1
  V  V79  1  0.50083030  0.75016821  0.25003612  1
  V  V80  1  0.63185049  0.37935482  0.23618336  1
  V  V81  1  0.49779024  0.86904209  0.86533039  1
  V  V82  1  0.00048519  0.25254939  0.26306535  1
  V  V83  1  0.62365897  0.11900767  0.00122977  1
  V  V84  1  0.37364656  0.37441813  0.00067672  1
  Zn  Zn85  1  0.50214962  0.49444650  0.50535893  1
  Zn  Zn86  1  0.73745097  0.75167731  0.52986447  1
  Zn  Zn87  1  0.24899806  0.24888066  0.00118141  1
  Zn  Zn88  1  0.24867568  0.87929226  0.12245581  1
  Zn  Zn89  1  0.50027775  0.12047378  0.12533154  1
  Zn  Zn90  1  0.87002793  0.26023313  0.13210949  1
  Zn  Zn91  1  0.86673298  0.37047217  0.49852044  1
  Zn  Zn92  1  0.64436028  0.83817913  0.70818186  1
  Zn  Zn93  1  0.95158255  0.67867275  0.66887781  1
  Zn  Zn94  1  0.24412685  -0.00418624  0.75306372  1
  Zn  Zn95  1  0.86825689  0.38251916  0.00452503  1
  Zn  Zn96  1  0.63074956  -0.00743323  0.61964464  1
  Zn  Zn97  1  0.86532846  0.25327070  0.62082105  1
  Zn  Zn98  1  0.25177266  0.37267295  0.62515348  1
  Zn  Zn99  1  0.11100375  0.76181957  0.37989744  1
  Zn  Zn100  1  0.74524342  0.50059450  0.22908184  1
  Zn  Zn101  1  0.62878849  0.00113637  0.13107585  1
  Zn  Zn102  1  0.37512938  0.37318533  0.50010486  1
  Zn  Zn103  1  0.63479237  0.88340693  0.25794700  1
  Zn  Zn104  1  -0.00234651  0.37460481  0.87783769  1
  Zn  Zn105  1  0.12454809  0.00008315  0.12571073  1
  Zn  Zn106  1  0.37001570  -0.01069188  0.87972427  1
  Zn  Zn107  1  0.18602021  0.18870969  0.18907266  1
  Zn  Zn108  1  0.18617005  0.18479759  0.68558159  1
  Zn  Zn109  1  0.18864609  0.69309536  0.19106797  1
  Zn  Zn110  1  0.19425468  0.68371912  0.68569493  1
  Zn  Zn111  1  0.68668393  0.18474355  0.18846397  1
  Zn  Zn112  1  0.68674912  0.18618478  0.68984335  1
  Zn  Zn113  1  0.69250973  0.70178044  0.19250365  1
  Zn  Zn114  1  0.68448439  0.67158897  0.69103917  1
  Zn  Zn115  1  0.31208747  0.31223501  0.31471260  1
  Zn  Zn116  1  0.31304273  0.31067369  0.81257046  1
  Zn  Zn117  1  0.31078310  0.81130646  0.30949576  1
  Zn  Zn118  1  0.31247473  0.81012503  0.81438450  1
  Zn  Zn119  1  0.81443105  0.31516836  0.30877932  1
  Zn  Zn120  1  0.81358409  0.31417662  0.81456437  1
  Zn  Zn121  1  0.82644943  0.81626213  0.31856474  1
  Zn  Zn122  1  0.81770532  0.81241625  0.68647683  1
  Zn  Zn123  1  0.19121800  0.43705334  0.43490182  1
  Zn  Zn124  1  0.18742609  0.43680468  0.93764353  1
  Zn  Zn125  1  0.18240012  0.93933076  0.43850094  1
  Zn  Zn126  1  0.18068234  0.93730125  0.93627488  1
  Zn  Zn127  1  0.68662492  0.43458180  0.43593374  1
  Zn  Zn128  1  0.68684662  0.43226004  0.93042051  1
  Zn  Zn129  1  0.68039683  0.94101969  0.43554337  1
  Zn  Zn130  1  0.68567673  0.93491685  0.93463244  1
  Zn  Zn131  1  0.31322446  0.06201283  0.06270770  1
  Zn  Zn132  1  0.30977867  0.06142803  0.56303461  1
  Zn  Zn133  1  0.31082449  0.56946012  0.06135633  1
  Zn  Zn134  1  0.31311050  0.55976770  0.56352444  1
  Zn  Zn135  1  0.81730956  0.06517920  0.06301616  1
  Zn  Zn136  1  0.81484242  0.06273815  0.56220225  1
  Zn  Zn137  1  0.83221499  0.57175641  0.05447949  1
  Zn  Zn138  1  0.79367490  0.55244617  0.56393784  1
  Zn  Zn139  1  0.44038519  0.43750073  0.18942544  1
  Zn  Zn140  1  0.43821348  0.43713828  0.69022375  1
  Zn  Zn141  1  0.43949668  0.93983001  0.18938666  1
  Zn  Zn142  1  0.44781051  0.93129901  0.68284975  1
  Zn  Zn143  1  0.93692194  0.43861674  0.18528592  1
  Zn  Zn144  1  0.93101088  0.42939430  0.69117560  1
  Zn  Zn145  1  0.93774107  0.94212306  0.18311053  1
  Zn  Zn146  1  0.93349786  0.94477543  0.67913890  1
  Zn  Zn147  1  0.06178158  0.06181143  0.31255081  1
  Zn  Zn148  1  0.06095750  0.06039111  0.81238003  1
  Zn  Zn149  1  0.02537040  0.60814311  0.34949420  1
  Zn  Zn150  1  0.06479330  0.56526844  0.80928787  1
  Zn  Zn151  1  0.56399675  0.06147554  0.31219058  1
  Zn  Zn152  1  0.56252728  0.05836926  0.81659602  1
  Zn  Zn153  1  0.56544688  0.56133642  0.31157955  1
  Zn  Zn154  1  0.55987547  0.56718033  0.81983032  1
  Zn  Zn155  1  0.43787046  0.18980484  0.43754732  1
  Zn  Zn156  1  0.43730366  0.18292341  0.93955455  1
  Zn  Zn157  1  0.43982981  0.68580994  0.44046176  1
  Zn  Zn158  1  0.43642378  0.68932730  0.94032740  1
  Zn  Zn159  1  0.93398739  0.19081077  0.43549509  1
  Zn  Zn160  1  0.93491752  0.18717920  0.93601523  1
  Zn  Zn161  1  0.95167806  0.71909252  0.47886385  1
  Zn  Zn162  1  0.92509278  0.69528463  0.83072038  1
  Zn  Zn163  1  0.06067491  0.31336148  0.06521551  1
  Zn  Zn164  1  0.05020399  0.31718315  0.55661883  1
  Zn  Zn165  1  0.06502276  0.81552587  0.06484804  1
  Zn  Zn166  1  0.06700889  0.81227656  0.57050555  1
  Zn  Zn167  1  0.56098116  0.30810927  0.05796336  1
  Zn  Zn168  1  0.56370582  0.30964924  0.56033436  1
  Zn  Zn169  1  0.56827133  0.81359284  0.06344681  1
  Zn  Zn170  1  0.55421320  0.80595542  0.55789236  1
  O  O171  1  0.11704045  0.12607299  0.11915503  1
  O  O172  1  0.11884973  0.11989015  0.61407958  1
  O  O173  1  0.12108981  0.62359974  0.12372667  1
  O  O174  1  0.13414833  0.61323340  0.61862295  1
  O  O175  1  0.62283440  0.12405548  0.11287761  1
  O  O176  1  0.61694335  0.12643695  0.61639521  1
  O  O177  1  0.61819133  0.63324090  0.12663367  1
  O  O178  1  0.61229400  0.62493672  0.61243185  1
  O  O179  1  0.38447564  0.38181329  0.37363773  1
  O  O180  1  0.38028152  0.38015412  0.88263734  1
  O  O181  1  0.37593931  0.87796370  0.38125554  1
  O  O182  1  0.39064632  0.87271408  0.87308465  1
  O  O183  1  0.88045947  0.38726234  0.37263452  1
  O  O184  1  0.87759761  0.38456748  0.88343714  1
  O  O185  1  0.87267489  0.87876583  0.40024007  1
  O  O186  1  0.89391314  0.87101976  0.88659008  1
  O  O187  1  0.25430675  0.00747271  0.36973764  1
  O  O188  1  0.25070873  0.00772709  0.87330555  1
  O  O189  1  0.26243588  0.50330628  0.36799759  1
  O  O190  1  0.26326978  0.49547212  0.87122832  1
  O  O191  1  0.74458509  0.01067541  0.37112614  1
  O  O192  1  0.74433390  0.01129541  0.86558269  1
  O  O193  1  0.75847356  0.49431083  0.36664418  1
  O  O194  1  0.75419463  0.50165886  0.86903903  1
  O  O195  1  0.24772644  0.49622700  0.13012545  1
  O  O196  1  0.24905780  0.49308693  0.63746678  1
  O  O197  1  0.24823666  1.00050014  0.13445014  1
  O  O198  1  0.24223427  0.99288426  0.62596124  1
  O  O199  1  0.74133405  0.51539476  0.10937311  1
  O  O200  1  0.74206109  0.48782334  0.64287496  1
  O  O201  1  0.75285534  0.98633531  0.11775913  1
  O  O202  1  0.74655729  1.00885794  0.63959197  1
  O  O203  1  0.00839792  0.37139957  0.25483098  1
  O  O204  1  0.00750867  0.36453255  0.75346573  1
  O  O205  1  0.00851231  0.88035711  0.24980347  1
  O  O206  1  -0.00338289  0.88667832  0.75814924  1
  O  O207  1  0.50718639  0.36960421  0.25877162  1
  O  O208  1  0.49144734  0.36671413  0.76463712  1
  O  O209  1  0.49358225  0.86951801  0.26380135  1
  O  O210  1  0.50393367  0.87518186  0.76567152  1
  O  O211  1  0.49249691  0.13293425  0.24967750  1
  O  O212  1  0.49389510  0.12816825  0.74454949  1
  O  O213  1  0.49668625  0.62820112  0.23900854  1
  O  O214  1  0.49045427  0.61696320  0.74240366  1
  O  O215  1  0.99499505  0.13413936  0.24688192  1
  O  O216  1  0.99261476  0.12852558  0.74451902  1
  O  O217  1  0.98838029  0.61879272  0.23650672  1
  O  O218  1  0.98881618  0.62685810  0.76180528  1
  O  O219  1  0.37419246  0.25340743  0.00920434  1
  O  O220  1  0.36605012  0.24848836  0.50869843  1
  O  O221  1  0.36118465  0.74343566  0.00800504  1
  O  O222  1  0.37565980  0.75738910  0.50731509  1
  O  O223  1  0.85828602  0.24775857  -0.00181032  1
  O  O224  1  0.90034012  0.26219929  0.51193022  1
  O  O225  1  0.86347672  0.76118096  0.01131458  1
  O  O226  1  0.85019765  0.76539896  0.50346763  1
  O  O227  1  0.13131452  0.24332444  0.50673067  1
  O  O228  1  0.12500743  0.24375567  0.99297191  1
  O  O229  1  0.13593668  0.73702813  0.49766782  1
  O  O230  1  0.12986242  0.74613122  0.99607273  1
  O  O231  1  0.61926144  0.23728890  0.48850486  1
  O  O232  1  0.63168296  0.24076685  0.99183181  1
  O  O233  1  0.62289789  0.74113778  0.49098775  1
  O  O234  1  0.64052657  0.75552638  0.99597123  1
  O  O235  1  0.48871899  0.24785463  0.12925071  1
  O  O236  1  0.49296319  0.24066052  0.62826925  1
  O  O237  1  0.49432802  0.74551108  0.12650105  1
  O  O238  1  0.48447085  0.73439880  0.62243046  1
  O  O239  1  1.00095784  0.24036877  0.13343512  1
  O  O240  1  1.00844087  0.23941976  0.63848321  1
  O  O241  1  0.99091817  0.74390122  0.11890986  1
  O  O242  1  1.00135507  0.72582617  0.58182176  1
  O  O243  1  -0.00069811  0.26618220  0.36545638  1
  O  O244  1  0.00619074  0.24842040  0.86476710  1
  O  O245  1  0.00689733  0.71666820  0.38331616  1
  O  O246  1  0.01195709  0.76673647  0.87394612  1
  O  O247  1  0.50688212  0.25656711  0.36877581  1
  O  O248  1  0.50487947  0.25528204  0.87466435  1
  O  O249  1  0.50245117  0.75603419  0.36962984  1
  O  O250  1  0.50799021  0.76230730  0.88865881  1
  O  O251  1  0.24057712  0.13093660  0.49662762  1
  O  O252  1  0.24421925  0.12552414  0.99204236  1
  O  O253  1  0.24658005  0.62039792  0.49160784  1
  O  O254  1  0.23563866  0.63666398  1.00542057  1
  O  O255  1  0.74250111  0.12115186  0.49122279  1
  O  O256  1  0.74439368  0.12840807  0.99323475  1
  O  O257  1  0.73016414  0.62969876  0.50935127  1
  O  O258  1  0.74342372  0.63089218  1.00025134  1
  O  O259  1  0.25629450  0.37207385  0.00757139  1
  O  O260  1  0.25321901  0.36424106  0.50200873  1
  O  O261  1  0.24261211  0.86501447  0.00335085  1
  O  O262  1  0.26040351  0.88219935  0.50796448  1
  O  O263  1  0.74558276  0.35665363  -0.00464910  1
  O  O264  1  0.74557626  0.37985366  0.51710285  1
  O  O265  1  0.75993870  0.87133025  0.00180286  1
  O  O266  1  0.74723835  0.88070821  0.50526393  1
  O  O267  1  0.13525189  0.48717658  0.24038318  1
  O  O268  1  0.13463776  0.49362104  0.74713959  1
  O  O269  1  0.13123197  0.99334357  0.24946344  1
  O  O270  1  0.12572539  1.00899911  0.73265700  1
  O  O271  1  0.62628860  0.48461971  0.24995989  1
  O  O272  1  0.63072588  0.49273338  0.76347133  1
  O  O273  1  0.61797554  0.99408083  0.24387473  1
  O  O274  1  0.63903252  1.01060018  0.74628714  1
  O  O275  1  0.36784151  0.00651906  0.25601213  1
  O  O276  1  0.37724420  0.01092691  0.75007051  1
  O  O277  1  0.37075674  0.50544530  0.25621042  1
  O  O278  1  0.36949062  0.50442577  0.75985187  1
  O  O279  1  0.88154292  0.01900097  0.24786694  1
  O  O280  1  0.86261972  0.01242661  0.74579071  1
  O  O281  1  0.86494177  0.50508016  0.25159016  1
  O  O282  1  0.86800710  0.49470064  0.76305962  1
  O  O283  1  0.11572663  0.38504997  0.36602816  1
  O  O284  1  0.12491894  0.36980791  0.86385963  1
  O  O285  1  0.12927820  0.87591834  0.35979364  1
  O  O286  1  0.11306822  0.86634452  0.87324814  1
  O  O287  1  0.61890984  0.36718699  0.36773324  1
  O  O288  1  0.61241271  0.36178498  0.88028104  1
  O  O289  1  0.61249552  0.86704022  0.37731804  1
  O  O290  1  0.61454510  0.86449889  0.87795347  1
  O  O291  1  0.37609079  0.13320979  0.13210509  1
  O  O292  1  0.37843139  0.13340823  0.63093882  1
  O  O293  1  0.38267940  0.63370056  0.12998246  1
  O  O294  1  0.37707646  0.62905435  0.63268970  1
  O  O295  1  0.88083951  0.13279405  0.13623264  1
  O  O296  1  0.88337289  0.13013953  0.63180053  1
  O  O297  1  0.88475146  0.63741410  0.13052763  1
  O  O298  1  0.89974557  0.58657814  0.59712159  1
  O  O299  1  0.26169114  0.25462243  0.12656619  1
  O  O300  1  0.25684521  0.24837498  0.61678872  1
  O  O301  1  0.25814003  0.75355856  0.11850090  1
  O  O302  1  0.26278857  0.75749929  0.62806896  1
  O  O303  1  0.74819755  0.24345517  0.10856075  1
  O  O304  1  0.74790191  0.26479557  0.63484677  1
  O  O305  1  0.75981354  0.76250779  0.11865145  1
  O  O306  1  0.72016701  0.76759216  0.64268482  1
  O  O307  1  0.25392045  0.24341144  0.38762535  1
  O  O308  1  0.24539430  0.23835987  0.87613406  1
  O  O309  1  0.24734115  0.73525714  0.36796545  1
  O  O310  1  0.23398665  0.75790696  0.88193422  1
  O  O311  1  0.74047936  0.24736703  0.37096503  1
  O  O312  1  0.74219123  0.23975919  0.88065436  1
  O  O313  1  0.73642867  0.75673653  0.36874435  1
  O  O314  1  0.74233669  0.73800691  0.88554625  1
  O  O315  1  0.00148402  0.12223981  0.00694682  1
  O  O316  1  0.00470161  0.12082941  0.50555411  1
  O  O317  1  0.01534769  0.61324604  0.01440837  1
  O  O318  1  0.02090871  0.58799300  0.49171986  1
  O  O319  1  0.50889709  0.11346834  -0.00096329  1
  O  O320  1  0.50513908  0.12313775  0.50677120  1
  O  O321  1  0.49857043  0.61810763  0.01256430  1
  O  O322  1  0.50752145  0.62049247  0.50758885  1
  O  O323  1  0.49906482  0.37379725  0.48695522  1
  O  O324  1  0.49345695  0.38095582  0.99390661  1
  O  O325  1  0.48547942  0.87781930  0.48738676  1
  O  O326  1  0.50413578  0.88606822  0.99670519  1
  O  O327  1  0.99971916  0.40227800  0.49288799  1
  O  O328  1  1.01010763  0.39162126  0.99784812  1
  O  O329  1  1.00651088  0.88889913  0.50165685  1
  O  O330  1  0.99477636  0.88531707  1.00308921  1
  O  O331  1  0.49075837  0.49194058  0.37243437  1
  O  O332  1  0.49167493  0.49264389  0.88557482  1
  O  O333  1  0.49199123  0.99290064  0.38099676  1
  O  O334  1  0.50018890  0.98659477  0.88478605  1
  O  O335  1  0.98583397  0.49450096  0.35990726  1
  O  O336  1  0.99513464  0.50051679  0.88191379  1
  O  O337  1  1.00224265  1.00519679  0.39155056  1
  O  O338  1  1.00705989  0.98675864  0.88287277  1
  O  O339  1  0.00104071  0.01564979  0.11809043  1
  O  O340  1  0.00651903  0.01336548  0.61778675  1
  O  O341  1  0.00933110  0.50791424  0.11984188  1
  O  O342  1  0.01353503  0.48755373  0.62724206  1
  O  O343  1  0.50091454  -0.00044669  0.11317678  1
  O  O344  1  0.49116287  0.01733834  0.61801201  1
  O  O345  1  0.49518046  0.50704533  0.11392058  1
  O  O346  1  0.49002149  0.51078354  0.62145959  1
  O  O347  1  0.24479628  0.37855361  0.24673770  1
  O  O348  1  0.24432683  0.38247142  0.75081306  1
  O  O349  1  0.25086361  0.88914401  0.24902032  1
  O  O350  1  0.25919691  0.87917694  0.73697256  1
  O  O351  1  0.73554863  0.37460047  0.24535916  1
  O  O352  1  0.74796574  0.38363789  0.74795768  1
  O  O353  1  0.75780269  0.87337486  0.23668044  1
  O  O354  1  0.74559659  0.89173162  0.75164932  1
  O  O355  1  0.25177601  0.11703397  0.25611584  1
  O  O356  1  0.25714083  0.12272254  0.75746222  1
  O  O357  1  0.25519630  0.61886716  0.25587143  1
  O  O358  1  0.26011581  0.61039681  0.75019405  1
  O  O359  1  0.76361253  0.13089941  0.25580495  1
  O  O360  1  0.75695358  0.12205963  0.75836310  1
  O  O361  1  0.76118864  0.62320893  0.24175050  1
  O  O362  1  0.74436779  0.60363559  0.75930230  1
  O  O363  1  0.36879427  0.12073763  0.37040789  1
  O  O364  1  0.36654972  0.12251013  0.86798913  1
  O  O365  1  0.37071495  0.61766886  0.37055938  1
  O  O366  1  0.38339016  0.61525376  0.86865472  1
  O  O367  1  0.86724039  0.13033959  0.36371690  1
  O  O368  1  0.86559373  0.12734516  0.86603070  1
  O  O369  1  0.87862466  0.60719417  0.36228997  1
  O  O370  1  0.85515759  0.61594776  0.88381091  1
  O  O371  1  0.13318757  0.37937284  0.13096591  1
  O  O372  1  0.12740528  0.37765030  0.63789660  1
  O  O373  1  0.12688003  0.87961984  0.14000510  1
  O  O374  1  0.13735355  0.88326979  0.62103364  1
  O  O375  1  0.61574045  0.36860265  0.13893281  1
  O  O376  1  0.63305406  0.37037984  0.62666028  1
  O  O377  1  0.64474100  0.87430480  0.12646775  1
  O  O378  1  0.58522109  0.88818526  0.62735009  1
  O  O379  1  0.11871501  0.26401403  0.24683533  1
  O  O380  1  0.12088761  0.25528491  0.75509586  1
  O  O381  1  0.12579661  0.76734390  0.25266320  1
  O  O382  1  0.13075022  0.74443224  0.76097895  1
  O  O383  1  0.62026671  0.25623750  0.25598892  1
  O  O384  1  0.61578591  0.23949376  0.76537082  1
  O  O385  1  0.61680249  0.75833961  0.25803001  1
  O  O386  1  0.62384675  0.74119389  0.76998626  1
  O  O387  1  0.37967593  0.24604915  0.24422224  1
  O  O388  1  0.37940131  0.23813668  0.74456828  1
  O  O389  1  0.38064429  0.74304654  0.24210561  1
  O  O390  1  0.37058157  0.73535439  0.74583655  1
  O  O391  1  0.88572537  0.24454129  0.24995781  1
  O  O392  1  0.88379102  0.24173647  0.74951697  1
  O  O393  1  0.87223452  0.74399871  0.24016054  1
  O  O394  1  0.88101423  0.73976685  0.73682631  1
  O  O395  1  0.37681290  0.49501456  0.48889155  1
  O  O396  1  0.37974364  0.49785831  0.99484478  1
  O  O397  1  0.37834203  0.99428847  0.49467214  1
  O  O398  1  0.39089466  1.00528184  0.99736476  1
  O  O399  1  0.87022993  0.49594467  0.48375999  1
  O  O400  1  0.88885587  0.50096342  0.98910893  1
  O  O401  1  0.88719565  0.99348624  0.50519137  1
  O  O402  1  0.88765240  0.99482093  1.00202512  1
  O  O403  1  0.11321377  0.00767350  0.00270822  1
  O  O404  1  0.11727987  0.00868777  0.50875601  1
  O  O405  1  0.12562214  0.50939441  0.00428464  1
  O  O406  1  0.14342647  0.49904924  0.51847185  1
  O  O407  1  0.61566615  0.00469343  0.00225483  1
  O  O408  1  0.61458975  0.01344959  0.50013663  1
  O  O409  1  0.61570922  0.49860864  -0.00246185  1
  O  O410  1  0.62034655  0.51329783  0.48883133  1
  O  O411  1  0.37139289  0.36839959  0.12157247  1
  O  O412  1  0.37624222  0.35955051  0.62601487  1
  O  O413  1  0.37496456  0.86303733  0.12864078  1
  O  O414  1  0.37341191  0.86619083  0.61771106  1
  O  O415  1  0.88137263  0.37144241  0.11620343  1
  O  O416  1  0.85840103  0.37531634  0.62357583  1
  O  O417  1  0.87001456  0.87266916  0.11813862  1
  O  O418  1  0.87398512  0.88021432  0.60879944  1
  O  O419  1  0.12887541  0.12331966  0.38746049  1
  O  O420  1  0.13193217  0.12804646  0.87942214  1
  O  O421  1  0.13886696  0.61206543  0.38970290  1
  O  O422  1  0.11963535  0.64193048  0.88437460  1
  O  O423  1  0.63292286  0.13209150  0.37959689  1
  O  O424  1  0.62998353  0.12884802  0.88598278  1
  O  O425  1  0.61673022  0.63394171  0.38622618  1
  O  O426  1  0.63418266  0.62932263  0.88218645  1
