# generated using pymatgen
data_V85Zn86O256
_symmetry_space_group_name_H-M   'P 1'
_cell_length_a   16.93910155
_cell_length_b   16.93215166
_cell_length_c   16.94074425
_cell_angle_alpha   89.98839305
_cell_angle_beta   89.98255785
_cell_angle_gamma   89.96813179
_symmetry_Int_Tables_number   1
_chemical_formula_structural   V85Zn86O256
_chemical_formula_sum   'V85 Zn86 O256'
_cell_volume   4858.86587786
_cell_formula_units_Z   1
loop_
 _symmetry_equiv_pos_site_id
 _symmetry_equiv_pos_as_xyz
  1  'x, y, z'
loop_
 _atom_site_type_symbol
 _atom_site_label
 _atom_site_symmetry_multiplicity
 _atom_site_fract_x
 _atom_site_fract_y
 _atom_site_fract_z
 _atom_site_occupancy
  V  V0  1  0.62864353  0.37002477  0.76434011  1
  V  V1  1  0.25891061  0.87135250  0.12730386  1
  V  V2  1  0.01252810  0.86750097  0.38000524  1
  V  V3  1  0.87253482  0.37491123  -0.00265867  1
  V  V4  1  0.49370316  0.49510780  -0.01571089  1
  V  V5  1  0.75281613  0.12798614  0.36030624  1
  V  V6  1  0.25455378  -0.00092260  0.25215798  1
  V  V7  1  0.12199776  0.25148376  0.87867858  1
  V  V8  1  0.37799267  0.39525078  0.49800125  1
  V  V9  1  0.73351863  0.12306766  0.87696163  1
  V  V10  1  0.49559854  0.39115402  0.37579548  1
  V  V11  1  0.00144453  0.37202592  0.37794960  1
  V  V12  1  0.37395995  0.24987841  0.12780437  1
  V  V13  1  0.50176473  0.12464982  0.61735147  1
  V  V14  1  0.12552348  0.00276843  0.62755307  1
  V  V15  1  0.87031078  0.86919218  0.00636769  1
  V  V16  1  0.73984477  0.24686038  0.49633052  1
  V  V17  1  0.62450061  0.62271309  -0.01353037  1
  V  V18  1  -0.00093902  0.00409717  0.50004803  1
  V  V19  1  0.12627776  0.38137562  0.74977185  1
  V  V20  1  -0.00098770  0.74817040  0.75094154  1
  V  V21  1  -0.00295147  0.12786522  0.62782622  1
  V  V22  1  0.37673623  0.62197741  0.26578634  1
  V  V23  1  0.50216663  0.24824667  0.26016379  1
  V  V24  1  0.24823341  0.25114651  0.00388868  1
  V  V25  1  0.00078531  0.50296062  0.50329022  1
  V  V26  1  0.87003610  0.49640970  0.37517648  1
  V  V27  1  0.62584591  0.00052147  0.61585674  1
  V  V28  1  0.87320551  0.87828690  0.49675973  1
  V  V29  1  0.12523041  0.12946362  0.50220065  1
  V  V30  1  0.25117433  0.00104140  0.75221373  1
  V  V31  1  0.12868248  0.86472108  0.25532632  1
  V  V32  1  0.86739532  0.00022571  0.87528855  1
  V  V33  1  0.12738024  -0.00014970  0.12682815  1
  V  V34  1  0.62702054  0.48555640  0.61497668  1
  V  V35  1  0.62436996  0.75345025  0.36252871  1
  V  V36  1  0.75650681  -0.02054291  0.24383798  1
  V  V37  1  0.12473088  0.87498648  0.75232815  1
  V  V38  1  0.50833023  0.12074984  0.11851374  1
  V  V39  1  0.12419502  0.63865213  0.50129505  1
  V  V40  1  0.61716069  0.49987837  0.12177579  1
  V  V41  1  0.74673368  0.50078643  0.24885656  1
  V  V42  1  0.86702316  0.37366149  0.50604008  1
  V  V43  1  0.38835598  0.75526456  0.62660315  1
  V  V44  1  0.86519280  0.50217014  0.87449310  1
  V  V45  1  0.38036346  0.87694310  0.00001977  1
  V  V46  1  0.86355677  0.62538837  0.75182979  1
  V  V47  1  0.12395503  0.12979606  0.00283540  1
  V  V48  1  0.38287640  -0.00725480  0.38988688  1
  V  V49  1  0.25415997  0.12523424  0.37706345  1
  V  V50  1  0.62198872  0.37187240  0.25689818  1
  V  V51  1  0.37837983  0.12274841  0.25206714  1
  V  V52  1  0.61486414  0.87397996  0.74881788  1
  V  V53  1  -0.00172952  0.25179868  0.75140181  1
  V  V54  1  0.50274195  0.25459000  0.76131372  1
  V  V55  1  0.11812353  0.61385530  0.00340891  1
  V  V56  1  0.75430381  0.73951604  -0.00833726  1
  V  V57  1  0.50335708  0.62170557  0.63184633  1
  V  V58  1  0.86733642  0.12178659  0.75358254  1
  V  V59  1  0.25446818  0.87170663  0.62109962  1
  V  V60  1  0.37615281  0.37615975  -0.01083907  1
  V  V61  1  0.87429599  0.75093769  0.62102556  1
  V  V62  1  0.25658713  0.25385927  0.50264556  1
  V  V63  1  -0.00181690  0.62609804  0.62425312  1
  V  V64  1  -0.00389584  0.12235313  0.13241744  1
  V  V65  1  0.74908302  0.62616131  0.37458578  1
  V  V66  1  0.48887846  0.63186825  0.11996906  1
  V  V67  1  0.12918623  0.38920637  0.25178895  1
  V  V68  1  -0.00057248  0.38412912  0.87826158  1
  V  V69  1  0.86399447  0.25273188  0.62779632  1
  V  V70  1  0.12606703  0.25078511  0.37567376  1
  V  V71  1  -0.00348092  0.87607302  0.87579759  1
  V  V72  1  0.24312342  0.62213642  0.37260791  1
  V  V73  1  0.25678707  0.62280119  0.87570152  1
  V  V74  1  0.50653417  0.87751773  0.37964577  1
  V  V75  1  0.25334608  0.74955598  0.00159624  1
  V  V76  1  0.25133890  0.38895029  0.13276990  1
  V  V77  1  0.37773227  0.12638138  0.75082513  1
  V  V78  1  -0.00065318  0.24946002  0.25162440  1
  V  V79  1  0.61726302  0.62487498  0.49852178  1
  V  V80  1  0.75199400  0.88152266  0.63333360  1
  V  V81  1  0.87457557  0.24778948  0.12872733  1
  V  V82  1  0.26681170  0.50015090  0.75343246  1
  V  V83  1  0.73523046  0.24248550  -0.00301475  1
  V  V84  1  0.74290317  0.37072533  0.12330623  1
  Zn  Zn85  1  0.06107924  0.55168997  0.15678930  1
  Zn  Zn86  1  0.25629198  0.75433169  0.49661287  1
  Zn  Zn87  1  0.38568840  0.62997347  0.75712543  1
  Zn  Zn88  1  0.51207678  0.00556109  -0.01324658  1
  Zn  Zn89  1  0.62141935  0.12147982  0.48845717  1
  Zn  Zn90  1  0.24921232  0.12532767  0.87597202  1
  Zn  Zn91  1  0.87598923  0.63847029  0.22505630  1
  Zn  Zn92  1  0.74902059  0.49343197  0.74337371  1
  Zn  Zn93  1  0.12947588  0.50214568  0.62493883  1
  Zn  Zn94  1  0.37815281  0.25443815  0.62538090  1
  Zn  Zn95  1  0.49322571  0.86857353  0.86712753  1
  Zn  Zn96  1  0.25262820  0.37892894  0.62540693  1
  Zn  Zn97  1  0.88382655  0.00436064  0.35840964  1
  Zn  Zn98  1  -0.00222596  -0.00050837  0.00205339  1
  Zn  Zn99  1  0.37791555  -0.00050721  0.87522370  1
  Zn  Zn100  1  0.74640631  0.75487093  0.49654092  1
  Zn  Zn101  1  0.74012846  0.85246845  0.12830013  1
  Zn  Zn102  1  0.49590691  0.75930249  0.23942219  1
  Zn  Zn103  1  0.62820542  -0.01437061  0.12346288  1
  Zn  Zn104  1  0.12462713  0.74921288  0.87810487  1
  Zn  Zn105  1  0.62165234  0.74138006  0.86219690  1
  Zn  Zn106  1  0.00607079  0.73337936  0.22859727  1
  Zn  Zn107  1  0.18786489  0.19021007  0.19056026  1
  Zn  Zn108  1  0.18883599  0.19241039  0.68847432  1
  Zn  Zn109  1  0.19783500  0.68641008  0.18690864  1
  Zn  Zn110  1  0.18962562  0.68767314  0.68843409  1
  Zn  Zn111  1  0.68554512  0.18713305  0.18959992  1
  Zn  Zn112  1  0.68468558  0.18622013  0.68857325  1
  Zn  Zn113  1  0.68550677  0.68419561  0.17958183  1
  Zn  Zn114  1  0.68763207  0.69115284  0.67953084  1
  Zn  Zn115  1  0.31437744  0.31680742  0.31562209  1
  Zn  Zn116  1  0.30994464  0.30862832  0.81222072  1
  Zn  Zn117  1  0.31922979  0.80449053  0.31339575  1
  Zn  Zn118  1  0.31422914  0.80889286  0.81179050  1
  Zn  Zn119  1  0.81132024  0.31208001  0.31284820  1
  Zn  Zn120  1  0.80681574  0.30896408  0.81492801  1
  Zn  Zn121  1  0.82434323  0.80898219  0.31397342  1
  Zn  Zn122  1  0.80754832  0.80867058  0.81571331  1
  Zn  Zn123  1  0.19018797  0.44328561  0.43764342  1
  Zn  Zn124  1  0.19255393  0.43854067  0.93847799  1
  Zn  Zn125  1  0.19207232  0.94180666  0.44014669  1
  Zn  Zn126  1  0.18839579  0.93742569  0.93967393  1
  Zn  Zn127  1  0.68416532  0.43457839  0.43823730  1
  Zn  Zn128  1  0.68772161  0.43698382  0.93723799  1
  Zn  Zn129  1  0.69053883  0.94223791  0.43120645  1
  Zn  Zn130  1  0.68469113  0.93608199  0.94002454  1
  Zn  Zn131  1  0.31609032  0.06125631  0.06267385  1
  Zn  Zn132  1  0.31353510  0.06531688  0.56693975  1
  Zn  Zn133  1  0.31162365  0.56149591  0.05935285  1
  Zn  Zn134  1  0.31087992  0.57005851  0.56766428  1
  Zn  Zn135  1  0.81157764  0.06022956  0.06251780  1
  Zn  Zn136  1  0.80945246  0.06446077  0.55942665  1
  Zn  Zn137  1  0.80631904  0.56276913  0.05788757  1
  Zn  Zn138  1  0.80602455  0.56378674  0.56102839  1
  Zn  Zn139  1  0.43483169  0.44064078  0.18659259  1
  Zn  Zn140  1  0.44394686  0.43678583  0.68269846  1
  Zn  Zn141  1  0.44136015  0.93702002  0.19207318  1
  Zn  Zn142  1  0.43816308  0.94173010  0.68093074  1
  Zn  Zn143  1  0.91569653  0.46723434  0.16545400  1
  Zn  Zn144  1  0.93598237  0.43762911  0.68850346  1
  Zn  Zn145  1  0.94463726  0.91205472  0.18210350  1
  Zn  Zn146  1  0.93469020  0.93955804  0.68845936  1
  Zn  Zn147  1  0.06600603  0.06077446  0.31229134  1
  Zn  Zn148  1  0.05838158  0.06253013  0.81552604  1
  Zn  Zn149  1  0.05873359  0.56737251  0.32475275  1
  Zn  Zn150  1  0.06333349  0.56491512  0.81706620  1
  Zn  Zn151  1  0.57117363  0.05685134  0.30783596  1
  Zn  Zn152  1  0.56067144  0.05092506  0.80198708  1
  Zn  Zn153  1  0.56120537  0.56731346  0.30665119  1
  Zn  Zn154  1  0.56202027  0.55261653  0.80659950  1
  Zn  Zn155  1  0.43878249  0.18976034  0.43607696  1
  Zn  Zn156  1  0.43562913  0.18784828  0.93727660  1
  Zn  Zn157  1  0.43879030  0.69332977  0.44136197  1
  Zn  Zn158  1  0.43954117  0.69398136  0.93563306  1
  Zn  Zn159  1  0.93048167  0.18624872  0.43746030  1
  Zn  Zn160  1  0.93592312  0.18944064  0.94183933  1
  Zn  Zn161  1  0.93036567  0.69629015  0.41374274  1
  Zn  Zn162  1  0.93955644  0.68414987  0.93657283  1
  Zn  Zn163  1  0.04693083  0.35047917  0.08311905  1
  Zn  Zn164  1  0.06111252  0.31462786  0.56566638  1
  Zn  Zn165  1  0.06598818  0.80878869  0.06388171  1
  Zn  Zn166  1  0.06253000  0.81635726  0.56635790  1
  Zn  Zn167  1  0.55606253  0.31164250  0.06488524  1
  Zn  Zn168  1  0.55441554  0.30886167  0.56085030  1
  Zn  Zn169  1  0.56963691  0.81203466  0.05596072  1
  Zn  Zn170  1  0.56339129  0.81345435  0.55476148  1
  O  O171  1  0.12011398  0.12013563  0.12129379  1
  O  O172  1  0.11841652  0.12361130  0.62210615  1
  O  O173  1  0.13532465  0.62546039  0.11044724  1
  O  O174  1  0.11579693  0.62305303  0.61979743  1
  O  O175  1  0.60852261  0.12905902  0.12739907  1
  O  O176  1  0.61896420  0.11681812  0.62433129  1
  O  O177  1  0.61527797  0.61460839  0.11391419  1
  O  O178  1  0.62074674  0.61999663  0.61637766  1
  O  O179  1  0.37996712  0.37691347  0.38855136  1
  O  O180  1  0.36840290  0.36793221  0.89034952  1
  O  O181  1  0.37859603  0.88862044  0.37562683  1
  O  O182  1  0.37078151  0.87704261  0.88486018  1
  O  O183  1  0.88052310  0.37744379  0.38617720  1
  O  O184  1  0.87960560  0.37768729  0.87796003  1
  O  O185  1  0.89087624  0.88126545  0.38393763  1
  O  O186  1  0.87855853  0.88237125  0.87687597  1
  O  O187  1  0.26266698  0.00630066  0.37295769  1
  O  O188  1  0.24721461  0.00294168  0.86147059  1
  O  O189  1  0.25355310  0.52175220  0.38355006  1
  O  O190  1  0.24763202  0.50873739  0.86555807  1
  O  O191  1  0.75734556  0.00574927  0.35890377  1
  O  O192  1  0.76134967  0.00790755  0.87980203  1
  O  O193  1  0.75181703  0.50462698  0.37179380  1
  O  O194  1  0.76134785  0.49281464  0.86640983  1
  O  O195  1  0.25037791  0.48785502  0.12355270  1
  O  O196  1  0.24769424  0.50009078  0.63807186  1
  O  O197  1  0.24494727  0.99700654  0.13233746  1
  O  O198  1  0.24662982  0.99613117  0.63533912  1
  O  O199  1  0.73267298  0.48964535  0.12516522  1
  O  O200  1  0.73224425  0.50193043  0.62577548  1
  O  O201  1  0.75178538  1.00098443  0.13815067  1
  O  O202  1  0.74384779  0.99221854  0.62076938  1
  O  O203  1  0.01314755  0.36294010  0.26527064  1
  O  O204  1  0.00633013  0.37079554  0.75706961  1
  O  O205  1  0.01801807  0.89196820  0.27095088  1
  O  O206  1  0.00191279  0.87142133  0.75864324  1
  O  O207  1  0.50217604  0.36967520  0.25504995  1
  O  O208  1  0.50810466  0.36164670  0.74622444  1
  O  O209  1  0.49190664  0.87093978  0.26757305  1
  O  O210  1  0.51240368  0.87498889  0.74236275  1
  O  O211  1  0.49741217  0.13209858  0.24626866  1
  O  O212  1  0.49425342  0.13328106  0.74318323  1
  O  O213  1  0.49255759  0.62760827  0.23605950  1
  O  O214  1  0.50458575  0.62360985  0.73719781  1
  O  O215  1  1.00624669  0.13063212  0.23949045  1
  O  O216  1  0.99076734  0.13248237  0.74719969  1
  O  O217  1  1.00767995  0.61823534  0.23849391  1
  O  O218  1  0.99357825  0.62990532  0.74395418  1
  O  O219  1  0.36982272  0.25443059  0.00962973  1
  O  O220  1  0.36348872  0.25196031  0.50009727  1
  O  O221  1  0.36085869  0.75891304  -0.00220034  1
  O  O222  1  0.37269251  0.74521726  0.52085483  1
  O  O223  1  0.86661412  0.25759570  0.00930778  1
  O  O224  1  0.86791481  0.25628522  0.50934804  1
  O  O225  1  0.86422957  0.75312110  -0.01098547  1
  O  O226  1  0.87768067  0.76423587  0.50075657  1
  O  O227  1  0.13421238  0.24959364  0.49624791  1
  O  O228  1  0.12878005  0.24212295  0.99899185  1
  O  O229  1  0.12713325  0.74075958  0.50941749  1
  O  O230  1  0.13755641  0.74771017  0.99924304  1
  O  O231  1  0.63776563  0.25105476  0.50380491  1
  O  O232  1  0.63685671  0.25284402  1.00655268  1
  O  O233  1  0.62689632  0.74148794  0.48646416  1
  O  O234  1  0.63427250  0.73657872  0.99317043  1
  O  O235  1  0.48897745  0.24191463  0.13362898  1
  O  O236  1  0.49822282  0.24079660  0.63546043  1
  O  O237  1  0.50553212  0.73352145  0.12046127  1
  O  O238  1  0.49348789  0.74507327  0.62195316  1
  O  O239  1  0.99245583  0.24661281  0.13148622  1
  O  O240  1  0.98954102  0.24579832  0.63099819  1
  O  O241  1  0.99054648  0.80517824  0.14323212  1
  O  O242  1  0.99283299  0.74755540  0.63173673  1
  O  O243  1  0.00477868  0.25148342  0.37462924  1
  O  O244  1  0.00301019  0.25709250  0.86898788  1
  O  O245  1  0.01682442  0.76763981  0.38884943  1
  O  O246  1  0.00053116  0.75843744  0.86665896  1
  O  O247  1  0.49548603  0.25980443  0.36317660  1
  O  O248  1  0.49976437  0.24446245  0.86010003  1
  O  O249  1  0.50754202  0.75910159  0.37249685  1
  O  O250  1  0.50890696  0.75633544  0.87637054  1
  O  O251  1  0.24569562  0.13435402  0.49849174  1
  O  O252  1  0.23969725  0.13038061  1.00195614  1
  O  O253  1  0.23861443  0.62755159  0.49738901  1
  O  O254  1  0.24583643  0.63182948  0.99377912  1
  O  O255  1  0.74710506  0.13300232  0.49115681  1
  O  O256  1  0.75254547  0.13551401  0.99327002  1
  O  O257  1  0.73713845  0.62722201  0.49149373  1
  O  O258  1  0.73989963  0.62749242  0.99448838  1
  O  O259  1  0.25446847  0.36872792  0.01123108  1
  O  O260  1  0.26148501  0.37177007  0.49956039  1
  O  O261  1  0.25608333  0.87095956  0.00836002  1
  O  O262  1  0.24481658  0.87688161  0.51741923  1
  O  O263  1  0.75228965  0.36173676  0.00115554  1
  O  O264  1  0.76056805  0.36520575  0.49229640  1
  O  O265  1  0.75569320  0.85727639  -0.00615811  1
  O  O266  1  0.76140608  0.87764113  0.50236190  1
  O  O267  1  0.12274154  0.49018523  0.25854075  1
  O  O268  1  0.12612239  0.48915582  0.75197166  1
  O  O269  1  0.13558394  0.99852500  0.24103530  1
  O  O270  1  0.12975866  0.99805636  0.74551886  1
  O  O271  1  0.62782781  0.49473210  0.24077366  1
  O  O272  1  0.62552968  0.48219012  0.73967471  1
  O  O273  1  0.64992880  1.00408945  0.24402875  1
  O  O274  1  0.62780765  0.98402621  0.73177890  1
  O  O275  1  0.37037003  0.00732885  0.25829818  1
  O  O276  1  0.36668698  0.00841348  0.74871031  1
  O  O277  1  0.37717528  0.52358083  0.23944616  1
  O  O278  1  0.36909082  0.50134655  0.74721460  1
  O  O279  1  0.86524382  -0.01082405  0.24413417  1
  O  O280  1  0.87968934  0.01224131  0.75892205  1
  O  O281  1  0.86361515  0.48446071  0.26946129  1
  O  O282  1  0.87093785  0.50669283  0.75392458  1
  O  O283  1  0.12368033  0.36998748  0.37291352  1
  O  O284  1  0.11665942  0.37229243  0.87241639  1
  O  O285  1  0.12636945  0.88445642  0.36711297  1
  O  O286  1  0.11448265  0.87705124  0.87038948  1
  O  O287  1  0.61636482  0.37810037  0.36314021  1
  O  O288  1  0.62333778  0.37601863  0.86273288  1
  O  O289  1  0.61715669  0.86834845  0.37651553  1
  O  O290  1  0.63041895  0.87837839  0.85294066  1
  O  O291  1  0.38120296  0.13137145  0.13421273  1
  O  O292  1  0.38275719  0.12736373  0.63523272  1
  O  O293  1  0.38797629  0.62484758  0.11912572  1
  O  O294  1  0.38742199  0.63267521  0.62905252  1
  O  O295  1  0.88664172  0.13461127  0.11717743  1
  O  O296  1  0.87744689  0.13081125  0.63395049  1
  O  O297  1  0.88293345  0.57585855  0.13502292  1
  O  O298  1  0.87904092  0.63061704  0.62843158  1
  O  O299  1  0.26303614  0.24954317  0.12354402  1
  O  O300  1  0.25315510  0.25627796  0.61653613  1
  O  O301  1  0.24964219  0.76201666  0.11723572  1
  O  O302  1  0.25649343  0.75882861  0.62402523  1
  O  O303  1  0.75468734  0.25091232  0.11695604  1
  O  O304  1  0.75982596  0.24280318  0.61687826  1
  O  O305  1  0.75197411  0.73819585  0.10395249  1
  O  O306  1  0.75901037  0.76010519  0.61623559  1
  O  O307  1  0.24645537  0.24455587  0.38334496  1
  O  O308  1  0.23923386  0.24769472  0.88322936  1
  O  O309  1  0.26190292  0.73267561  0.38339105  1
  O  O310  1  0.24548660  0.74241899  0.88131147  1
  O  O311  1  0.75643562  0.23786917  0.38181163  1
  O  O312  1  0.75146528  0.23975881  0.88977961  1
  O  O313  1  0.74481725  0.74144795  0.37480087  1
  O  O314  1  0.74244765  0.74463870  0.88470640  1
  O  O315  1  0.00996935  0.12552927  0.01145450  1
  O  O316  1  0.00307594  0.12217031  0.50797099  1
  O  O317  1  0.01863467  0.63165443  -0.00032346  1
  O  O318  1  0.00445947  0.61972106  0.50123676  1
  O  O319  1  0.49190629  0.12463947  0.01522920  1
  O  O320  1  0.50433689  0.13534068  0.51183906  1
  O  O321  1  0.50332634  0.61605505  0.00616632  1
  O  O322  1  0.51221089  0.62859408  0.50782859  1
  O  O323  1  0.48603014  0.37126811  0.49035649  1
  O  O324  1  0.48816692  0.38241390  1.00642703  1
  O  O325  1  0.49732205  0.87297823  0.48116265  1
  O  O326  1  0.48493671  0.87324232  1.00425045  1
  O  O327  1  0.99150411  0.38209840  0.49789071  1
  O  O328  1  0.98556120  0.36320940  0.98669224  1
  O  O329  1  0.99853868  0.88741387  0.49911065  1
  O  O330  1  0.99115365  0.87337457  0.98621110  1
  O  O331  1  0.50231529  0.49037626  0.36852341  1
  O  O332  1  0.49706827  0.49933743  0.88500369  1
  O  O333  1  0.49178345  0.99352495  0.37108527  1
  O  O334  1  0.49584226  0.98894419  0.87193637  1
  O  O335  1  0.98888473  0.49542559  0.38767470  1
  O  O336  1  0.98922934  0.48810523  0.86938605  1
  O  O337  1  1.00251499  1.00205419  0.39049548  1
  O  O338  1  0.98957511  0.99295688  0.87835188  1
  O  O339  1  0.00939032  0.00618790  0.12480304  1
  O  O340  1  0.00421720  0.00668586  0.61785072  1
  O  O341  1  0.01838958  0.45420277  0.12617958  1
  O  O342  1  -0.00328027  0.50519294  0.61388685  1
  O  O343  1  0.50013912  0.01603795  0.13087570  1
  O  O344  1  0.50883725  0.01306313  0.62690737  1
  O  O345  1  0.50709344  0.50664756  0.11908135  1
  O  O346  1  0.51568833  0.50828292  0.62548853  1
  O  O347  1  0.24360479  0.37281322  0.24582707  1
  O  O348  1  0.24365219  0.38302293  0.75125208  1
  O  O349  1  0.24831914  0.87797123  0.24620390  1
  O  O350  1  0.24515415  0.88334334  0.74280189  1
  O  O351  1  0.73885088  0.37801664  0.24594349  1
  O  O352  1  0.73299836  0.36811349  0.74883315  1
  O  O353  1  0.75664590  0.87524754  0.24867765  1
  O  O354  1  0.75364813  0.87432986  0.73530236  1
  O  O355  1  0.25733978  0.12085252  0.25863729  1
  O  O356  1  0.25793311  0.11954684  0.74853931  1
  O  O357  1  0.25976430  0.62745683  0.26408711  1
  O  O358  1  0.24871946  0.61530609  0.75883189  1
  O  O359  1  0.75714448  0.13053906  0.25888313  1
  O  O360  1  0.76124518  0.13490037  0.76066603  1
  O  O361  1  0.75326136  0.61750057  0.25640889  1
  O  O362  1  0.76148012  0.62471484  0.74305830  1
  O  O363  1  0.37476715  0.11648084  0.37041747  1
  O  O364  1  0.37122044  0.12434578  0.86259894  1
  O  O365  1  0.37637010  0.62284449  0.36927663  1
  O  O366  1  0.36188643  0.62991206  0.87443624  1
  O  O367  1  0.86012531  0.11766085  0.38124209  1
  O  O368  1  0.87265096  0.11854938  0.87041904  1
  O  O369  1  0.85889815  0.60931982  0.38853913  1
  O  O370  1  0.88198941  0.61288966  0.86457180  1
  O  O371  1  0.14407137  0.35791578  0.14257155  1
  O  O372  1  0.12658962  0.37859225  0.63613663  1
  O  O373  1  0.13939086  0.88633791  0.13258318  1
  O  O374  1  0.13102274  0.88365618  0.63395570  1
  O  O375  1  0.62341967  0.38003856  0.13443196  1
  O  O376  1  0.61961054  0.38432335  0.62224732  1
  O  O377  1  0.62872128  0.86976955  0.12915055  1
  O  O378  1  0.63363668  0.87862919  0.62527067  1
  O  O379  1  0.12089499  0.25126045  0.26272145  1
  O  O380  1  0.12118073  0.26190703  0.75694665  1
  O  O381  1  0.12620924  0.76205956  0.24561271  1
  O  O382  1  0.11713392  0.75773177  0.75118662  1
  O  O383  1  0.61398093  0.26075327  0.24378519  1
  O  O384  1  0.61425836  0.26020876  0.74570159  1
  O  O385  1  0.62175219  0.73822233  0.26063448  1
  O  O386  1  0.63484118  0.76869344  0.74391402  1
  O  O387  1  0.38074127  0.24400799  0.24618449  1
  O  O388  1  0.38446984  0.24550039  0.74839933  1
  O  O389  1  0.37874779  0.73026655  0.24690118  1
  O  O390  1  0.36912137  0.74559254  0.73262371  1
  O  O391  1  0.88029134  0.25916575  0.23551870  1
  O  O392  1  0.87781412  0.24584863  0.74405052  1
  O  O393  1  0.89997202  0.72919017  0.28781917  1
  O  O394  1  0.87959056  0.74286889  0.74498097  1
  O  O395  1  0.37389871  0.49296268  0.50465618  1
  O  O396  1  0.38209092  0.48827410  1.00454384  1
  O  O397  1  0.37346235  1.00588730  0.48769441  1
  O  O398  1  0.37664791  0.99175949  0.99557180  1
  O  O399  1  0.87604494  0.49093391  0.49597594  1
  O  O400  1  0.86540115  0.48308856  0.98867025  1
  O  O401  1  0.88504452  0.99225344  0.50323634  1
  O  O402  1  0.87668548  0.99079603  0.99186954  1
  O  O403  1  0.12538041  0.00767590  0.01226305  1
  O  O404  1  0.11988762  0.00945488  0.50854544  1
  O  O405  1  0.12676801  0.51388459  -0.00359927  1
  O  O406  1  0.11389063  0.50690605  0.50230196  1
  O  O407  1  0.62257826  -0.00372922  0.00862518  1
  O  O408  1  0.62884299  0.00074502  0.51003956  1
  O  O409  1  0.61646651  0.50136853  0.00420402  1
  O  O410  1  0.62651229  0.50504087  0.50889635  1
  O  O411  1  0.36789390  0.36567907  0.12469807  1
  O  O412  1  0.37650136  0.37412920  0.61018170  1
  O  O413  1  0.36451978  0.88466663  0.11993864  1
  O  O414  1  0.36965930  0.86508867  0.62927076  1
  O  O415  1  0.86108330  0.37018822  0.11442253  1
  O  O416  1  0.87763575  0.36568998  0.61784359  1
  O  O417  1  0.85916911  0.88035568  0.10655007  1
  O  O418  1  0.87061071  0.87254079  0.61778870  1
  O  O419  1  0.13249747  0.12967793  0.38392061  1
  O  O420  1  0.12255266  0.13055570  0.88571967  1
  O  O421  1  0.13515222  0.62752666  0.38464664  1
  O  O422  1  0.13411936  0.62750746  0.88562972  1
  O  O423  1  0.64428592  0.11917184  0.37404447  1
  O  O424  1  0.63562377  0.11590643  0.86312074  1
  O  O425  1  0.63230833  0.62763236  0.37871012  1
  O  O426  1  0.62035683  0.61671307  0.88349489  1
