# generated using pymatgen
data_V85Zn86O256
_symmetry_space_group_name_H-M   'P 1'
_cell_length_a   16.96456040
_cell_length_b   16.95046143
_cell_length_c   16.95883163
_cell_angle_alpha   90.00056363
_cell_angle_beta   89.99931876
_cell_angle_gamma   89.98702764
_symmetry_Int_Tables_number   1
_chemical_formula_structural   V85Zn86O256
_chemical_formula_sum   'V85 Zn86 O256'
_cell_volume   4876.63277069
_cell_formula_units_Z   1
loop_
 _symmetry_equiv_pos_site_id
 _symmetry_equiv_pos_as_xyz
  1  'x, y, z'
loop_
 _atom_site_type_symbol
 _atom_site_label
 _atom_site_symmetry_multiplicity
 _atom_site_fract_x
 _atom_site_fract_y
 _atom_site_fract_z
 _atom_site_occupancy
  V  V0  1  0.75436210  0.35758944  0.13360088  1
  V  V1  1  0.00099217  0.49902295  0.49996293  1
  V  V2  1  -0.00381455  0.88095987  0.88146701  1
  V  V3  1  0.74225503  0.12762528  0.88538869  1
  V  V4  1  0.12036536  0.37601644  0.24808993  1
  V  V5  1  0.00110430  0.62749298  0.62799684  1
  V  V6  1  0.12511694  0.62710239  0.49449460  1
  V  V7  1  0.87836714  0.11951021  0.76326147  1
  V  V8  1  0.49837481  0.61545785  0.11667731  1
  V  V9  1  -0.00698860  0.24734651  0.23532248  1
  V  V10  1  -0.00275040  0.37193776  0.87736473  1
  V  V11  1  0.68488632  0.58311898  0.44338335  1
  V  V12  1  0.37784783  0.75132293  0.12366131  1
  V  V13  1  0.49887518  0.12223722  0.62884085  1
  V  V14  1  0.24950436  0.87400196  0.62395676  1
  V  V15  1  0.24915539  0.62525391  0.37273511  1
  V  V16  1  0.24904575  0.49773872  0.24872063  1
  V  V17  1  0.24768773  0.75005648  0.49067166  1
  V  V18  1  0.11553575  0.00747282  0.12482810  1
  V  V19  1  0.24635265  0.11101122  0.87565623  1
  V  V20  1  0.24939717  0.50327135  0.76107210  1
  V  V21  1  0.75551792  -0.00278839  0.75347504  1
  V  V22  1  0.12511965  0.62635171  -0.00297833  1
  V  V23  1  0.12337806  0.87534237  0.75116772  1
  V  V24  1  0.13151519  0.87654239  0.25069640  1
  V  V25  1  0.00680283  0.86889778  0.37440706  1
  V  V26  1  0.51026810  0.62371296  0.62262121  1
  V  V27  1  0.70451498  0.30807566  0.56807643  1
  V  V28  1  0.75792310  0.12730512  0.38095836  1
  V  V29  1  0.50210091  0.87182767  0.36885759  1
  V  V30  1  0.74966534  0.62795019  0.87921602  1
  V  V31  1  0.00217136  0.24799271  0.75655689  1
  V  V32  1  0.12219406  0.24778318  0.37269850  1
  V  V33  1  -0.00399161  0.50271144  0.00122365  1
  V  V34  1  0.62614829  0.25084870  0.37423029  1
  V  V35  1  0.24973842  0.37298229  0.12197857  1
  V  V36  1  0.49772157  0.24545510  0.25544534  1
  V  V37  1  0.25338114  0.88732505  0.12593555  1
  V  V38  1  0.50560694  0.26410598  0.75421762  1
  V  V39  1  0.62224190  0.38615923  0.25480805  1
  V  V40  1  0.37547205  0.48897321  0.37041567  1
  V  V41  1  0.12690012  0.49963188  0.62627557  1
  V  V42  1  0.74555200  0.48954493  0.74443246  1
  V  V43  1  0.12335525  0.37242017  0.75504477  1
  V  V44  1  0.25328781  0.74533987  -0.00166423  1
  V  V45  1  0.24183539  0.25525207  -0.01461536  1
  V  V46  1  0.37509403  0.00570070  0.35884337  1
  V  V47  1  0.50039527  0.00033156  0.49830518  1
  V  V48  1  0.74703802  -0.00484892  0.24700769  1
  V  V49  1  0.86060552  0.87716602  0.00059867  1
  V  V50  1  0.87265306  0.86721215  0.49915129  1
  V  V51  1  0.64121751  0.75545614  0.38317010  1
  V  V52  1  0.12303399  0.50369871  0.12405050  1
  V  V53  1  0.12760370  0.12332345  0.49842441  1
  V  V54  1  0.37645372  0.88674513  -0.01109239  1
  V  V55  1  0.24908075  0.37538324  0.62871366  1
  V  V56  1  0.86990725  0.50297726  0.87660820  1
  V  V57  1  0.87029354  0.36488251  0.00967919  1
  V  V58  1  0.50928344  0.01565440  -0.01055250  1
  V  V59  1  0.37578166  0.74618125  0.62315478  1
  V  V60  1  0.00133584  0.12221388  0.62648897  1
  V  V61  1  0.63369267  0.49964842  0.11922243  1
  V  V62  1  0.62545588  0.75214413  0.88594873  1
  V  V63  1  0.37287835  0.24616075  0.62749200  1
  V  V64  1  0.87645918  0.25010436  0.62865491  1
  V  V65  1  0.85936884  0.62542689  0.25612467  1
  V  V66  1  0.75054444  0.86647087  0.62279333  1
  V  V67  1  0.62748408  -0.00241897  0.62499437  1
  V  V68  1  0.50393493  0.74933071  0.75060027  1
  V  V69  1  0.63256854  0.12685315  0.50316694  1
  V  V70  1  0.85945284  0.75224725  0.12107826  1
  V  V71  1  0.37389991  0.62455266  0.24767529  1
  V  V72  1  0.87752858  0.36827419  0.50078103  1
  V  V73  1  0.38607423  0.37760577  -0.00304379  1
  V  V74  1  0.00102872  -0.00280851  0.49887121  1
  V  V75  1  0.39175008  0.49739212  0.87633094  1
  V  V76  1  0.37562116  0.87537346  0.49669996  1
  V  V77  1  0.37259536  0.37486756  0.49600791  1
  V  V78  1  0.37195236  0.62453131  0.75572748  1
  V  V79  1  0.00473338  0.74873508  0.24673913  1
  V  V80  1  0.12728002  0.74810128  0.87549471  1
  V  V81  1  -0.00450251  0.37569105  0.37156076  1
  V  V82  1  0.49646944  0.50448712  0.49357635  1
  V  V83  1  0.87597337  0.12660808  0.23427894  1
  V  V84  1  0.24790189  0.24858787  0.50250165  1
  Zn  Zn85  1  0.37856783  0.11875643  0.76216404  1
  Zn  Zn86  1  0.62211172  0.61821911  -0.00415772  1
  Zn  Zn87  1  0.62852277  0.49189746  0.62478799  1
  Zn  Zn88  1  0.25810688  -0.00633528  0.75501143  1
  Zn  Zn89  1  0.49654663  0.12168904  0.12802208  1
  Zn  Zn90  1  0.87434098  0.62718600  0.75055972  1
  Zn  Zn91  1  0.62633237  0.87290853  0.74977650  1
  Zn  Zn92  1  0.61917792  0.25763364  0.88022167  1
  Zn  Zn93  1  -0.00844590  0.00691051  0.00069243  1
  Zn  Zn94  1  0.37340121  0.24605464  0.12802182  1
  Zn  Zn95  1  0.86601553  0.50599946  0.37501728  1
  Zn  Zn96  1  0.87110303  0.74654457  0.62572181  1
  Zn  Zn97  1  0.24689901  0.11095837  0.35635100  1
  Zn  Zn98  1  -0.00426390  0.62875576  0.12523505  1
  Zn  Zn99  1  0.63542289  0.86685603  0.23925888  1
  Zn  Zn100  1  0.49667469  0.88087411  0.86809851  1
  Zn  Zn101  1  0.62726070  -0.00074228  0.11661947  1
  Zn  Zn102  1  0.87775923  -0.00060525  0.37220363  1
  Zn  Zn103  1  -0.00310567  0.74937779  0.75260521  1
  Zn  Zn104  1  0.11469986  0.13421807  -0.00179886  1
  Zn  Zn105  1  0.12699524  -0.00089725  0.62713684  1
  Zn  Zn106  1  0.50407879  0.74922065  0.24905386  1
  Zn  Zn107  1  0.18798231  0.18962565  0.18550250  1
  Zn  Zn108  1  0.18505269  0.18417110  0.69312811  1
  Zn  Zn109  1  0.18840601  0.69185930  0.18400198  1
  Zn  Zn110  1  0.18738747  0.68825787  0.68599251  1
  Zn  Zn111  1  0.68004411  0.17857154  0.18770700  1
  Zn  Zn112  1  0.68471231  0.17936457  0.70032103  1
  Zn  Zn113  1  0.68174863  0.68689664  0.18976931  1
  Zn  Zn114  1  0.68983108  0.68350989  0.69335919  1
  Zn  Zn115  1  0.29693773  0.28531034  0.30169383  1
  Zn  Zn116  1  0.31978143  0.31337257  0.81232736  1
  Zn  Zn117  1  0.31493338  0.81527387  0.30976470  1
  Zn  Zn118  1  0.30993920  0.80826946  0.81209534  1
  Zn  Zn119  1  0.80952434  0.30980983  0.31168645  1
  Zn  Zn120  1  0.77890767  0.33308564  0.83641371  1
  Zn  Zn121  1  0.81923875  0.81209268  0.31335051  1
  Zn  Zn122  1  0.81360229  0.80925938  0.81281512  1
  Zn  Zn123  1  0.18724093  0.43507757  0.43599927  1
  Zn  Zn124  1  0.18577144  0.43823808  0.93584271  1
  Zn  Zn125  1  0.18946185  0.93872028  0.43346265  1
  Zn  Zn126  1  0.18404799  0.93472716  0.94417536  1
  Zn  Zn127  1  0.68751947  0.42525675  0.43511740  1
  Zn  Zn128  1  0.66271476  0.39709323  0.96038171  1
  Zn  Zn129  1  0.69075214  0.93982730  0.43497603  1
  Zn  Zn130  1  0.68608339  0.93767472  0.93073804  1
  Zn  Zn131  1  0.31446411  0.07071821  0.06347534  1
  Zn  Zn132  1  0.31309484  0.05952461  0.56055231  1
  Zn  Zn133  1  0.31245714  0.56074629  0.05846500  1
  Zn  Zn134  1  0.31333589  0.56317633  0.56550335  1
  Zn  Zn135  1  0.81095056  0.05987419  0.06290886  1
  Zn  Zn136  1  0.81587303  0.05882621  0.56567934  1
  Zn  Zn137  1  0.80943104  0.56360294  0.06394493  1
  Zn  Zn138  1  0.81879324  0.55819827  0.56570152  1
  Zn  Zn139  1  0.44061244  0.43270340  0.18492681  1
  Zn  Zn140  1  0.43678643  0.44001352  0.68315170  1
  Zn  Zn141  1  0.44534277  0.93743963  0.17921905  1
  Zn  Zn142  1  0.43491921  0.93711032  0.68809250  1
  Zn  Zn143  1  0.93224719  0.44373785  0.18873958  1
  Zn  Zn144  1  0.93168991  0.43753722  0.69015141  1
  Zn  Zn145  1  0.93338768  0.93430471  0.18665087  1
  Zn  Zn146  1  0.93866158  0.93475417  0.68714679  1
  Zn  Zn147  1  0.06016699  0.05924715  0.30846360  1
  Zn  Zn148  1  0.06900448  0.06122062  0.81779432  1
  Zn  Zn149  1  0.05928278  0.56311837  0.31333183  1
  Zn  Zn150  1  0.06135959  0.56107629  0.81559666  1
  Zn  Zn151  1  0.56584693  0.06432261  0.31366424  1
  Zn  Zn152  1  0.56530848  0.06319756  0.81293856  1
  Zn  Zn153  1  0.55656784  0.56532290  0.30599065  1
  Zn  Zn154  1  0.56947135  0.56081311  0.80826744  1
  Zn  Zn155  1  0.44008665  0.18567305  0.43641962  1
  Zn  Zn156  1  0.43031111  0.19379568  0.93617320  1
  Zn  Zn157  1  0.43754664  0.68625399  0.43385511  1
  Zn  Zn158  1  0.43892027  0.68674464  0.93578951  1
  Zn  Zn159  1  0.93936308  0.18836721  0.43700713  1
  Zn  Zn160  1  0.93493618  0.18616185  0.94216763  1
  Zn  Zn161  1  0.93954064  0.68987113  0.43545849  1
  Zn  Zn162  1  0.93786279  0.69214563  0.93924449  1
  Zn  Zn163  1  0.06142767  0.31523059  0.06010819  1
  Zn  Zn164  1  0.06061025  0.31091443  0.56556313  1
  Zn  Zn165  1  0.06044042  0.81606752  0.06499411  1
  Zn  Zn166  1  0.06481772  0.80986278  0.56109574  1
  Zn  Zn167  1  0.56332244  0.30281744  0.07204000  1
  Zn  Zn168  1  0.54243936  0.31317216  0.55664168  1
  Zn  Zn169  1  0.56126167  0.81877886  0.06285404  1
  Zn  Zn170  1  0.56379379  0.81160377  0.55953319  1
  O  O171  1  0.13208867  0.10999188  0.12685495  1
  O  O172  1  0.11999803  0.12198893  0.61695055  1
  O  O173  1  0.12474840  0.62178996  0.11327080  1
  O  O174  1  0.12310662  0.61832943  0.61466839  1
  O  O175  1  0.61121011  0.11181151  0.13484404  1
  O  O176  1  0.61879315  0.11841488  0.62157627  1
  O  O177  1  0.61796605  0.61457027  0.12381177  1
  O  O178  1  0.61214543  0.62339903  0.62879582  1
  O  O179  1  0.36402588  0.38674359  0.37850309  1
  O  O180  1  0.37504226  0.38265632  0.88723221  1
  O  O181  1  0.38277743  0.88281613  0.37834855  1
  O  O182  1  0.37308182  0.86902419  0.88639354  1
  O  O183  1  0.87903390  0.37734314  0.38103682  1
  O  O184  1  0.87757382  0.38488019  0.88674056  1
  O  O185  1  0.88602771  0.87755870  0.38288655  1
  O  O186  1  0.88331093  0.86229241  0.89164057  1
  O  O187  1  0.26818232  -0.00206837  0.37447598  1
  O  O188  1  0.24668542  0.00810276  0.87878462  1
  O  O189  1  0.25507447  0.50465799  0.36784612  1
  O  O190  1  0.25623726  0.49696809  0.86320663  1
  O  O191  1  0.75622843  0.01036724  0.36843228  1
  O  O192  1  0.74474833  0.00891641  0.85944799  1
  O  O193  1  0.74452719  0.51666569  0.39145773  1
  O  O194  1  0.76327775  0.50595603  0.86390047  1
  O  O195  1  0.24399327  0.49142346  0.12769404  1
  O  O196  1  0.24622010  0.49405647  0.63429994  1
  O  O197  1  0.24558344  0.98982894  0.11840073  1
  O  O198  1  0.24704993  0.98263583  0.61822479  1
  O  O199  1  0.73517207  0.50329190  0.13194374  1
  O  O200  1  0.74749477  0.50900493  0.63944010  1
  O  O201  1  0.74911280  1.00533328  0.14390859  1
  O  O202  1  0.74562818  0.99126276  0.63253521  1
  O  O203  1  -0.00216847  0.37056510  0.25642164  1
  O  O204  1  -0.00021670  0.36754606  0.75849501  1
  O  O205  1  0.00505700  0.86749143  0.25626390  1
  O  O206  1  0.00855675  0.87135679  0.75626392  1
  O  O207  1  0.51862005  0.36990629  0.24810763  1
  O  O208  1  0.49507274  0.36238172  0.74278887  1
  O  O209  1  0.50064719  0.87458513  0.26106701  1
  O  O210  1  0.49902149  0.86081000  0.74722593  1
  O  O211  1  0.50034366  0.14245778  0.26063582  1
  O  O212  1  0.49898427  0.12851091  0.73690640  1
  O  O213  1  0.49029937  0.62875214  0.23702468  1
  O  O214  1  0.49345795  0.63126717  0.74187667  1
  O  O215  1  0.98480930  0.13239130  0.25558330  1
  O  O216  1  0.99827911  0.12805677  0.74884936  1
  O  O217  1  1.00266629  0.64010845  0.24963846  1
  O  O218  1  1.00453563  0.62613011  0.74024485  1
  O  O219  1  0.36189775  0.26548161  -0.00033614  1
  O  O220  1  0.36955691  0.25416326  0.50480183  1
  O  O221  1  0.36840172  0.75426283  0.00375675  1
  O  O222  1  0.36770921  0.75363641  0.50366419  1
  O  O223  1  0.87613297  0.26650626  -0.00053561  1
  O  O224  1  0.88158338  0.26015930  0.50784182  1
  O  O225  1  0.87637399  0.75552299  0.01542918  1
  O  O226  1  0.88348674  0.76361489  0.50434709  1
  O  O227  1  0.12512992  0.23987974  0.49742954  1
  O  O228  1  0.13816635  0.25357838  1.00312986  1
  O  O229  1  0.13554626  0.73899001  0.50170471  1
  O  O230  1  0.13158106  0.74554600  0.99679385  1
  O  O231  1  0.63259243  0.25160488  0.50061749  1
  O  O232  1  0.62931399  0.28766756  0.98955279  1
  O  O233  1  0.61897153  0.74818884  0.48166086  1
  O  O234  1  0.61532300  0.74622496  0.98809751  1
  O  O235  1  0.49896016  0.24898590  0.14397019  1
  O  O236  1  0.48998092  0.24208132  0.62986753  1
  O  O237  1  0.48749123  0.74404040  0.12369716  1
  O  O238  1  0.49517611  0.74265066  0.62890683  1
  O  O239  1  1.00013272  0.25667147  0.13672560  1
  O  O240  1  0.99465290  0.24179326  0.63226885  1
  O  O241  1  0.99222992  0.75038723  0.13386750  1
  O  O242  1  1.00563721  0.73567183  0.62547675  1
  O  O243  1  0.00399925  0.26137462  0.37085387  1
  O  O244  1  -0.00841757  0.26101510  0.86780626  1
  O  O245  1  0.00071044  0.76221486  0.36712234  1
  O  O246  1  0.01342572  0.75837017  0.87678095  1
  O  O247  1  0.51548659  0.24805169  0.37338978  1
  O  O248  1  0.49795826  0.24730520  0.85749624  1
  O  O249  1  0.50051204  0.75926265  0.37169138  1
  O  O250  1  0.50629237  0.74892195  0.86453585  1
  O  O251  1  0.23818851  0.12806017  0.49834168  1
  O  O252  1  0.24507919  0.13987652  0.99076774  1
  O  O253  1  0.24490556  0.63070702  0.49593157  1
  O  O254  1  0.24344992  0.63789217  1.00429035  1
  O  O255  1  0.74547130  0.11810504  0.49427103  1
  O  O256  1  0.75235342  0.11453613  0.98375115  1
  O  O257  1  0.74539565  0.62941082  0.50649134  1
  O  O258  1  0.74519248  0.61686424  0.98393916  1
  O  O259  1  0.25109335  0.37062178  0.00414036  1
  O  O260  1  0.25332774  0.37248895  0.51178486  1
  O  O261  1  0.25922228  0.86606121  0.00609756  1
  O  O262  1  0.25217727  0.86585809  0.50280868  1
  O  O263  1  0.76070412  0.38549946  0.02626646  1
  O  O264  1  0.76194430  0.37179210  0.50220538  1
  O  O265  1  0.76201464  0.87614842  -0.00737708  1
  O  O266  1  0.76266871  0.88424867  0.50851616  1
  O  O267  1  0.12885715  0.49563932  0.24500878  1
  O  O268  1  0.13247498  0.49513017  0.74716992  1
  O  O269  1  0.12374741  0.98924850  0.23875328  1
  O  O270  1  0.13193026  0.98540018  0.74888177  1
  O  O271  1  0.62400552  0.48979288  0.24903025  1
  O  O272  1  0.64023170  0.49495682  0.74642879  1
  O  O273  1  0.64228974  0.99749194  0.26055662  1
  O  O274  1  0.63275818  0.99772649  0.74020761  1
  O  O275  1  0.38293575  -0.00249479  0.26061500  1
  O  O276  1  0.36893464  0.00764905  0.74007571  1
  O  O277  1  0.36915031  0.50126093  0.25402427  1
  O  O278  1  0.36895561  0.50455139  0.75498224  1
  O  O279  1  0.87076881  0.01108213  0.25079665  1
  O  O280  1  0.86798142  0.00846500  0.74084610  1
  O  O281  1  0.87997651  0.52100625  0.25491558  1
  O  O282  1  0.87309454  0.50718882  0.75999512  1
  O  O283  1  0.11410507  0.37241732  0.36764025  1
  O  O284  1  0.10618046  0.38384582  0.86972875  1
  O  O285  1  0.11983840  0.87966850  0.36362013  1
  O  O286  1  0.12066362  0.86793153  0.87004484  1
  O  O287  1  0.62811572  0.36673227  0.36307635  1
  O  O288  1  0.66975159  0.36121829  0.85545121  1
  O  O289  1  0.62002171  0.86706797  0.37362905  1
  O  O290  1  0.62015410  0.86532151  0.86913651  1
  O  O291  1  0.38216267  0.13369576  0.12178960  1
  O  O292  1  0.38091648  0.13530229  0.61926839  1
  O  O293  1  0.37844216  0.62905668  0.12753678  1
  O  O294  1  0.38225445  0.62823932  0.63523667  1
  O  O295  1  0.87211777  0.12694572  0.13628695  1
  O  O296  1  0.88353794  0.13349113  0.62755367  1
  O  O297  1  0.87456439  0.63533794  0.13486610  1
  O  O298  1  0.88834512  0.62695149  0.62487054  1
  O  O299  1  0.24911804  0.26429245  0.11449304  1
  O  O300  1  0.25479612  0.25249025  0.62250315  1
  O  O301  1  0.26073512  0.75766805  0.11667022  1
  O  O302  1  0.25422848  0.75704043  0.61477867  1
  O  O303  1  0.74606879  0.25956581  0.13336403  1
  O  O304  1  0.75885398  0.24334622  0.63105159  1
  O  O305  1  0.76092380  0.74827822  0.12962476  1
  O  O306  1  0.74742684  0.76314361  0.63018034  1
  O  O307  1  0.23295677  0.26861894  0.39554212  1
  O  O308  1  0.24573419  0.25830624  0.88454681  1
  O  O309  1  0.25664922  0.74461724  0.38457305  1
  O  O310  1  0.23658897  0.75338875  0.88395802  1
  O  O311  1  0.73847659  0.24021019  0.37288999  1
  O  O312  1  0.76697263  0.22447718  0.86875038  1
  O  O313  1  0.74062654  0.75745661  0.37816363  1
  O  O314  1  0.73718086  0.74052443  0.86765019  1
  O  O315  1  0.00319680  0.11927422  -0.00402808  1
  O  O316  1  0.00962421  0.11691912  0.50214842  1
  O  O317  1  0.00753875  0.62075550  0.00268441  1
  O  O318  1  0.00873262  0.62054451  0.50352791  1
  O  O319  1  0.49662637  0.11681594  -0.00910583  1
  O  O320  1  0.50890797  0.12301665  0.51137295  1
  O  O321  1  0.49876881  0.62423530  0.01277015  1
  O  O322  1  0.48909266  0.61396674  0.50910588  1
  O  O323  1  0.48674117  0.39258952  0.49909517  1
  O  O324  1  0.48279663  0.37423661  1.01051543  1
  O  O325  1  0.49573805  0.87924906  0.48877989  1
  O  O326  1  0.48377627  0.87824679  0.99335689  1
  O  O327  1  0.99602548  0.37773873  0.49209664  1
  O  O328  1  0.99295195  0.38297652  0.99502081  1
  O  O329  1  1.00032195  0.88004069  0.49355546  1
  O  O330  1  0.99285459  0.87731373  0.99414507  1
  O  O331  1  0.48768361  0.50872670  0.38067715  1
  O  O332  1  0.49080146  0.50193222  0.86779924  1
  O  O333  1  0.49416177  0.99396481  0.37939293  1
  O  O334  1  0.49897908  0.99877056  0.88319506  1
  O  O335  1  0.99841074  0.48842347  0.38047124  1
  O  O336  1  0.98822904  0.49497803  0.88022474  1
  O  O337  1  0.99975359  0.98937821  0.38168527  1
  O  O338  1  1.00550943  0.98369304  0.87524667  1
  O  O339  1  0.01365303  -0.00530220  0.12733481  1
  O  O340  1  0.00503389  0.00371584  0.61656154  1
  O  O341  1  0.00596350  0.50408772  0.11923237  1
  O  O342  1  0.00601698  0.50818345  0.62023527  1
  O  O343  1  0.49444327  0.00044785  0.09910042  1
  O  O344  1  0.50607179  0.00567554  0.61859451  1
  O  O345  1  0.51367133  0.50635411  0.13381562  1
  O  O346  1  0.50476774  0.50609298  0.61587768  1
  O  O347  1  0.24200412  0.37721159  0.23978078  1
  O  O348  1  0.24559803  0.38065018  0.74678703  1
  O  O349  1  0.24302822  0.86942360  0.23845926  1
  O  O350  1  0.24386776  0.87108651  0.74004100  1
  O  O351  1  0.74064179  0.37372694  0.24296993  1
  O  O352  1  0.77256408  0.39337283  0.73712877  1
  O  O353  1  0.75641763  0.89198019  0.25786832  1
  O  O354  1  0.75169364  0.88199548  0.74249142  1
  O  O355  1  0.25812033  0.17892868  0.26952173  1
  O  O356  1  0.24701117  0.12178892  0.76492071  1
  O  O357  1  0.25297545  0.61901148  0.25196274  1
  O  O358  1  0.25908942  0.61571453  0.74282508  1
  O  O359  1  0.76182669  0.11894288  0.25938694  1
  O  O360  1  0.76225541  0.11419522  0.75172795  1
  O  O361  1  0.76138395  0.62957046  0.25353772  1
  O  O362  1  0.75246742  0.61510699  0.76168734  1
  O  O363  1  0.37610799  0.10757010  0.38121749  1
  O  O364  1  0.35098260  0.13604941  0.87590168  1
  O  O365  1  0.36703427  0.61656054  0.36661576  1
  O  O366  1  0.37806036  0.61816349  0.86236609  1
  O  O367  1  0.86618623  0.12331128  0.37781000  1
  O  O368  1  0.87525947  0.11767303  0.86455113  1
  O  O369  1  0.87918945  0.62785805  0.36134718  1
  O  O370  1  0.86996157  0.62078594  0.87718997  1
  O  O371  1  0.12955455  0.38400748  0.12903462  1
  O  O372  1  0.12794714  0.38100907  0.63315436  1
  O  O373  1  0.13482917  0.88244558  0.12976192  1
  O  O374  1  0.13222005  0.87186323  0.63341354  1
  O  O375  1  0.63555175  0.38449344  0.13759575  1
  O  O376  1  0.63147515  0.37276594  0.60608430  1
  O  O377  1  0.61786152  0.88504934  0.12974873  1
  O  O378  1  0.63212592  0.88063875  0.62406326  1
  O  O379  1  0.11079100  0.25836484  0.25364829  1
  O  O380  1  0.10999530  0.25652164  0.74491091  1
  O  O381  1  0.11789274  0.76393161  0.24145515  1
  O  O382  1  0.12656722  0.75769399  0.75884872  1
  O  O383  1  0.61805919  0.25769141  0.25896548  1
  O  O384  1  0.60692788  0.24975178  0.74323418  1
  O  O385  1  0.62285324  0.75119500  0.26423918  1
  O  O386  1  0.61445543  0.74886276  0.75505492  1
  O  O387  1  0.39893517  0.27328688  0.25365407  1
  O  O388  1  0.38250285  0.24482397  0.74080130  1
  O  O389  1  0.37448757  0.74404652  0.23884480  1
  O  O390  1  0.37983290  0.74115745  0.74540734  1
  O  O391  1  0.87962325  0.23498001  0.25650170  1
  O  O392  1  0.88882623  0.23826130  0.74105515  1
  O  O393  1  0.88199684  0.74388389  0.24182852  1
  O  O394  1  0.87998164  0.74533568  0.74489750  1
  O  O395  1  0.37815838  0.49725956  0.49144401  1
  O  O396  1  0.36831508  0.48842504  0.98915045  1
  O  O397  1  0.38349941  0.99102474  0.49719831  1
  O  O398  1  0.37293869  0.98766282  0.99692820  1
  O  O399  1  0.88323064  0.48780283  0.49836175  1
  O  O400  1  0.88063074  0.49745310  0.99638656  1
  O  O401  1  0.89060316  0.99153189  0.50124230  1
  O  O402  1  0.87575111  0.98087286  1.00971516  1
  O  O403  1  0.12269948  -0.00165456  0.01693606  1
  O  O404  1  0.11712175  0.00538691  0.49922538  1
  O  O405  1  0.11939051  0.50903035  0.00240481  1
  O  O406  1  0.12076701  0.50472206  0.50586019  1
  O  O407  1  0.61137612  -0.00026282  -0.00647553  1
  O  O408  1  0.61954850  0.00473477  0.50559196  1
  O  O409  1  0.62454766  0.49418989  0.01641386  1
  O  O410  1  0.62159255  0.51069386  0.49331014  1
  O  O411  1  0.36495752  0.37600540  0.11479971  1
  O  O412  1  0.36969362  0.36341459  0.61915180  1
  O  O413  1  0.37059154  0.86840936  0.11518007  1
  O  O414  1  0.36811933  0.86523744  0.61654433  1
  O  O415  1  0.86230165  0.37727923  0.12734425  1
  O  O416  1  0.88544014  0.35978058  0.61692321  1
  O  O417  1  0.87534599  0.86153469  0.11597317  1
  O  O418  1  0.86835623  0.87295435  0.61716529  1
  O  O419  1  0.12642999  0.12795323  0.38067786  1
  O  O420  1  0.14018017  0.12684955  0.87893033  1
  O  O421  1  0.13165008  0.61790589  0.38742869  1
  O  O422  1  0.12150217  0.63157667  0.88786825  1
  O  O423  1  0.63456202  0.13177144  0.38425240  1
  O  O424  1  0.63851255  0.13563732  0.86750096  1
  O  O425  1  0.62589988  0.63515226  0.37416450  1
  O  O426  1  0.63094897  0.63060407  0.87627800  1
