# generated using pymatgen
data_V85Zn86O256
_symmetry_space_group_name_H-M   'P 1'
_cell_length_a   16.92701975
_cell_length_b   16.93841972
_cell_length_c   16.93962812
_cell_angle_alpha   90.02048371
_cell_angle_beta   89.96360656
_cell_angle_gamma   90.08758568
_symmetry_Int_Tables_number   1
_chemical_formula_structural   V85Zn86O256
_chemical_formula_sum   'V85 Zn86 O256'
_cell_volume   4856.87179913
_cell_formula_units_Z   1
loop_
 _symmetry_equiv_pos_site_id
 _symmetry_equiv_pos_as_xyz
  1  'x, y, z'
loop_
 _atom_site_type_symbol
 _atom_site_label
 _atom_site_symmetry_multiplicity
 _atom_site_fract_x
 _atom_site_fract_y
 _atom_site_fract_z
 _atom_site_occupancy
  V  V0  1  0.63356396  0.62503415  0.49799666  1
  V  V1  1  0.62505527  0.00948864  0.11568847  1
  V  V2  1  0.75380277  0.50248739  0.24792424  1
  V  V3  1  -0.00922147  0.87437156  0.37528398  1
  V  V4  1  -0.00256428  0.62606403  0.13236629  1
  V  V5  1  0.50053274  0.12983896  0.62221674  1
  V  V6  1  0.25327837  0.37599119  0.12694252  1
  V  V7  1  0.39299495  0.74338695  0.62982063  1
  V  V8  1  0.25376569  0.13025852  0.38065366  1
  V  V9  1  0.50007501  0.62497185  0.12472133  1
  V  V10  1  0.12337035  0.50244091  0.12566046  1
  V  V11  1  0.25262442  0.63003941  0.38423960  1
  V  V12  1  0.87200905  0.75141764  0.60593812  1
  V  V13  1  0.37475566  0.62731927  0.25051691  1
  V  V14  1  0.12372470  0.87333211  0.24971844  1
  V  V15  1  0.24972584  -0.00418116  0.74932880  1
  V  V16  1  0.87221294  0.00996568  0.37603255  1
  V  V17  1  -0.00535402  0.50095837  0.50142412  1
  V  V18  1  0.24813371  0.85867846  0.62374377  1
  V  V19  1  0.25115977  0.50333052  0.25217314  1
  V  V20  1  0.49918379  0.50047141  -0.00552807  1
  V  V21  1  0.12660167  0.37388949  0.25352013  1
  V  V22  1  0.74802536  -0.00153872  0.75044591  1
  V  V23  1  -0.00533155  0.62388656  0.62855168  1
  V  V24  1  0.12350351  0.49848793  0.62287510  1
  V  V25  1  0.75149546  0.87340076  0.61201572  1
  V  V26  1  0.37125053  0.38245309  -0.01129222  1
  V  V27  1  0.74950055  0.00652324  0.25065243  1
  V  V28  1  0.12950478  0.75367866  0.38393032  1
  V  V29  1  -0.01196485  0.74956008  0.75348888  1
  V  V30  1  0.49419699  0.00756551  -0.00569643  1
  V  V31  1  0.12620026  -0.00388386  0.62456243  1
  V  V32  1  0.63968363  0.25842473  0.36968166  1
  V  V33  1  0.87630272  0.50962618  0.37042780  1
  V  V34  1  0.49615478  0.85953880  0.88029828  1
  V  V35  1  0.12123073  0.37611693  0.74629236  1
  V  V36  1  0.37151346  0.37459974  0.49779709  1
  V  V37  1  0.86724876  0.52907593  0.87343695  1
  V  V38  1  0.63609706  0.75136520  0.37733392  1
  V  V39  1  0.25040022  0.12201073  0.87608371  1
  V  V40  1  0.87887458  0.12929009  0.23464247  1
  V  V41  1  0.61817036  0.87221678  0.75341085  1
  V  V42  1  0.62156436  0.24843067  0.88491924  1
  V  V43  1  0.37410391  0.12373082  0.74818355  1
  V  V44  1  0.37580271  -0.00009548  0.37702319  1
  V  V45  1  0.75020068  0.87446239  0.11377931  1
  V  V46  1  0.63617017  0.63538124  0.00553785  1
  V  V47  1  0.75932918  0.37458327  0.62096493  1
  V  V48  1  0.62641798  0.87844513  0.24767815  1
  V  V49  1  0.62584997  0.37369056  0.75172422  1
  V  V50  1  0.50107066  0.87554786  0.37488989  1
  V  V51  1  0.62371892  0.48770394  0.12910861  1
  V  V52  1  0.11904421  0.87284140  0.75460523  1
  V  V53  1  -0.01155679  0.37185372  0.37635649  1
  V  V54  1  0.12697408  0.12459616  0.49997003  1
  V  V55  1  0.64171971  0.13595281  0.49599600  1
  V  V56  1  -0.00125466  0.24646701  0.75608573  1
  V  V57  1  0.62443156  0.00018088  0.62424751  1
  V  V58  1  0.87137707  0.12617485  0.75038413  1
  V  V59  1  0.74304522  0.12261189  0.88538504  1
  V  V60  1  -0.00186985  0.12235039  0.62514205  1
  V  V61  1  0.86713284  0.74299598  0.12558360  1
  V  V62  1  0.25074431  0.61436815  0.87196688  1
  V  V63  1  0.50094634  0.50476733  0.49873616  1
  V  V64  1  0.62193523  0.50143470  0.62577447  1
  V  V65  1  0.50076424  0.00119863  0.50063612  1
  V  V66  1  -0.00421447  -0.00559446  0.50008409  1
  V  V67  1  0.00023171  -0.00351140  0.00205100  1
  V  V68  1  0.37573080  0.75564056  0.11688582  1
  V  V69  1  0.88122933  -0.00797027  0.87373677  1
  V  V70  1  0.25187245  -0.00028778  0.25186158  1
  V  V71  1  0.12664434  0.25279890  0.38367007  1
  V  V72  1  0.12460627  0.25440906  0.87560233  1
  V  V73  1  0.25150729  0.87614125  0.11653222  1
  V  V74  1  0.25130382  0.24852422  0.00237682  1
  V  V75  1  0.67860251  0.69603505  0.82920884  1
  V  V76  1  0.38671576  0.62016112  0.75159074  1
  V  V77  1  0.37159473  0.86589518  0.50052231  1
  V  V78  1  0.12033813  0.00864311  0.12765815  1
  V  V79  1  0.76906647  0.36915734  0.12162097  1
  V  V80  1  0.50128441  0.75177068  0.25050326  1
  V  V81  1  0.00048741  0.24605718  0.23904461  1
  V  V82  1  0.12546157  0.62690033  0.00137012  1
  V  V83  1  0.36527417  0.24965199  0.61876325  1
  V  V84  1  0.12067327  0.75043335  0.87506850  1
  Zn  Zn85  1  0.12940601  0.63049336  0.50472552  1
  Zn  Zn86  1  0.74801361  0.51371723  0.75593166  1
  Zn  Zn87  1  0.49981241  0.12830213  0.12559454  1
  Zn  Zn88  1  0.85787387  0.24483159  0.60180095  1
  Zn  Zn89  1  0.75709144  0.63124620  0.37003215  1
  Zn  Zn90  1  0.87870699  0.86892365  -0.00580139  1
  Zn  Zn91  1  0.49609464  0.37497865  0.87223446  1
  Zn  Zn92  1  -0.08284027  0.35454500  0.94990478  1
  Zn  Zn93  1  0.25476111  0.75284754  -0.00641132  1
  Zn  Zn94  1  0.50670225  0.37491184  0.36891735  1
  Zn  Zn95  1  0.49757078  0.25227755  0.75110492  1
  Zn  Zn96  1  0.50340964  0.25417321  0.24835986  1
  Zn  Zn97  1  0.24177146  0.36829323  0.61790508  1
  Zn  Zn98  1  0.38078659  0.12702007  0.24897972  1
  Zn  Zn99  1  -0.00531483  0.74622549  0.25298586  1
  Zn  Zn100  1  -0.00562547  0.49894003  -0.00739421  1
  Zn  Zn101  1  0.37104392  -0.01233757  0.87793098  1
  Zn  Zn102  1  0.12047865  0.12709039  0.00651051  1
  Zn  Zn103  1  0.37906232  0.49977859  0.37392582  1
  Zn  Zn104  1  0.25441945  0.49579418  0.74910666  1
  Zn  Zn105  1  0.37996565  0.24742995  0.12814155  1
  Zn  Zn106  1  0.76020597  0.25207863  0.00279937  1
  Zn  Zn107  1  0.19338869  0.18898638  0.19462359  1
  Zn  Zn108  1  0.18588103  0.18531517  0.68769211  1
  Zn  Zn109  1  0.18798817  0.69151495  0.19028796  1
  Zn  Zn110  1  0.18528906  0.68285908  0.69191928  1
  Zn  Zn111  1  0.69120359  0.18915022  0.18728679  1
  Zn  Zn112  1  0.68557832  0.19167876  0.69035092  1
  Zn  Zn113  1  0.68798505  0.68480685  0.18807566  1
  Zn  Zn114  1  0.68348330  0.69170910  0.66682769  1
  Zn  Zn115  1  0.31789153  0.31148930  0.31481321  1
  Zn  Zn116  1  0.30789736  0.31115821  0.80703195  1
  Zn  Zn117  1  0.31200262  0.81235307  0.30937441  1
  Zn  Zn118  1  0.31163852  0.80499797  0.81014319  1
  Zn  Zn119  1  0.80798057  0.31408006  0.30647448  1
  Zn  Zn120  1  0.80356357  0.31040060  0.81414114  1
  Zn  Zn121  1  0.81366874  0.81720633  0.30372369  1
  Zn  Zn122  1  0.81037043  0.81548182  0.80636594  1
  Zn  Zn123  1  0.18723106  0.44073383  0.43969614  1
  Zn  Zn124  1  0.17760989  0.43656161  0.93906563  1
  Zn  Zn125  1  0.18855953  0.93622830  0.43915630  1
  Zn  Zn126  1  0.18274558  0.93710765  0.93863898  1
  Zn  Zn127  1  0.69462573  0.43647099  0.44009925  1
  Zn  Zn128  1  0.69172189  0.44036525  0.93933124  1
  Zn  Zn129  1  0.68639254  0.94442423  0.43471442  1
  Zn  Zn130  1  0.68204052  0.93578369  0.93497172  1
  Zn  Zn131  1  0.31519943  0.06084271  0.06232682  1
  Zn  Zn132  1  0.31214550  0.05746920  0.56217393  1
  Zn  Zn133  1  0.31219433  0.56490368  0.06149674  1
  Zn  Zn134  1  0.31359231  0.56122257  0.56618703  1
  Zn  Zn135  1  0.81455904  0.05911222  0.06069497  1
  Zn  Zn136  1  0.81445828  0.05725981  0.56407053  1
  Zn  Zn137  1  0.81400138  0.55673332  0.05753493  1
  Zn  Zn138  1  0.81195214  0.55886130  0.56440550  1
  Zn  Zn139  1  0.43834813  0.43353903  0.18859929  1
  Zn  Zn140  1  0.43943463  0.43661064  0.68374833  1
  Zn  Zn141  1  0.43800569  0.94214498  0.18517834  1
  Zn  Zn142  1  0.43736042  0.93518579  0.68989345  1
  Zn  Zn143  1  0.93981983  0.43930826  0.19005037  1
  Zn  Zn144  1  0.91516397  0.42084538  0.74134953  1
  Zn  Zn145  1  0.93577254  0.93568873  0.18657895  1
  Zn  Zn146  1  0.93518283  0.93301082  0.68728123  1
  Zn  Zn147  1  0.06125313  0.06386415  0.31221724  1
  Zn  Zn148  1  0.06236717  0.06183933  0.81674134  1
  Zn  Zn149  1  0.06573261  0.56380016  0.31514333  1
  Zn  Zn150  1  0.05742566  0.56294280  0.81063044  1
  Zn  Zn151  1  0.56585726  0.07116291  0.31366128  1
  Zn  Zn152  1  0.56047493  0.06139277  0.81262730  1
  Zn  Zn153  1  0.56483292  0.56093316  0.31220121  1
  Zn  Zn154  1  0.56114689  0.55696412  0.81388418  1
  Zn  Zn155  1  0.44385210  0.19305300  0.43485870  1
  Zn  Zn156  1  0.43425396  0.18837811  0.93826074  1
  Zn  Zn157  1  0.44300968  0.68698192  0.43895514  1
  Zn  Zn158  1  0.43767135  0.68140788  0.93648608  1
  Zn  Zn159  1  0.93709530  0.18636065  0.43386284  1
  Zn  Zn160  1  0.93554328  0.17553829  0.94176596  1
  Zn  Zn161  1  0.94223487  0.68590726  0.43801483  1
  Zn  Zn162  1  0.93938525  0.68833488  0.94543824  1
  Zn  Zn163  1  0.06450831  0.31664415  0.06145463  1
  Zn  Zn164  1  0.02911591  0.30450148  0.55641695  1
  Zn  Zn165  1  0.05824981  0.81330662  0.06322688  1
  Zn  Zn166  1  0.05833134  0.81260915  0.56320009  1
  Zn  Zn167  1  0.56001816  0.31177002  0.06075082  1
  Zn  Zn168  1  0.56078306  0.31603711  0.56055805  1
  Zn  Zn169  1  0.56043268  0.81824008  0.06073156  1
  Zn  Zn170  1  0.56549430  0.81218628  0.55900879  1
  O  O171  1  0.13391918  0.11123787  0.12956822  1
  O  O172  1  0.12070488  0.11497694  0.62004131  1
  O  O173  1  0.12209434  0.62489892  0.11887853  1
  O  O174  1  0.11618219  0.61964234  0.62379469  1
  O  O175  1  0.62791777  0.11184245  0.12615170  1
  O  O176  1  0.61769455  0.12311545  0.61882959  1
  O  O177  1  0.61853332  0.61801288  0.11880067  1
  O  O178  1  0.62487310  0.61553786  0.61162814  1
  O  O179  1  0.37579634  0.37989203  0.38594163  1
  O  O180  1  0.37003218  0.37223280  0.88523827  1
  O  O181  1  0.37870183  0.87626401  0.38411102  1
  O  O182  1  0.39023377  0.87155348  0.86378235  1
  O  O183  1  0.88580342  0.38257737  0.36842380  1
  O  O184  1  0.87724163  0.38667242  0.84923008  1
  O  O185  1  0.88691117  0.88547568  0.36644559  1
  O  O186  1  0.86782373  0.88797275  0.87416391  1
  O  O187  1  0.25624341  0.00423905  0.37171913  1
  O  O188  1  0.25023659  0.00488606  0.87046504  1
  O  O189  1  0.25104895  0.51106371  0.36719510  1
  O  O190  1  0.24280377  0.51113770  0.87334627  1
  O  O191  1  0.76019763  -0.00463943  0.36341032  1
  O  O192  1  0.75198472  0.00512557  0.86831905  1
  O  O193  1  0.76035314  0.49733515  0.36596969  1
  O  O194  1  0.75951893  0.50438924  0.87411292  1
  O  O195  1  0.24433187  0.49636704  0.13170059  1
  O  O196  1  0.23282614  0.50180441  0.62548592  1
  O  O197  1  0.24437660  0.99207693  0.13126698  1
  O  O198  1  0.24516726  0.98823337  0.63111519  1
  O  O199  1  0.74198419  0.49381618  0.12854146  1
  O  O200  1  0.74045064  0.49463099  0.63191350  1
  O  O201  1  0.74361999  0.99391625  0.12831390  1
  O  O202  1  0.74460932  0.99298113  0.63157985  1
  O  O203  1  0.00784528  0.36922671  0.25767889  1
  O  O204  1  0.01273175  0.35981917  0.74806366  1
  O  O205  1  0.00851924  0.87619915  0.25851272  1
  O  O206  1  0.01186026  0.86637042  0.74398399  1
  O  O207  1  0.49859928  0.37110043  0.25483328  1
  O  O208  1  0.50984975  0.37579421  0.75222662  1
  O  O209  1  0.50653900  0.87298065  0.25512729  1
  O  O210  1  0.51048571  0.87798680  0.75896217  1
  O  O211  1  0.49907144  0.12854542  0.24630812  1
  O  O212  1  0.49287281  0.12262057  0.73664510  1
  O  O213  1  0.49477796  0.63091023  0.24465624  1
  O  O214  1  0.48588782  0.62329648  0.75646660  1
  O  O215  1  0.98926583  0.13135059  0.25207079  1
  O  O216  1  0.99058095  0.12361603  0.74684033  1
  O  O217  1  1.00927674  0.62662902  0.23669959  1
  O  O218  1  1.00458825  0.63643475  0.73536893  1
  O  O219  1  0.36185339  0.25834443  0.00090299  1
  O  O220  1  0.38015886  0.26062625  0.50718343  1
  O  O221  1  0.37469803  0.74537207  0.01320795  1
  O  O222  1  0.38189846  0.75782969  0.51190022  1
  O  O223  1  0.87302093  0.25634232  -0.01786224  1
  O  O224  1  0.92488748  0.25839448  0.51554940  1
  O  O225  1  0.88117711  0.75537823  0.01898198  1
  O  O226  1  0.88043538  0.75553250  0.50754876  1
  O  O227  1  0.11565638  0.24299828  0.48916737  1
  O  O228  1  0.13570496  0.24753519  0.99333920  1
  O  O229  1  0.12243747  0.75218623  0.48812009  1
  O  O230  1  0.12475958  0.74201284  0.99332573  1
  O  O231  1  0.62383550  0.23884669  0.49827952  1
  O  O232  1  0.63084371  0.25455077  0.98709849  1
  O  O233  1  0.62040978  0.74012367  0.48886026  1
  O  O234  1  0.62006151  0.73425640  1.01031612  1
  O  O235  1  0.49890654  0.24611970  0.12545720  1
  O  O236  1  0.49095579  0.24223227  0.62566882  1
  O  O237  1  0.49302734  0.74917833  0.13131005  1
  O  O238  1  0.49116837  0.75236384  0.62707126  1
  O  O239  1  1.01281746  0.25258701  0.14011908  1
  O  O240  1  1.01220120  0.23424090  0.64668559  1
  O  O241  1  0.99244452  0.74323163  0.12976754  1
  O  O242  1  0.98886486  0.74608840  0.62862206  1
  O  O243  1  0.00824101  0.25804924  0.36494536  1
  O  O244  1  0.01195884  0.23558444  0.86474938  1
  O  O245  1  0.00645205  0.75857579  0.37252704  1
  O  O246  1  0.01099860  0.74208611  0.86730435  1
  O  O247  1  0.51877974  0.25247632  0.37603797  1
  O  O248  1  0.50613109  0.25130328  0.87356386  1
  O  O249  1  0.50847318  0.75762787  0.36897543  1
  O  O250  1  0.50092418  0.76066903  0.88139190  1
  O  O251  1  0.24172731  0.11622516  0.48933157  1
  O  O252  1  0.24817732  0.13168295  0.99298582  1
  O  O253  1  0.25121416  0.62230655  0.48743276  1
  O  O254  1  0.24408215  0.62979627  0.99243530  1
  O  O255  1  0.73990316  0.12629987  0.50958082  1
  O  O256  1  0.75301756  0.12455650  0.98795056  1
  O  O257  1  0.73793890  0.61765365  0.49251983  1
  O  O258  1  0.73459796  0.62575762  1.00865470  1
  O  O259  1  0.25158931  0.37050171  0.00650343  1
  O  O260  1  0.26508108  0.38362334  0.50272751  1
  O  O261  1  0.24603321  0.87273885  0.01253646  1
  O  O262  1  0.26121948  0.87807374  0.51004824  1
  O  O263  1  0.74773368  0.37677833  0.01796951  1
  O  O264  1  0.75573915  0.38360587  0.52155243  1
  O  O265  1  0.74967109  0.88038079  0.01122673  1
  O  O266  1  0.74177257  0.88230781  0.51310820  1
  O  O267  1  0.13228378  0.49465702  0.24630974  1
  O  O268  1  0.12081544  0.49062515  0.74266290  1
  O  O269  1  0.12906123  0.99109495  0.24661799  1
  O  O270  1  0.12822794  0.99059989  0.74615567  1
  O  O271  1  0.63068047  0.50386118  0.23436605  1
  O  O272  1  0.62569350  0.49496562  0.74285288  1
  O  O273  1  0.63361275  0.99795531  0.24498015  1
  O  O274  1  0.62734844  0.99231890  0.74223507  1
  O  O275  1  0.36902441  -0.00070798  0.26058567  1
  O  O276  1  0.36674745  0.00537742  0.75085834  1
  O  O277  1  0.36823456  0.51145928  0.24866652  1
  O  O278  1  0.37240817  0.51536293  0.73805180  1
  O  O279  1  0.87133806  0.00990429  0.25407983  1
  O  O280  1  0.87044680  0.00565700  0.75417500  1
  O  O281  1  0.86879976  0.49968832  0.25875072  1
  O  O282  1  0.86574246  0.52037056  0.76308499  1
  O  O283  1  0.12230321  0.36847706  0.37116774  1
  O  O284  1  0.13235504  0.36083869  0.86516449  1
  O  O285  1  0.11877583  0.87175764  0.36912456  1
  O  O286  1  0.12983455  0.86474520  0.86512652  1
  O  O287  1  0.62826034  0.36175113  0.38417112  1
  O  O288  1  0.62497156  0.36788035  0.86894059  1
  O  O289  1  0.62093790  0.87065961  0.36970943  1
  O  O290  1  0.61137794  0.87765891  0.86498490  1
  O  O291  1  0.37631060  0.12645302  0.12856274  1
  O  O292  1  0.38058205  0.12956869  0.62568521  1
  O  O293  1  0.37968211  0.63366625  0.13152641  1
  O  O294  1  0.37305460  0.63719869  0.63252290  1
  O  O295  1  0.87731728  0.12133964  0.13588005  1
  O  O296  1  0.87938199  0.12660144  0.63289846  1
  O  O297  1  0.88117739  0.63447209  0.12062218  1
  O  O298  1  0.87991839  0.63993221  0.61850713  1
  O  O299  1  0.24739479  0.25909641  0.11765341  1
  O  O300  1  0.26087153  0.24597291  0.62418983  1
  O  O301  1  0.25792340  0.75923247  0.12546330  1
  O  O302  1  0.25226994  0.75696979  0.62734571  1
  O  O303  1  0.74991759  0.26522689  0.12469254  1
  O  O304  1  0.74922902  0.26633755  0.62945498  1
  O  O305  1  0.75933377  0.75746709  0.13062383  1
  O  O306  1  0.76388165  0.75718784  0.62181145  1
  O  O307  1  0.24044141  0.24052260  0.37401800  1
  O  O308  1  0.24439315  0.24227858  0.88129844  1
  O  O309  1  0.24170127  0.74367825  0.37031045  1
  O  O310  1  0.23748297  0.74057555  0.87405081  1
  O  O311  1  0.74112600  0.25389364  0.37838557  1
  O  O312  1  0.73905298  0.23748160  0.87248351  1
  O  O313  1  0.73995854  0.75347116  0.36700097  1
  O  O314  1  0.74220681  0.75522009  0.87780244  1
  O  O315  1  0.00626524  0.10622284  -0.00302211  1
  O  O316  1  0.00937372  0.10981510  0.50241798  1
  O  O317  1  0.01027505  0.62347341  0.01328548  1
  O  O318  1  0.00475530  0.62028885  0.51002142  1
  O  O319  1  0.49743049  0.11094014  -0.00133690  1
  O  O320  1  0.50365012  0.12007153  0.51085713  1
  O  O321  1  0.50299257  0.61709110  0.00765454  1
  O  O322  1  0.51089417  0.61187161  0.49376918  1
  O  O323  1  0.49050857  0.38643272  0.49854823  1
  O  O324  1  0.48750071  0.38272024  0.99903578  1
  O  O325  1  0.49377467  0.88065668  0.49479715  1
  O  O326  1  0.50195623  0.88263833  0.98484170  1
  O  O327  1  1.01112045  0.39133404  0.48491471  1
  O  O328  1  1.01575721  0.38614908  0.99236962  1
  O  O329  1  1.00514748  0.88643485  0.49113226  1
  O  O330  1  1.00025830  0.88833820  1.00002966  1
  O  O331  1  0.50024144  0.49768609  0.38362979  1
  O  O332  1  0.50249934  0.49595956  0.89054385  1
  O  O333  1  0.49612241  0.99526547  0.38123291  1
  O  O334  1  0.49694816  0.99543934  0.88441945  1
  O  O335  1  0.99465699  0.49621340  0.37879980  1
  O  O336  1  0.97900752  0.51525136  0.87433323  1
  O  O337  1  0.99486914  0.99414859  0.38137426  1
  O  O338  1  0.99044000  1.00027489  0.88085893  1
  O  O339  1  0.01097631  -0.00576606  0.12026436  1
  O  O340  1  0.00317469  0.00129663  0.61817283  1
  O  O341  1  0.00786884  0.50813117  0.12501951  1
  O  O342  1  0.00634257  0.50956769  0.61712659  1
  O  O343  1  0.50779467  -0.00181072  0.11168788  1
  O  O344  1  0.50493693  0.00509389  0.61968922  1
  O  O345  1  0.50945945  0.50367350  0.11909028  1
  O  O346  1  0.51420414  0.49494326  0.61541891  1
  O  O347  1  0.24757827  0.38182618  0.24419884  1
  O  O348  1  0.23689810  0.37612605  0.74208999  1
  O  O349  1  0.24205694  0.88178750  0.24470449  1
  O  O350  1  0.24050350  0.87538441  0.74256133  1
  O  O351  1  0.75391801  0.38735816  0.23369497  1
  O  O352  1  0.73420435  0.37822042  0.74396405  1
  O  O353  1  0.74562836  0.88834676  0.23928622  1
  O  O354  1  0.73708597  0.88051649  0.74179276  1
  O  O355  1  0.25037823  0.11582033  0.26579946  1
  O  O356  1  0.25374310  0.11700610  0.75587480  1
  O  O357  1  0.25584630  0.62313548  0.25754469  1
  O  O358  1  0.25631682  0.62086022  0.75759989  1
  O  O359  1  0.76329011  0.11474908  0.24444914  1
  O  O360  1  0.75645065  0.11816365  0.75234807  1
  O  O361  1  0.74680394  0.60912672  0.25128327  1
  O  O362  1  0.72993380  0.63782590  0.76226520  1
  O  O363  1  0.36780920  0.11889545  0.38145225  1
  O  O364  1  0.36249018  0.12415268  0.86889369  1
  O  O365  1  0.36942158  0.62776078  0.36814071  1
  O  O366  1  0.36596468  0.63152716  0.86037866  1
  O  O367  1  0.87998087  0.11366153  0.36654265  1
  O  O368  1  0.86472188  0.11138555  0.86575050  1
  O  O369  1  0.87632355  0.61504429  0.37622288  1
  O  O370  1  0.86533363  0.62884233  0.88257766  1
  O  O371  1  0.13716534  0.38183425  0.13207398  1
  O  O372  1  0.12053816  0.38195025  0.62896178  1
  O  O373  1  0.13220212  0.87881872  0.13409176  1
  O  O374  1  0.13142056  0.87633519  0.63064606  1
  O  O375  1  0.62661005  0.38766690  0.12096624  1
  O  O376  1  0.63061844  0.38143774  0.63108296  1
  O  O377  1  0.63110248  0.88304085  0.13027677  1
  O  O378  1  0.62926934  0.87788321  0.63120604  1
  O  O379  1  0.12112355  0.25372895  0.26158140  1
  O  O380  1  0.12210428  0.25355956  0.75766691  1
  O  O381  1  0.12378870  0.76310139  0.25876959  1
  O  O382  1  0.11630937  0.75533000  0.75603675  1
  O  O383  1  0.63061277  0.24345726  0.26736833  1
  O  O384  1  0.61937431  0.25834528  0.75823155  1
  O  O385  1  0.62001474  0.75696108  0.25524241  1
  O  O386  1  0.62837518  0.75410379  0.75604359  1
  O  O387  1  0.37511202  0.24511686  0.24684779  1
  O  O388  1  0.37562162  0.24135456  0.74085353  1
  O  O389  1  0.38086495  0.74413453  0.24279547  1
  O  O390  1  0.37266230  0.73857793  0.73607013  1
  O  O391  1  0.88274953  0.23597211  0.25426913  1
  O  O392  1  0.88219563  0.23518735  0.75374378  1
  O  O393  1  0.87857951  0.75398253  0.23307139  1
  O  O394  1  0.88622693  0.75606903  0.74367596  1
  O  O395  1  0.38502629  0.49646427  0.50195366  1
  O  O396  1  0.38352458  0.49333856  1.00575432  1
  O  O397  1  0.38121345  0.98717382  0.49725751  1
  O  O398  1  0.38888461  0.99558625  0.99767883  1
  O  O399  1  0.88778901  0.50419564  0.49273500  1
  O  O400  1  0.87542002  0.49883987  0.98293441  1
  O  O401  1  0.88380182  1.00313724  0.49073880  1
  O  O402  1  0.88239284  0.99634369  0.99147271  1
  O  O403  1  0.12049309  0.00103433  0.01127855  1
  O  O404  1  0.11896077  0.00270674  0.50626621  1
  O  O405  1  0.12719885  0.51503900  0.00719423  1
  O  O406  1  0.11621967  0.50611056  0.50603095  1
  O  O407  1  0.61194112  -0.00436354  0.00634594  1
  O  O408  1  0.62021723  0.01265106  0.50500890  1
  O  O409  1  0.61824125  0.50820565  0.01059615  1
  O  O410  1  0.62077082  0.50465843  0.50448675  1
  O  O411  1  0.36123952  0.37715310  0.11539255  1
  O  O412  1  0.37214866  0.36524582  0.61890119  1
  O  O413  1  0.36434347  0.86700578  0.13339984  1
  O  O414  1  0.36985656  0.86183984  0.62245834  1
  O  O415  1  0.86861574  0.37836643  0.12293981  1
  O  O416  1  0.86036666  0.37565362  0.64393030  1
  O  O417  1  0.86520194  0.86811263  0.12313911  1
  O  O418  1  0.86594544  0.86300812  0.62660617  1
  O  O419  1  0.13085869  0.13120342  0.38040991  1
  O  O420  1  0.13780970  0.13259703  0.87380563  1
  O  O421  1  0.13372230  0.63674382  0.37585549  1
  O  O422  1  0.12992911  0.62982081  0.88156960  1
  O  O423  1  0.62908466  0.13061068  0.39180369  1
  O  O424  1  0.63314590  0.13254679  0.86680434  1
  O  O425  1  0.62820661  0.63557383  0.37820588  1
  O  O426  1  0.62040780  0.62928978  0.88794817  1
