# generated using pymatgen
data_V85Zn86O256
_symmetry_space_group_name_H-M   'P 1'
_cell_length_a   16.90540787
_cell_length_b   16.91184999
_cell_length_c   16.91472393
_cell_angle_alpha   90.00155555
_cell_angle_beta   89.96524108
_cell_angle_gamma   89.94105617
_symmetry_Int_Tables_number   1
_chemical_formula_structural   V85Zn86O256
_chemical_formula_sum   'V85 Zn86 O256'
_cell_volume   4835.94524581
_cell_formula_units_Z   1
loop_
 _symmetry_equiv_pos_site_id
 _symmetry_equiv_pos_as_xyz
  1  'x, y, z'
loop_
 _atom_site_type_symbol
 _atom_site_label
 _atom_site_symmetry_multiplicity
 _atom_site_fract_x
 _atom_site_fract_y
 _atom_site_fract_z
 _atom_site_occupancy
  V  V0  1  0.88396973  0.75121596  0.13080347  1
  V  V1  1  0.50175165  0.63062002  0.61990878  1
  V  V2  1  0.50662083  0.11641135  0.12042655  1
  V  V3  1  0.00192469  0.37123145  0.37630857  1
  V  V4  1  0.87804144  0.49457880  0.88972872  1
  V  V5  1  0.25488103  0.75637542  0.51007960  1
  V  V6  1  0.25233900  -0.00622577  0.24856052  1
  V  V7  1  0.12510667  0.75068211  0.87435863  1
  V  V8  1  0.74774588  0.73637666  0.49762813  1
  V  V9  1  0.25123963  0.25964559  0.49517451  1
  V  V10  1  0.62647504  0.37333143  0.75526760  1
  V  V11  1  0.63094332  0.49993431  0.62252485  1
  V  V12  1  0.61947315  0.75337078  0.87765591  1
  V  V13  1  0.37562041  0.87565127  0.52073953  1
  V  V14  1  -0.00172837  0.87045134  0.36865379  1
  V  V15  1  0.87679724  0.87672312  -0.00027895  1
  V  V16  1  0.00406768  0.26060567  0.74858288  1
  V  V17  1  0.50228313  0.37325497  0.37921298  1
  V  V18  1  0.37567774  0.12510751  0.25083529  1
  V  V19  1  0.00167435  -0.00029967  0.49822069  1
  V  V20  1  0.00142410  0.37599426  0.89068607  1
  V  V21  1  0.50373954  0.25162653  0.75930610  1
  V  V22  1  0.63455205  0.00225217  0.62930661  1
  V  V23  1  0.13816272  0.12156557  -0.00748120  1
  V  V24  1  0.74351428  0.12450896  0.87283631  1
  V  V25  1  0.74466646  0.00664404  0.25031820  1
  V  V26  1  0.74748765  0.87969288  0.12563746  1
  V  V27  1  0.13314732  0.24952118  0.86872297  1
  V  V28  1  0.87181385  0.25789289  0.62504106  1
  V  V29  1  0.50336547  0.49803123  0.50334769  1
  V  V30  1  0.00246990  0.12614962  0.62495004  1
  V  V31  1  0.00627374  0.50020949  0.50537132  1
  V  V32  1  0.86902188  0.00495897  0.37365852  1
  V  V33  1  0.62348655  0.87826483  0.24889183  1
  V  V34  1  0.74573541  0.25571228  -0.00805029  1
  V  V35  1  0.62774531  0.73792672  0.38029040  1
  V  V36  1  0.24586755  0.38142466  0.62449156  1
  V  V37  1  0.12857638  0.49216324  0.11777307  1
  V  V38  1  0.37457102  0.49476607  0.38192746  1
  V  V39  1  0.24969482  0.25925847  0.00328929  1
  V  V40  1  0.87283479  -0.00042462  0.86969337  1
  V  V41  1  0.74280522  0.37314434  0.12884608  1
  V  V42  1  0.12490764  0.87123773  0.24460473  1
  V  V43  1  0.87200840  0.12244710  0.74869865  1
  V  V44  1  0.50083163  0.00151943  0.50215053  1
  V  V45  1  0.37207510  0.25891654  0.12647572  1
  V  V46  1  0.49571765  0.75430946  0.75038484  1
  V  V47  1  0.49790834  0.13013584  0.62459660  1
  V  V48  1  0.63083371  0.87786564  0.75291759  1
  V  V49  1  0.87426144  0.62736036  0.25421882  1
  V  V50  1  0.25004296  0.62551295  0.37580330  1
  V  V51  1  0.87139195  0.50146931  0.37568027  1
  V  V52  1  0.24423233  0.75561012  0.01331157  1
  V  V53  1  0.74996549  0.74998011  0.00197115  1
  V  V54  1  0.74467232  0.49793119  0.25271783  1
  V  V55  1  0.50046501  0.74982455  0.25311458  1
  V  V56  1  -0.00315218  0.61422085  0.12214803  1
  V  V57  1  0.87332672  0.12584325  0.24919643  1
  V  V58  1  0.00330250  0.00109554  -0.00250442  1
  V  V59  1  0.74878379  0.25792559  0.50246184  1
  V  V60  1  0.25108292  0.62399579  0.87853978  1
  V  V61  1  0.12662269  0.87412568  0.73791176  1
  V  V62  1  -0.00057499  0.74953007  0.74992158  1
  V  V63  1  0.87639800  0.25720732  0.11744529  1
  V  V64  1  0.87195808  0.87429806  0.49910022  1
  V  V65  1  0.63309147  0.25127815  0.37085141  1
  V  V66  1  0.49751441  0.87572210  0.37779434  1
  V  V67  1  0.00478835  0.24837642  0.25320334  1
  V  V68  1  0.13127634  0.37285138  0.25054286  1
  V  V69  1  0.23508755  0.49908746  0.74491422  1
  V  V70  1  0.37483605  0.62509488  0.74493440  1
  V  V71  1  0.23972372  0.12745708  0.37482761  1
  V  V72  1  0.12329033  0.74808018  0.37252923  1
  V  V73  1  0.63112147  0.12616469  0.49530829  1
  V  V74  1  0.50394469  0.25616124  0.24908292  1
  V  V75  1  0.87386962  0.74818983  0.62517430  1
  V  V76  1  0.37550119  0.62393266  0.24965187  1
  V  V77  1  0.25171801  -0.00521649  0.74596013  1
  V  V78  1  0.75315211  0.49202825  0.74821462  1
  V  V79  1  0.75075475  0.62415486  0.87680346  1
  V  V80  1  0.00057550  0.12471761  0.12182572  1
  V  V81  1  0.50147040  0.62510723  0.12172683  1
  V  V82  1  0.36618235  0.13266347  0.75553756  1
  V  V83  1  0.87484273  0.62267045  0.75211214  1
  V  V84  1  0.13260463  -0.00297482  0.11925814  1
  Zn  Zn85  1  0.37334178  0.00214866  0.87914233  1
  Zn  Zn86  1  0.50045731  0.37752012  0.87893780  1
  Zn  Zn87  1  0.36879998  0.75729444  0.12990454  1
  Zn  Zn88  1  0.37760402  0.49779524  0.87786647  1
  Zn  Zn89  1  0.12966947  0.62096665  0.50472891  1
  Zn  Zn90  1  0.00438345  0.87800672  0.87405526  1
  Zn  Zn91  1  0.25107452  0.49365256  0.24910129  1
  Zn  Zn92  1  0.62280226  0.49632073  0.12702251  1
  Zn  Zn93  1  0.37616319  0.88223704  0.00752398  1
  Zn  Zn94  1  0.50054737  0.49518698  -0.00002447  1
  Zn  Zn95  1  0.87185580  0.37757274  0.50281395  1
  Zn  Zn96  1  0.12351482  0.13041771  0.49533303  1
  Zn  Zn97  1  0.62506250  0.11842819  0.00067901  1
  Zn  Zn98  1  0.38010414  0.26447351  0.61789304  1
  Zn  Zn99  1  0.37610506  0.37920101  -0.00032898  1
  Zn  Zn100  1  0.12980306  -0.00275055  0.61805949  1
  Zn  Zn101  1  0.11787665  0.61832208  -0.00184638  1
  Zn  Zn102  1  0.75178190  0.87841299  0.62541392  1
  Zn  Zn103  1  0.62478631  0.62290121  0.00278780  1
  Zn  Zn104  1  0.00607158  0.61724890  0.62955003  1
  Zn  Zn105  1  0.51096288  -0.02844188  -0.03091400  1
  Zn  Zn106  1  0.37286950  -0.00014000  0.37876342  1
  Zn  Zn107  1  0.18811666  0.18468050  0.18479774  1
  Zn  Zn108  1  0.18697577  0.19405643  0.67872233  1
  Zn  Zn109  1  0.18013128  0.67811917  0.19214904  1
  Zn  Zn110  1  0.18624425  0.68364749  0.68582467  1
  Zn  Zn111  1  0.68683455  0.19004750  0.18578494  1
  Zn  Zn112  1  0.68779183  0.18862374  0.68728679  1
  Zn  Zn113  1  0.68965670  0.68810657  0.19094725  1
  Zn  Zn114  1  0.68644763  0.68483632  0.68817408  1
  Zn  Zn115  1  0.31601356  0.31128143  0.31700182  1
  Zn  Zn116  1  0.31351507  0.31740621  0.81018210  1
  Zn  Zn117  1  0.31270966  0.81257869  0.31507753  1
  Zn  Zn118  1  0.31486608  0.81361472  0.81508255  1
  Zn  Zn119  1  0.81567368  0.31367795  0.31156728  1
  Zn  Zn120  1  0.81675475  0.31348638  0.81305700  1
  Zn  Zn121  1  0.80945018  0.81197952  0.31322024  1
  Zn  Zn122  1  0.80956697  0.81412684  0.81286077  1
  Zn  Zn123  1  0.18575118  0.43353889  0.43460192  1
  Zn  Zn124  1  0.18722753  0.43583925  0.93199455  1
  Zn  Zn125  1  0.18861099  0.93576717  0.43557873  1
  Zn  Zn126  1  0.21464527  0.92537843  0.91780677  1
  Zn  Zn127  1  0.68528894  0.43850564  0.43707182  1
  Zn  Zn128  1  0.68425372  0.43913401  0.93987881  1
  Zn  Zn129  1  0.68689955  0.93320973  0.43755683  1
  Zn  Zn130  1  0.68736710  0.94029409  0.93769270  1
  Zn  Zn131  1  0.31973823  0.06251052  0.06213805  1
  Zn  Zn132  1  0.31297153  0.06558840  0.56340607  1
  Zn  Zn133  1  0.31013017  0.56229912  0.06235292  1
  Zn  Zn134  1  0.31512942  0.56416260  0.56393530  1
  Zn  Zn135  1  0.81136221  0.06440030  0.06036567  1
  Zn  Zn136  1  0.81324959  0.06909265  0.55900280  1
  Zn  Zn137  1  0.80958443  0.56204859  0.06635324  1
  Zn  Zn138  1  0.81626848  0.56116504  0.56376518  1
  Zn  Zn139  1  0.43890038  0.43849305  0.19023623  1
  Zn  Zn140  1  0.43402846  0.43930195  0.68919940  1
  Zn  Zn141  1  0.43377386  0.93445468  0.18187074  1
  Zn  Zn142  1  0.44775595  0.94652472  0.70255834  1
  Zn  Zn143  1  0.93706489  0.43594123  0.18764083  1
  Zn  Zn144  1  0.93838809  0.43653645  0.69028446  1
  Zn  Zn145  1  0.93927365  0.93872763  0.18670359  1
  Zn  Zn146  1  0.93930400  0.93615050  0.68654818  1
  Zn  Zn147  1  0.06162570  0.05877812  0.30975814  1
  Zn  Zn148  1  0.06465198  0.06296881  0.80960053  1
  Zn  Zn149  1  0.05857934  0.55984544  0.30994446  1
  Zn  Zn150  1  0.06001523  0.56126093  0.81618441  1
  Zn  Zn151  1  0.56137445  0.06491270  0.31316942  1
  Zn  Zn152  1  0.55936380  0.06177107  0.81159648  1
  Zn  Zn153  1  0.56157711  0.56082470  0.31234169  1
  Zn  Zn154  1  0.56266142  0.56391323  0.81336257  1
  Zn  Zn155  1  0.43531904  0.18820764  0.43684343  1
  Zn  Zn156  1  0.43585063  0.18840720  0.93874019  1
  Zn  Zn157  1  0.43635969  0.68701314  0.44084756  1
  Zn  Zn158  1  0.43255420  0.69539572  0.93892556  1
  Zn  Zn159  1  0.93529985  0.18719436  0.43673272  1
  Zn  Zn160  1  0.93854575  0.18820152  0.93619097  1
  Zn  Zn161  1  0.93658523  0.68478359  0.43735209  1
  Zn  Zn162  1  0.93749355  0.68684919  0.93990692  1
  Zn  Zn163  1  0.06644373  0.30993785  0.06362613  1
  Zn  Zn164  1  0.06818221  0.31388355  0.56068943  1
  Zn  Zn165  1  0.06282216  0.81077054  0.06095791  1
  Zn  Zn166  1  0.06116260  0.80576274  0.55870574  1
  Zn  Zn167  1  0.56356228  0.30889906  0.06061376  1
  Zn  Zn168  1  0.56538865  0.31771233  0.56648429  1
  Zn  Zn169  1  0.55923889  0.81261939  0.06555753  1
  Zn  Zn170  1  0.56517869  0.81332808  0.56450854  1
  O  O171  1  0.11979593  0.11565947  0.11599326  1
  O  O172  1  0.11080339  0.12420885  0.62215596  1
  O  O173  1  0.11309661  0.61018353  0.12800967  1
  O  O174  1  0.11637596  0.63470942  0.61592740  1
  O  O175  1  0.60987383  0.12764456  0.12814865  1
  O  O176  1  0.61733343  0.12118596  0.61896795  1
  O  O177  1  0.61488447  0.62634068  0.12788611  1
  O  O178  1  0.61502210  0.61143183  0.63309924  1
  O  O179  1  0.38838336  0.38260351  0.37257740  1
  O  O180  1  0.37882981  0.37754916  0.87801622  1
  O  O181  1  0.38846355  0.87629730  0.37869594  1
  O  O182  1  0.33021774  0.89102874  0.89437066  1
  O  O183  1  0.88628850  0.38135510  0.37620865  1
  O  O184  1  0.89004007  0.38137686  0.87112056  1
  O  O185  1  0.88191262  0.88203958  0.37703267  1
  O  O186  1  0.87628870  0.88323025  0.87911448  1
  O  O187  1  0.25123522  0.00776290  0.36634304  1
  O  O188  1  0.24051569  0.01626278  0.84788519  1
  O  O189  1  0.25750411  0.50660821  0.37621261  1
  O  O190  1  0.24802818  0.50755195  0.86314983  1
  O  O191  1  0.75937642  -0.00675815  0.36572329  1
  O  O192  1  0.76534217  0.00894203  0.87843559  1
  O  O193  1  0.76252321  0.49192800  0.36946631  1
  O  O194  1  0.75793019  0.50427303  0.86900879  1
  O  O195  1  0.23259370  0.50572365  0.13162582  1
  O  O196  1  0.25195850  0.49918198  0.63598252  1
  O  O197  1  0.23896430  1.00694899  0.13252531  1
  O  O198  1  0.24425825  1.01074364  0.63852172  1
  O  O199  1  0.75121185  0.48914189  0.13361956  1
  O  O200  1  0.74435097  0.50604260  0.63536547  1
  O  O201  1  0.75663681  0.98714875  0.13280327  1
  O  O202  1  0.73863939  1.00395029  0.61851518  1
  O  O203  1  0.00549345  0.36608903  0.25607549  1
  O  O204  1  0.00018511  0.36319665  0.75414518  1
  O  O205  1  0.00745285  0.87998150  0.26130177  1
  O  O206  1  0.00753964  0.86732629  0.75249183  1
  O  O207  1  0.49843409  0.36261203  0.25829613  1
  O  O208  1  0.50772446  0.36769777  0.74924557  1
  O  O209  1  0.50672225  0.87243614  0.25718648  1
  O  O210  1  0.51249421  0.86022043  0.74311632  1
  O  O211  1  0.49278246  0.13501003  0.24755770  1
  O  O212  1  0.49387929  0.13441548  0.74141540  1
  O  O213  1  0.49193789  0.62880939  0.24658296  1
  O  O214  1  0.49329411  0.63347247  0.74272060  1
  O  O215  1  0.99661573  0.13039046  0.24337125  1
  O  O216  1  0.99133389  0.13217967  0.74215786  1
  O  O217  1  0.98549725  0.62009075  0.23882751  1
  O  O218  1  0.99108278  0.63051601  0.75169359  1
  O  O219  1  0.36546165  0.24827045  0.00934513  1
  O  O220  1  0.35819926  0.24242052  0.50185543  1
  O  O221  1  0.35184681  0.74885235  0.00285482  1
  O  O222  1  0.36351237  0.75986114  0.49627786  1
  O  O223  1  0.86399874  0.24186014  0.00909521  1
  O  O224  1  0.86669657  0.24945058  0.50672040  1
  O  O225  1  0.86942631  0.75759085  0.00750739  1
  O  O226  1  0.87039643  0.75386600  0.50643411  1
  O  O227  1  0.14306387  0.24679509  0.50143851  1
  O  O228  1  0.13198664  0.24127334  0.99482511  1
  O  O229  1  0.13781692  0.75446380  0.48707955  1
  O  O230  1  0.12718330  0.74244024  0.99204301  1
  O  O231  1  0.63076518  0.24581792  0.49619578  1
  O  O232  1  0.64309517  0.24127127  1.00356860  1
  O  O233  1  0.63532588  0.75494007  0.49294911  1
  O  O234  1  0.63356368  0.74795859  0.99383422  1
  O  O235  1  0.49383451  0.24388968  0.13480820  1
  O  O236  1  0.49897445  0.24484536  0.62924895  1
  O  O237  1  0.49754854  0.74148674  0.13902088  1
  O  O238  1  0.50889162  0.73807455  0.63253804  1
  O  O239  1  0.99309319  0.24508156  0.12930141  1
  O  O240  1  0.99604815  0.24485772  0.62924411  1
  O  O241  1  0.98794006  0.74444042  0.12408602  1
  O  O242  1  0.98593881  0.75082633  0.62934227  1
  O  O243  1  -0.00560007  0.25635411  0.36484842  1
  O  O244  1  0.00470271  0.25854778  0.86801290  1
  O  O245  1  0.00885491  0.75915851  0.38238152  1
  O  O246  1  0.01020523  0.74976550  0.87035027  1
  O  O247  1  0.50589993  0.25634443  0.37139665  1
  O  O248  1  0.50126895  0.24829938  0.86208653  1
  O  O249  1  0.50581181  0.75651529  0.37342926  1
  O  O250  1  0.50981006  0.74174389  0.86507548  1
  O  O251  1  0.24716900  0.12909495  0.48986581  1
  O  O252  1  0.24097037  0.13155493  1.00236724  1
  O  O253  1  0.25306728  0.63563006  0.49026805  1
  O  O254  1  0.24199677  0.63035256  0.99184973  1
  O  O255  1  0.73764738  0.13551530  0.50012869  1
  O  O256  1  0.74952456  0.13275785  0.99021185  1
  O  O257  1  0.75602343  0.63689734  0.50093932  1
  O  O258  1  0.75091806  0.63359250  0.99573212  1
  O  O259  1  0.24835526  0.36236495  -0.00071932  1
  O  O260  1  0.25132186  0.36653925  0.50126342  1
  O  O261  1  0.22819273  0.85547908  0.01107147  1
  O  O262  1  0.26020255  0.86584179  0.49577109  1
  O  O263  1  0.74882150  0.36119907  0.00495172  1
  O  O264  1  0.75057187  0.36257748  0.49828213  1
  O  O265  1  0.75581139  0.87142134  0.00886409  1
  O  O266  1  0.75836511  0.86798862  0.50248586  1
  O  O267  1  0.12505533  0.48891830  0.24370627  1
  O  O268  1  0.13644855  0.50731184  0.74785956  1
  O  O269  1  0.13131291  0.99256480  0.24147962  1
  O  O270  1  0.12931762  0.99146742  0.74322039  1
  O  O271  1  0.64073754  0.50335494  0.25177761  1
  O  O272  1  0.63551488  0.49598907  0.74520667  1
  O  O273  1  0.63339713  0.99167926  0.25795660  1
  O  O274  1  0.62320502  0.99099129  0.74072631  1
  O  O275  1  0.36651057  0.00690107  0.25162004  1
  O  O276  1  0.36354266  0.01319295  0.74647670  1
  O  O277  1  0.37298770  0.50621870  0.26190156  1
  O  O278  1  0.36907442  0.51572455  0.75345462  1
  O  O279  1  0.86843012  0.00416525  0.25569796  1
  O  O280  1  0.88128801  0.00887755  0.75691556  1
  O  O281  1  0.86917481  0.50500054  0.25746506  1
  O  O282  1  0.86990584  0.50421026  0.75629155  1
  O  O283  1  0.11049130  0.37763423  0.36598276  1
  O  O284  1  0.11140734  0.36522518  0.87755246  1
  O  O285  1  0.11794297  0.86985935  0.36562783  1
  O  O286  1  0.12673798  0.86615592  0.86177780  1
  O  O287  1  0.61230914  0.36617760  0.37934342  1
  O  O288  1  0.62573428  0.37888993  0.85953339  1
  O  O289  1  0.61380915  0.86922058  0.36911411  1
  O  O290  1  0.63469882  0.86133338  0.86739013  1
  O  O291  1  0.38254341  0.13361727  0.13699895  1
  O  O292  1  0.38898467  0.12602067  0.63108549  1
  O  O293  1  0.37823473  0.62700840  0.13913742  1
  O  O294  1  0.38633775  0.62460361  0.63333373  1
  O  O295  1  0.88086331  0.13146770  0.13014288  1
  O  O296  1  0.88413642  0.13229435  0.62937660  1
  O  O297  1  0.87897829  0.63180013  0.13078960  1
  O  O298  1  0.87992780  0.63147035  0.63401659  1
  O  O299  1  0.25894802  0.24427910  0.11639238  1
  O  O300  1  0.25527721  0.25975660  0.61386404  1
  O  O301  1  0.24232732  0.73750958  0.11500225  1
  O  O302  1  0.24887943  0.74872976  0.60829014  1
  O  O303  1  0.75783010  0.25412719  0.11776097  1
  O  O304  1  0.76015271  0.24372744  0.61553831  1
  O  O305  1  0.75834239  0.76074070  0.12212062  1
  O  O306  1  0.76011059  0.74849790  0.61970448  1
  O  O307  1  0.25308402  0.24268817  0.38474334  1
  O  O308  1  0.23784977  0.25448816  0.87910587  1
  O  O309  1  0.24407596  0.74280195  0.38050121  1
  O  O310  1  0.23760368  0.74270351  0.88113895  1
  O  O311  1  0.73946113  0.25489959  0.37960355  1
  O  O312  1  0.75966999  0.24342661  0.88648807  1
  O  O313  1  0.74005626  0.75496542  0.38465030  1
  O  O314  1  0.74690286  0.74377981  0.88304674  1
  O  O315  1  0.00817823  0.11987432  0.00457302  1
  O  O316  1  0.00056056  0.11790165  0.50493587  1
  O  O317  1  -0.00137072  0.62627833  0.01589746  1
  O  O318  1  -0.00077145  0.60848478  0.49840965  1
  O  O319  1  0.50190688  0.13276482  0.01579187  1
  O  O320  1  0.50837384  0.12336128  0.50625784  1
  O  O321  1  0.49674745  0.63261215  0.01540504  1
  O  O322  1  0.49629586  0.61529029  0.50955913  1
  O  O323  1  0.50168427  0.38794304  0.49552289  1
  O  O324  1  0.49748390  0.37324110  0.99841230  1
  O  O325  1  0.49474670  0.87906107  0.49525384  1
  O  O326  1  0.49094312  0.86181000  0.99549643  1
  O  O327  1  0.99870203  0.38175935  0.49313910  1
  O  O328  1  0.99775678  0.36646523  0.98911874  1
  O  O329  1  0.99374800  0.88176158  0.49076488  1
  O  O330  1  0.99524513  0.88202080  0.99690060  1
  O  O331  1  0.49674549  0.49319744  0.38164405  1
  O  O332  1  0.49772299  0.50060580  0.87844489  1
  O  O333  1  0.49940002  0.99291807  0.38339005  1
  O  O334  1  0.48737960  0.99159616  0.85641010  1
  O  O335  1  0.99045742  0.49242971  0.38148304  1
  O  O336  1  0.99550078  0.48490651  0.87409345  1
  O  O337  1  0.99275128  0.99302353  0.38040371  1
  O  O338  1  0.99098836  1.00103260  0.87967819  1
  O  O339  1  0.01114401  0.00393790  0.11901106  1
  O  O340  1  -0.00137384  0.00729852  0.61362084  1
  O  O341  1  0.00936778  0.50337797  0.12798393  1
  O  O342  1  -0.00645283  0.49667072  0.60908001  1
  O  O343  1  0.49825388  0.01796220  0.13516862  1
  O  O344  1  0.51179657  0.01024896  0.62150042  1
  O  O345  1  0.50294896  0.51095113  0.12952386  1
  O  O346  1  0.50538617  0.50653998  0.61877770  1
  O  O347  1  0.23522842  0.37122168  0.25879619  1
  O  O348  1  0.25024162  0.39244561  0.74415667  1
  O  O349  1  0.24118753  0.88641766  0.25744690  1
  O  O350  1  0.24468795  0.88731109  0.74569896  1
  O  O351  1  0.75733437  0.38378750  0.24092864  1
  O  O352  1  0.74706739  0.38500814  0.75257744  1
  O  O353  1  0.74336233  0.88346489  0.24517674  1
  O  O354  1  0.73636610  0.87000905  0.74397791  1
  O  O355  1  0.25553554  0.11754138  0.25490474  1
  O  O356  1  0.26468112  0.12875784  0.73947079  1
  O  O357  1  0.25632977  0.62286597  0.26259149  1
  O  O358  1  0.25607376  0.61937997  0.75416898  1
  O  O359  1  0.75351702  0.11272522  0.24303550  1
  O  O360  1  0.76451077  0.13241385  0.75562213  1
  O  O361  1  0.76433709  0.61419959  0.24318941  1
  O  O362  1  0.75760518  0.61704639  0.75708134  1
  O  O363  1  0.36850133  0.12375179  0.36280574  1
  O  O364  1  0.37607486  0.12787315  0.85789805  1
  O  O365  1  0.37000972  0.61920350  0.36777655  1
  O  O366  1  0.36096489  0.62816614  0.86935120  1
  O  O367  1  0.87874872  0.11245451  0.36723596  1
  O  O368  1  0.87140599  0.11942386  0.86603355  1
  O  O369  1  0.87935818  0.61565021  0.36585819  1
  O  O370  1  0.87143153  0.61758569  0.87073597  1
  O  O371  1  0.11951695  0.38505969  0.13311170  1
  O  O372  1  0.14360536  0.37335812  0.62210058  1
  O  O373  1  0.11712275  0.88066822  0.13776731  1
  O  O374  1  0.11901709  0.87303238  0.63401763  1
  O  O375  1  0.63907537  0.37066329  0.12702046  1
  O  O376  1  0.62261736  0.39155991  0.63637892  1
  O  O377  1  0.63334311  0.86806305  0.13984735  1
  O  O378  1  0.62782323  0.88560762  0.63101955  1
  O  O379  1  0.11211238  0.25490934  0.23997865  1
  O  O380  1  0.11660362  0.24111791  0.75788502  1
  O  O381  1  0.12986586  0.75736611  0.26178374  1
  O  O382  1  0.12192335  0.75558370  0.75567237  1
  O  O383  1  0.61761828  0.24498915  0.26040855  1
  O  O384  1  0.61705475  0.26083238  0.74100360  1
  O  O385  1  0.62239147  0.75861647  0.26020700  1
  O  O386  1  0.61968734  0.75471148  0.75739591  1
  O  O387  1  0.38087176  0.24352919  0.24597038  1
  O  O388  1  0.38172839  0.24319217  0.74442182  1
  O  O389  1  0.38067099  0.74070538  0.25399682  1
  O  O390  1  0.38347983  0.74235231  0.75674058  1
  O  O391  1  0.88377506  0.24368585  0.24268591  1
  O  O392  1  0.88320670  0.24377112  0.74284669  1
  O  O393  1  0.86852652  0.74217595  0.24253070  1
  O  O394  1  0.87749532  0.74470742  0.74442552  1
  O  O395  1  0.38314157  0.50600056  0.48772899  1
  O  O396  1  0.37742248  0.49864434  0.99944564  1
  O  O397  1  0.38151751  0.99339665  0.49971790  1
  O  O398  1  0.38645764  1.00304783  0.99683801  1
  O  O399  1  0.88184952  0.49685699  0.49224882  1
  O  O400  1  0.87025623  0.50120151  0.98874209  1
  O  O401  1  0.88080617  0.99742258  0.49182718  1
  O  O402  1  0.88171448  0.99563739  0.99373782  1
  O  O403  1  0.12556356  0.00453010  0.00367320  1
  O  O404  1  0.11318102  0.00021887  0.49812609  1
  O  O405  1  0.12740690  0.49706036  0.01356632  1
  O  O406  1  0.10956868  0.50032434  0.49157154  1
  O  O407  1  0.61730695  0.00516028  -0.00660384  1
  O  O408  1  0.62126540  0.00837172  0.50355902  1
  O  O409  1  0.62229932  0.50569270  0.00770805  1
  O  O410  1  0.61822226  0.49891067  0.50908901  1
  O  O411  1  0.37623180  0.36207464  0.12901006  1
  O  O412  1  0.35929363  0.37836881  0.62820547  1
  O  O413  1  0.36639384  0.87049655  0.12385172  1
  O  O414  1  0.38691925  0.88240799  0.61899392  1
  O  O415  1  0.86858501  0.36175003  0.12827792  1
  O  O416  1  0.87807756  0.36150921  0.62439092  1
  O  O417  1  0.87037493  0.86861935  0.12294925  1
  O  O418  1  0.87316608  0.86767387  0.61882887  1
  O  O419  1  0.13593135  0.12267094  0.37094878  1
  O  O420  1  0.11590323  0.13599316  0.88413891  1
  O  O421  1  0.13130847  0.63133526  0.37550250  1
  O  O422  1  0.13253761  0.63107815  0.87463434  1
  O  O423  1  0.61810709  0.13707939  0.38539000  1
  O  O424  1  0.64133509  0.12319229  0.86627562  1
  O  O425  1  0.62032061  0.63868839  0.37246760  1
  O  O426  1  0.63485519  0.63633004  0.87488852  1
