# generated using pymatgen
data_V85Zn86O256
_symmetry_space_group_name_H-M   'P 1'
_cell_length_a   16.94407603
_cell_length_b   16.94269063
_cell_length_c   16.93059885
_cell_angle_alpha   90.04395913
_cell_angle_beta   90.09877788
_cell_angle_gamma   90.03471504
_symmetry_Int_Tables_number   1
_chemical_formula_structural   V85Zn86O256
_chemical_formula_sum   'V85 Zn86 O256'
_cell_volume   4860.39694090
_cell_formula_units_Z   1
loop_
 _symmetry_equiv_pos_site_id
 _symmetry_equiv_pos_as_xyz
  1  'x, y, z'
loop_
 _atom_site_type_symbol
 _atom_site_label
 _atom_site_symmetry_multiplicity
 _atom_site_fract_x
 _atom_site_fract_y
 _atom_site_fract_z
 _atom_site_occupancy
  V  V0  1  0.00104050  0.74900380  0.25868148  1
  V  V1  1  0.87628908  0.24917480  0.62663948  1
  V  V2  1  0.87331953  0.74902562  0.62604371  1
  V  V3  1  0.12402362  0.87396515  0.25606277  1
  V  V4  1  0.49827620  -0.00146535  0.50293319  1
  V  V5  1  0.75335247  0.24536621  0.50184192  1
  V  V6  1  0.48882232  0.13473595  0.11948703  1
  V  V7  1  0.37375138  0.37978103  -0.00816347  1
  V  V8  1  0.13237117  0.63585224  0.49404505  1
  V  V9  1  -0.00013020  0.74956619  0.75220827  1
  V  V10  1  0.73447061  0.24863363  -0.00657081  1
  V  V11  1  0.74544944  0.61825677  0.37441604  1
  V  V12  1  0.12629862  0.62550890  0.00274383  1
  V  V13  1  0.50921149  0.63074834  0.62193071  1
  V  V14  1  0.62100835  0.76264477  0.86337115  1
  V  V15  1  0.87393963  0.62196043  0.75107304  1
  V  V16  1  0.87351810  0.87699811  0.00248961  1
  V  V17  1  0.50245421  0.87757542  0.37291229  1
  V  V18  1  0.25335115  0.75191802  0.00398430  1
  V  V19  1  0.00131544  0.24971685  0.75142869  1
  V  V20  1  0.49011583  0.36696328  0.86064678  1
  V  V21  1  0.74637568  0.74313402  0.49995701  1
  V  V22  1  0.36903636  0.74641982  0.61998289  1
  V  V23  1  0.12636820  0.37753990  0.74985276  1
  V  V24  1  0.37960245  0.62688683  0.24912297  1
  V  V25  1  0.74561015  0.62086876  0.86954463  1
  V  V26  1  0.13209475  0.49899943  0.62354252  1
  V  V27  1  0.12856936  0.37492998  0.25424939  1
  V  V28  1  -0.00016456  0.00046479  -0.00024245  1
  V  V29  1  0.12697334  0.25116739  0.87595720  1
  V  V30  1  0.25691982  0.50256250  0.75191329  1
  V  V31  1  0.87105121  0.25313805  0.12180201  1
  V  V32  1  0.86668700  0.37423317  0.00150990  1
  V  V33  1  0.63212476  0.02454137  0.12637603  1
  V  V34  1  -0.00030179  0.49853996  0.00068088  1
  V  V35  1  0.00299149  0.62787018  0.12579950  1
  V  V36  1  0.62359899  0.62348931  -0.00425510  1
  V  V37  1  0.48482518  0.14005405  0.63444659  1
  V  V38  1  0.62490108  0.74773639  0.37607882  1
  V  V39  1  0.49324350  0.25591858  0.25811999  1
  V  V40  1  0.25480669  0.49943963  0.25075561  1
  V  V41  1  0.00196240  0.25497825  0.25078689  1
  V  V42  1  0.25800473  0.88043526  0.12050325  1
  V  V43  1  0.74293746  0.87275531  0.62553136  1
  V  V44  1  0.12653396  0.74916484  0.87704420  1
  V  V45  1  0.12615971  0.00139764  0.12571442  1
  V  V46  1  0.74485084  -0.00848622  0.75354046  1
  V  V47  1  0.26200799  -0.00099173  0.74947220  1
  V  V48  1  0.25914244  0.12634970  0.86878992  1
  V  V49  1  0.25855444  0.62233293  0.87840396  1
  V  V50  1  0.75082813  0.38447400  0.62873701  1
  V  V51  1  0.87139820  0.12417810  0.75536941  1
  V  V52  1  0.25986300  0.37064602  0.12752729  1
  V  V53  1  0.63138854  0.36985595  0.75765373  1
  V  V54  1  0.51231017  0.50030028  0.49800216  1
  V  V55  1  0.50234313  0.62058999  0.12173715  1
  V  V56  1  0.12747733  0.87691645  0.74891426  1
  V  V57  1  0.00212805  0.62476390  0.62561454  1
  V  V58  1  0.17649992  0.19171069  0.45948296  1
  V  V59  1  0.72876928  0.12750752  0.87550972  1
  V  V60  1  0.61917068  -0.00312127  0.63004017  1
  V  V61  1  0.62022342  0.26007003  0.37896607  1
  V  V62  1  0.87051771  0.49798219  0.87000987  1
  V  V63  1  0.00376723  0.49890255  0.49945605  1
  V  V64  1  0.63921747  0.49373497  0.12677648  1
  V  V65  1  -0.00038888  0.87574643  0.87711874  1
  V  V66  1  0.38440782  0.62828597  0.75187148  1
  V  V67  1  0.25032043  0.00739877  0.25327175  1
  V  V68  1  0.48713872  0.87583304  0.87127389  1
  V  V69  1  0.87137775  0.12254215  0.25779180  1
  V  V70  1  0.00507836  0.11610973  0.62711476  1
  V  V71  1  0.86879678  0.62211718  0.24804299  1
  V  V72  1  0.74789074  0.75207958  0.00210204  1
  V  V73  1  0.38155748  0.75704655  0.11990849  1
  V  V74  1  0.37762427  0.37381944  0.50506494  1
  V  V75  1  0.62375480  0.12429637  0.50354964  1
  V  V76  1  0.36517927  0.86843536  0.49579159  1
  V  V77  1  0.87586570  0.49542297  0.36924287  1
  V  V78  1  0.37289747  0.01005226  0.37566762  1
  V  V79  1  0.25421016  0.24916975  0.01002243  1
  V  V80  1  0.00295112  0.12649957  0.12675258  1
  V  V81  1  0.12521125  0.12637210  -0.00115446  1
  V  V82  1  0.87941757  0.37333124  0.50007931  1
  V  V83  1  0.38307064  0.49805778  0.37521635  1
  V  V84  1  0.63502866  0.88448703  0.24782033  1
  Zn  Zn85  1  0.63045048  0.50338514  0.62937073  1
  Zn  Zn86  1  0.49568841  0.49797240  -0.00838664  1
  Zn  Zn87  1  0.63383165  0.38052379  0.25115277  1
  Zn  Zn88  1  0.50552689  0.75386314  0.24582898  1
  Zn  Zn89  1  0.26936597  0.32378544  0.60931170  1
  Zn  Zn90  1  0.49821866  -0.00530597  0.00506434  1
  Zn  Zn91  1  0.87165040  0.75198471  0.12653850  1
  Zn  Zn92  1  0.87415842  0.87353844  0.49624665  1
  Zn  Zn93  1  -0.00079102  0.87428504  0.37893845  1
  Zn  Zn94  1  0.25874299  0.64064680  0.38709766  1
  Zn  Zn95  1  0.87019526  0.00209504  0.87855948  1
  Zn  Zn96  1  0.12905560  0.50097898  0.12560062  1
  Zn  Zn97  1  0.01385624  0.37237723  0.38226783  1
  Zn  Zn98  1  0.37500515  0.00075453  0.88418834  1
  Zn  Zn99  1  0.74887259  0.88765583  0.12644565  1
  Zn  Zn100  1  0.74145286  0.11845918  0.36869354  1
  Zn  Zn101  1  0.87076376  -0.00646728  0.37836343  1
  Zn  Zn102  1  0.37084693  0.13377824  0.25142530  1
  Zn  Zn103  1  -0.00029400  0.37452575  0.87878385  1
  Zn  Zn104  1  0.00089554  -0.00668196  0.49619990  1
  Zn  Zn105  1  0.13380727  0.00539593  0.62107132  1
  Zn  Zn106  1  0.24899790  0.87155898  0.62071328  1
  Zn  Zn107  1  0.18586272  0.18938749  0.29289881  1
  Zn  Zn108  1  0.19797961  0.19203625  0.67820255  1
  Zn  Zn109  1  0.20723841  0.70668344  0.22218452  1
  Zn  Zn110  1  0.18897923  0.68657730  0.68743942  1
  Zn  Zn111  1  0.69836497  0.22218327  0.19723574  1
  Zn  Zn112  1  0.68288678  0.18776311  0.68699611  1
  Zn  Zn113  1  0.68600665  0.68854560  0.18845556  1
  Zn  Zn114  1  0.68743550  0.68531364  0.69008860  1
  Zn  Zn115  1  0.31180762  0.31247908  0.33094628  1
  Zn  Zn116  1  0.30969972  0.30624521  0.80042175  1
  Zn  Zn117  1  0.31584016  0.81744910  0.30900097  1
  Zn  Zn118  1  0.31417278  0.80631857  0.80820262  1
  Zn  Zn119  1  0.80966196  0.31024069  0.31353107  1
  Zn  Zn120  1  0.80908807  0.31140742  0.81408633  1
  Zn  Zn121  1  0.81283034  0.81027392  0.31233799  1
  Zn  Zn122  1  0.80965922  0.81141557  0.81596747  1
  Zn  Zn123  1  0.19663900  0.44260473  0.43685887  1
  Zn  Zn124  1  0.18901301  0.43856755  0.93727366  1
  Zn  Zn125  1  0.18334142  0.94690570  0.43791945  1
  Zn  Zn126  1  0.19060657  0.93874632  0.93727096  1
  Zn  Zn127  1  0.69249938  0.43639036  0.44157378  1
  Zn  Zn128  1  0.68333916  0.43627678  0.93557096  1
  Zn  Zn129  1  0.69284214  0.93917325  0.43805607  1
  Zn  Zn130  1  0.68042314  0.94358238  0.94613526  1
  Zn  Zn131  1  0.31725914  0.06446913  0.05988547  1
  Zn  Zn132  1  0.31020184  0.06058738  0.56041077  1
  Zn  Zn133  1  0.31538595  0.56071971  0.06476000  1
  Zn  Zn134  1  0.31630912  0.55887235  0.56338474  1
  Zn  Zn135  1  0.81127879  0.06990401  0.06210743  1
  Zn  Zn136  1  0.81531259  0.05886630  0.56244652  1
  Zn  Zn137  1  0.81269665  0.56410426  0.05876803  1
  Zn  Zn138  1  0.81545691  0.56369508  0.55709238  1
  Zn  Zn139  1  0.44278812  0.43404871  0.18393443  1
  Zn  Zn140  1  0.44140810  0.44152468  0.68565451  1
  Zn  Zn141  1  0.44240909  0.94523332  0.18839881  1
  Zn  Zn142  1  0.44015958  0.92864544  0.69132327  1
  Zn  Zn143  1  0.93570295  0.43736999  0.18494315  1
  Zn  Zn144  1  0.94164661  0.43652247  0.68734703  1
  Zn  Zn145  1  0.93673583  0.93912447  0.18952879  1
  Zn  Zn146  1  0.93032842  0.93484512  0.68969098  1
  Zn  Zn147  1  0.06081040  0.06232767  0.32096102  1
  Zn  Zn148  1  0.06580448  0.06097509  0.81056406  1
  Zn  Zn149  1  0.06427073  0.56111109  0.31323976  1
  Zn  Zn150  1  0.06332905  0.56302893  0.81550739  1
  Zn  Zn151  1  0.56075007  0.06880438  0.30907267  1
  Zn  Zn152  1  0.55292879  0.05866567  0.80746021  1
  Zn  Zn153  1  0.56494984  0.56042019  0.30867771  1
  Zn  Zn154  1  0.56122160  0.55017987  0.80986854  1
  Zn  Zn155  1  0.44029805  0.18854705  0.44362132  1
  Zn  Zn156  1  0.43860615  0.19444176  0.93698300  1
  Zn  Zn157  1  0.44300967  0.68655570  0.43842317  1
  Zn  Zn158  1  0.44104596  0.69265004  0.93665177  1
  Zn  Zn159  1  0.96188836  0.19250425  0.44232044  1
  Zn  Zn160  1  0.93644684  0.18794546  0.93606511  1
  Zn  Zn161  1  0.93690851  0.68645246  0.43900519  1
  Zn  Zn162  1  0.93500751  0.68778853  0.93878723  1
  Zn  Zn163  1  0.06668880  0.31572470  0.06762763  1
  Zn  Zn164  1  0.07916418  0.30225937  0.56468468  1
  Zn  Zn165  1  0.06473348  0.81188895  0.06935556  1
  Zn  Zn166  1  0.06304169  0.81459150  0.56219319  1
  Zn  Zn167  1  0.55328807  0.31290867  0.06295451  1
  Zn  Zn168  1  0.56254572  0.31558457  0.56731107  1
  Zn  Zn169  1  0.56474928  0.81616360  0.05937360  1
  Zn  Zn170  1  0.56088106  0.81095899  0.55997187  1
  O  O171  1  0.11167638  0.11978748  0.11689134  1
  O  O172  1  0.10759618  0.12265884  0.64123214  1
  O  O173  1  0.11503518  0.62217485  0.11868339  1
  O  O174  1  0.12089984  0.61782830  0.61926694  1
  O  O175  1  0.62178702  0.12421411  0.13589787  1
  O  O176  1  0.61733263  0.11758664  0.61740781  1
  O  O177  1  0.62016105  0.61945529  0.11734719  1
  O  O178  1  0.61347353  0.62414099  0.62825724  1
  O  O179  1  0.37567554  0.39289120  0.38312355  1
  O  O180  1  0.38081505  0.36773271  0.87189650  1
  O  O181  1  0.38475082  0.87901042  0.37818061  1
  O  O182  1  0.38476056  0.86786601  0.87559502  1
  O  O183  1  0.87207681  0.38262838  0.38041212  1
  O  O184  1  0.87773650  0.38240056  0.88050851  1
  O  O185  1  0.87866825  0.87271337  0.37557899  1
  O  O186  1  0.87835088  0.87675623  0.88721395  1
  O  O187  1  0.26050135  -0.00930742  0.36358073  1
  O  O188  1  0.25153053  0.00936511  0.87030288  1
  O  O189  1  0.26241209  0.50918764  0.36221709  1
  O  O190  1  0.24528645  0.51623284  0.87016486  1
  O  O191  1  0.75646917  0.00838301  0.38029776  1
  O  O192  1  0.74540842  0.00953395  0.86986198  1
  O  O193  1  0.75846083  0.51048077  0.38152863  1
  O  O194  1  0.75859716  0.50897746  0.88117767  1
  O  O195  1  0.25328525  0.49018977  0.13503233  1
  O  O196  1  0.23979610  0.50747767  0.63653662  1
  O  O197  1  0.24660611  0.99639207  0.12879298  1
  O  O198  1  0.25145733  0.99243198  0.63526824  1
  O  O199  1  0.73810253  0.50362869  0.12101261  1
  O  O200  1  0.75439684  0.48799725  0.61840688  1
  O  O201  1  0.73667057  1.00731663  0.12379137  1
  O  O202  1  0.74231391  0.99075151  0.63280874  1
  O  O203  1  0.01236752  0.37221453  0.24381131  1
  O  O204  1  0.01125297  0.37114298  0.75496924  1
  O  O205  1  0.00642123  0.86549961  0.24591430  1
  O  O206  1  0.00501818  0.86959548  0.75751488  1
  O  O207  1  0.50936861  0.35936632  0.24299144  1
  O  O208  1  0.50446371  0.37410147  0.75548649  1
  O  O209  1  0.50891885  0.87694275  0.26079203  1
  O  O210  1  0.50427080  0.87475630  0.77009740  1
  O  O211  1  0.49203681  0.13719628  0.24464543  1
  O  O212  1  0.49821610  0.12361292  0.73365108  1
  O  O213  1  0.49376307  0.62580786  0.23987790  1
  O  O214  1  0.49423864  0.61648951  0.73662648  1
  O  O215  1  0.99805572  0.13595026  0.24181025  1
  O  O216  1  0.99021469  0.12975782  0.74953789  1
  O  O217  1  0.99481715  0.62872789  0.24321053  1
  O  O218  1  0.99485570  0.63028087  0.74739652  1
  O  O219  1  0.36197758  0.26339139  -0.00624635  1
  O  O220  1  0.38212670  0.27435209  0.49065690  1
  O  O221  1  0.37014587  0.74586227  0.01299088  1
  O  O222  1  0.37914426  0.75609938  0.50492815  1
  O  O223  1  0.87427837  0.25973603  0.00181396  1
  O  O224  1  0.87158493  0.25306361  0.50508936  1
  O  O225  1  0.86565766  0.75817963  0.00027112  1
  O  O226  1  0.86468249  0.74556871  0.50955959  1
  O  O227  1  0.07814281  0.23210708  0.47328910  1
  O  O228  1  0.12978926  0.24776095  0.99290774  1
  O  O229  1  0.12537304  0.73386119  0.50615000  1
  O  O230  1  0.13227040  0.74482594  0.99801164  1
  O  O231  1  0.63114797  0.24364250  0.49904989  1
  O  O232  1  0.63690554  0.25723304  1.00637750  1
  O  O233  1  0.63088029  0.75273721  0.48517906  1
  O  O234  1  0.63141892  0.73901110  0.99279633  1
  O  O235  1  0.50559316  0.24048891  0.14020003  1
  O  O236  1  0.49780878  0.23892647  0.61991510  1
  O  O237  1  0.49819393  0.74083876  0.12218520  1
  O  O238  1  0.49351135  0.73623668  0.61878842  1
  O  O239  1  0.99329443  0.24478028  0.12739701  1
  O  O240  1  0.99530561  0.24025111  0.63517540  1
  O  O241  1  0.99393913  0.73768586  0.12674844  1
  O  O242  1  0.99436110  0.74289737  0.63393639  1
  O  O243  1  -0.01364602  0.26158919  0.35295171  1
  O  O244  1  0.01180275  0.24990170  0.87035763  1
  O  O245  1  -0.00005829  0.74555503  0.36127887  1
  O  O246  1  0.00513211  0.75508691  0.87221683  1
  O  O247  1  0.50674769  0.24940167  0.36920180  1
  O  O248  1  0.50315093  0.26792086  0.87771098  1
  O  O249  1  0.50888622  0.75746993  0.37259052  1
  O  O250  1  0.51416953  0.75857241  0.87689495  1
  O  O251  1  0.23259141  0.11742638  0.49983139  1
  O  O252  1  0.24366749  0.13364219  0.99427206  1
  O  O253  1  0.23814369  0.62011122  0.50083914  1
  O  O254  1  0.24805556  0.62976716  0.99627101  1
  O  O255  1  0.74153589  0.13293347  0.50926340  1
  O  O256  1  0.75252034  0.13092725  0.98099948  1
  O  O257  1  0.75103230  0.63461037  0.49125729  1
  O  O258  1  0.74497880  0.63216888  0.98912667  1
  O  O259  1  0.25258598  0.36961359  0.00598093  1
  O  O260  1  0.27114299  0.38832610  0.50498624  1
  O  O261  1  0.24504691  0.86945558  0.01347986  1
  O  O262  1  0.26276458  0.87519957  0.49699395  1
  O  O263  1  0.76002747  0.36539118  -0.01022060  1
  O  O264  1  0.75923712  0.36632436  0.50882728  1
  O  O265  1  0.75584064  0.86943892  0.00188631  1
  O  O266  1  0.74950611  0.86066500  0.50924981  1
  O  O267  1  0.13842930  0.49792382  0.24716304  1
  O  O268  1  0.12916035  0.49789675  0.74424966  1
  O  O269  1  0.13132222  0.99611670  0.24391114  1
  O  O270  1  0.13316229  0.98828238  0.74963136  1
  O  O271  1  0.62384814  0.49774879  0.23310926  1
  O  O272  1  0.62284624  0.48028815  0.74291470  1
  O  O273  1  0.62134123  0.99624082  0.23858018  1
  O  O274  1  0.63129654  1.00403740  0.73735100  1
  O  O275  1  0.36782318  0.00132531  0.25904443  1
  O  O276  1  0.36437170  -0.00897538  0.75754499  1
  O  O277  1  0.37732306  0.50406862  0.25527107  1
  O  O278  1  0.36527294  0.51215174  0.74367036  1
  O  O279  1  0.87871262  0.02049251  0.24602934  1
  O  O280  1  0.86175536  0.00683503  0.75436585  1
  O  O281  1  0.87975828  0.50551137  0.26079433  1
  O  O282  1  0.88295577  0.50371575  0.76351225  1
  O  O283  1  0.12980911  0.38546766  0.36007663  1
  O  O284  1  0.12207452  0.36819628  0.87148219  1
  O  O285  1  0.12487345  0.87707525  0.35845787  1
  O  O286  1  0.12132194  0.86865920  0.86821563  1
  O  O287  1  0.63204371  0.36327622  0.37600490  1
  O  O288  1  0.62035203  0.37318474  0.86235122  1
  O  O289  1  0.62007202  0.87104915  0.36968833  1
  O  O290  1  0.63158889  0.86334172  0.87604389  1
  O  O291  1  0.38592288  0.13013182  0.12938177  1
  O  O292  1  0.38715907  0.12167663  0.61694095  1
  O  O293  1  0.38626070  0.63114951  0.12740166  1
  O  O294  1  0.38424088  0.62986459  0.62947750  1
  O  O295  1  0.88763970  0.13164244  0.12871754  1
  O  O296  1  0.87736266  0.12954954  0.64092685  1
  O  O297  1  0.88100297  0.62281602  0.13330334  1
  O  O298  1  0.88011245  0.62782017  0.63184511  1
  O  O299  1  0.24521775  0.25721965  0.11187446  1
  O  O300  1  0.18908336  0.25060422  0.56679768  1
  O  O301  1  0.26172231  0.76047989  0.12515045  1
  O  O302  1  0.26447188  0.75040204  0.62806109  1
  O  O303  1  0.76752814  0.23239528  0.10416841  1
  O  O304  1  0.75688731  0.25650992  0.61793569  1
  O  O305  1  0.74950348  0.74856555  0.11077875  1
  O  O306  1  0.74942047  0.75275419  0.61904160  1
  O  O307  1  0.23471390  0.24661130  0.38728678  1
  O  O308  1  0.23921293  0.24466261  0.88008288  1
  O  O309  1  0.24484951  0.73582021  0.33045085  1
  O  O310  1  0.24668121  0.74075463  0.88180279  1
  O  O311  1  0.74362088  0.24145885  0.39122809  1
  O  O312  1  0.74933584  0.23555546  0.87801638  1
  O  O313  1  0.74491153  0.74028920  0.38177965  1
  O  O314  1  0.74157104  0.74318876  0.88423932  1
  O  O315  1  0.00338341  0.12033575  0.00508959  1
  O  O316  1  -0.01341550  0.11698196  0.52597444  1
  O  O317  1  0.00228454  0.61946992  0.00648686  1
  O  O318  1  0.00899497  0.61808260  0.50542773  1
  O  O319  1  0.49801516  0.13514788  0.01735554  1
  O  O320  1  0.50660075  0.11666444  0.50921368  1
  O  O321  1  0.50841108  0.62267636  0.00279872  1
  O  O322  1  0.49930101  0.61569973  0.51231741  1
  O  O323  1  0.49471359  0.39321256  0.50518521  1
  O  O324  1  0.48736487  0.37499918  0.99216970  1
  O  O325  1  0.49560492  0.87963717  0.48813481  1
  O  O326  1  0.51147278  0.87541232  0.97948672  1
  O  O327  1  0.99727193  0.38195999  0.50195491  1
  O  O328  1  0.99337295  0.38456591  1.00107365  1
  O  O329  1  0.99227715  0.86868590  0.49798004  1
  O  O330  1  0.99321719  0.87837613  0.99783661  1
  O  O331  1  0.49866655  0.50953137  0.38845672  1
  O  O332  1  0.50438011  0.47781073  0.87843699  1
  O  O333  1  0.49452136  0.99422366  0.37989262  1
  O  O334  1  0.49731850  0.98809138  0.87715879  1
  O  O335  1  0.99301548  0.49604592  0.38042001  1
  O  O336  1  0.99232175  0.50250531  0.88766763  1
  O  O337  1  0.99148068  0.99506424  0.37523593  1
  O  O338  1  0.99892411  0.99267123  0.88167526  1
  O  O339  1  0.00475141  0.00773453  0.11982823  1
  O  O340  1  -0.00142910  0.01185187  0.63993297  1
  O  O341  1  -0.00130656  0.50975022  0.11468411  1
  O  O342  1  0.00980205  0.50643364  0.62088997  1
  O  O343  1  0.50797824  0.02082172  0.12917443  1
  O  O344  1  0.50640063  -0.00365098  0.62090775  1
  O  O345  1  0.50362893  0.51150239  0.11702118  1
  O  O346  1  0.50226905  0.51208491  0.61342118  1
  O  O347  1  0.25032918  0.37884950  0.24595741  1
  O  O348  1  0.23622629  0.39564061  0.76483037  1
  O  O349  1  0.24373619  0.88600587  0.23652124  1
  O  O350  1  0.24247429  0.88054213  0.75313418  1
  O  O351  1  0.73398288  0.32926891  0.23533238  1
  O  O352  1  0.74286549  0.37341100  0.74351548  1
  O  O353  1  0.73835164  0.87054414  0.24662611  1
  O  O354  1  0.75167649  0.88525462  0.74642241  1
  O  O355  1  0.25375335  0.11241734  0.24311131  1
  O  O356  1  0.23949814  0.10984080  0.75990304  1
  O  O357  1  0.27102213  0.61101921  0.23314140  1
  O  O358  1  0.25669025  0.61996160  0.75937176  1
  O  O359  1  0.76892697  0.13808442  0.25200434  1
  O  O360  1  0.75194295  0.11858116  0.75828304  1
  O  O361  1  0.76173359  0.62991403  0.25743675  1
  O  O362  1  0.75617319  0.62639904  0.76222819  1
  O  O363  1  0.37836671  0.11263852  0.37881698  1
  O  O364  1  0.36186590  0.13133533  0.87473472  1
  O  O365  1  0.37825150  0.61944471  0.36500932  1
  O  O366  1  0.37021931  0.63194480  0.86663191  1
  O  O367  1  0.88425723  0.13265031  0.36023168  1
  O  O368  1  0.87080348  0.12347827  0.86431474  1
  O  O369  1  0.86912508  0.61706135  0.36753814  1
  O  O370  1  0.86662965  0.61808187  0.87240265  1
  O  O371  1  0.13980200  0.38014167  0.13358574  1
  O  O372  1  0.12359742  0.38603306  0.63694520  1
  O  O373  1  0.13274827  0.88493093  0.13013630  1
  O  O374  1  0.12844824  0.86739721  0.64133011  1
  O  O375  1  0.61996855  0.39388511  0.11629897  1
  O  O376  1  0.63750311  0.37858794  0.62826332  1
  O  O377  1  0.62494135  0.88072222  0.13565633  1
  O  O378  1  0.63398582  0.88005304  0.62143924  1
  O  O379  1  0.11557116  0.26264615  0.24238776  1
  O  O380  1  0.12183010  0.26081443  0.75742491  1
  O  O381  1  0.10973631  0.76305189  0.23187905  1
  O  O382  1  0.12100022  0.75363796  0.75816587  1
  O  O383  1  0.60884502  0.23794909  0.26899617  1
  O  O384  1  0.62505361  0.27002942  0.73838139  1
  O  O385  1  0.62476331  0.75874700  0.26016396  1
  O  O386  1  0.63028928  0.74882333  0.76586353  1
  O  O387  1  0.38758176  0.25293439  0.26576334  1
  O  O388  1  0.28828672  0.25934807  0.70112932  1
  O  O389  1  0.38426862  0.74262501  0.23616584  1
  O  O390  1  0.37554234  0.73574253  0.73949376  1
  O  O391  1  0.88385068  0.24506158  0.23621026  1
  O  O392  1  0.88049819  0.24398376  0.74838908  1
  O  O393  1  0.88264816  0.73911363  0.24587152  1
  O  O394  1  0.87847033  0.74294761  0.74749812  1
  O  O395  1  0.38752816  0.50020450  0.49183489  1
  O  O396  1  0.37008402  0.48512168  0.99749034  1
  O  O397  1  0.37946878  0.98970737  0.49273270  1
  O  O398  1  0.38380191  1.00273322  0.99766555  1
  O  O399  1  0.88405344  0.49575755  0.48993514  1
  O  O400  1  0.87958020  0.49362977  0.99221806  1
  O  O401  1  0.88064931  0.99197660  0.50335376  1
  O  O402  1  0.87974081  0.99373048  0.99988923  1
  O  O403  1  0.11994815  0.00562560  0.00509491  1
  O  O404  1  0.11445831  -0.01142532  0.51190191  1
  O  O405  1  0.11638425  0.50603010  0.00125011  1
  O  O406  1  0.12239712  0.50248079  0.50891133  1
  O  O407  1  0.61763736  0.00304865  0.02185589  1
  O  O408  1  0.62090395  0.00573250  0.51118745  1
  O  O409  1  0.62605742  0.51205034  0.00569242  1
  O  O410  1  0.61536723  0.49818384  0.50266494  1
  O  O411  1  0.36531938  0.37608645  0.11602906  1
  O  O412  1  0.37559107  0.38303918  0.61053790  1
  O  O413  1  0.37109276  0.86922710  0.13151786  1
  O  O414  1  0.37832884  0.86360787  0.61421592  1
  O  O415  1  0.87758336  0.36622756  0.11402267  1
  O  O416  1  0.87162628  0.36886029  0.62210214  1
  O  O417  1  0.87091629  0.87497905  0.11508422  1
  O  O418  1  0.85941754  0.86479456  0.62960250  1
  O  O419  1  0.13380840  0.13046794  0.37692318  1
  O  O420  1  0.13033629  0.13322463  0.88017954  1
  O  O421  1  0.12649031  0.61886391  0.39176811  1
  O  O422  1  0.13246559  0.63156523  0.88280765  1
  O  O423  1  0.62185850  0.12911279  0.39182361  1
  O  O424  1  0.63071748  0.12240167  0.86996368  1
  O  O425  1  0.63588908  0.63293741  0.36551612  1
  O  O426  1  0.62908536  0.62776217  0.87880023  1
