# generated using pymatgen
data_V85Zn86O256
_symmetry_space_group_name_H-M   'P 1'
_cell_length_a   16.94711413
_cell_length_b   16.95268025
_cell_length_c   16.97157702
_cell_angle_alpha   90.09707080
_cell_angle_beta   89.89866484
_cell_angle_gamma   90.06455596
_symmetry_Int_Tables_number   1
_chemical_formula_structural   V85Zn86O256
_chemical_formula_sum   'V85 Zn86 O256'
_cell_volume   4875.89952562
_cell_formula_units_Z   1
loop_
 _symmetry_equiv_pos_site_id
 _symmetry_equiv_pos_as_xyz
  1  'x, y, z'
loop_
 _atom_site_type_symbol
 _atom_site_label
 _atom_site_symmetry_multiplicity
 _atom_site_fract_x
 _atom_site_fract_y
 _atom_site_fract_z
 _atom_site_occupancy
  V  V0  1  0.12172719  0.74753866  0.87544931  1
  V  V1  1  0.25070240  0.61958355  0.86157086  1
  V  V2  1  0.49963129  0.37641272  0.87275057  1
  V  V3  1  0.24661252  0.24472644  -0.00011668  1
  V  V4  1  0.24636635  0.62425468  0.37495636  1
  V  V5  1  -0.00434134  0.73451003  0.73962505  1
  V  V6  1  -0.00103527  0.87217356  0.87566194  1
  V  V7  1  0.12500337  0.24456480  0.87762236  1
  V  V8  1  0.50596892  0.88335420  0.86596314  1
  V  V9  1  0.74835539  0.12685469  0.37414599  1
  V  V10  1  0.85961496  0.74214875  0.62736112  1
  V  V11  1  0.62508231  0.87797607  0.24876924  1
  V  V12  1  0.62624340  0.25006384  0.37619570  1
  V  V13  1  0.87293370  0.87237279  -0.00090187  1
  V  V14  1  0.25116421  0.87331094  0.62773529  1
  V  V15  1  0.00375076  0.88661410  0.37770541  1
  V  V16  1  0.50536073  0.62710955  0.11605503  1
  V  V17  1  0.37361253  0.88348843  -0.00840202  1
  V  V18  1  0.37428403  0.24641112  0.62472679  1
  V  V19  1  0.25073841  0.74861950  0.50397923  1
  V  V20  1  -0.00111541  0.50077849  0.51367901  1
  V  V21  1  0.61685304  0.74282234  0.87793584  1
  V  V22  1  0.62697711  0.24984419  0.87210438  1
  V  V23  1  -0.00003185  0.75533103  0.24876251  1
  V  V24  1  0.50008608  0.38141228  0.37948999  1
  V  V25  1  0.00194947  0.12106332  0.61368131  1
  V  V26  1  0.12573140  0.37768781  0.25644615  1
  V  V27  1  0.74936518  0.75191526  0.48302041  1
  V  V28  1  0.12512514  0.49954026  0.12748331  1
  V  V29  1  0.87300434  -0.00151866  0.87448757  1
  V  V30  1  0.36998573  0.50118400  0.86140357  1
  V  V31  1  0.87624591  0.12410859  0.24886092  1
  V  V32  1  0.50138281  0.24831481  0.74946883  1
  V  V33  1  0.50383787  0.12051647  0.62643566  1
  V  V34  1  0.00335583  0.25255571  0.74837550  1
  V  V35  1  0.11510039  0.00137378  0.61538187  1
  V  V36  1  0.12506063  0.62099021  0.00066775  1
  V  V37  1  0.87479876  0.74909747  0.12262799  1
  V  V38  1  0.12258051  0.75305276  0.36879534  1
  V  V39  1  0.24942251  0.49920634  0.25107782  1
  V  V40  1  0.87633452  0.12316503  0.75063766  1
  V  V41  1  0.60731493  0.51061726  0.62564142  1
  V  V42  1  0.75802748  0.62932543  0.88938152  1
  V  V43  1  -0.00042411  0.25096310  0.25178144  1
  V  V44  1  0.75928998  0.50851600  0.74062497  1
  V  V45  1  0.63427905  0.37577286  0.74058151  1
  V  V46  1  0.37274914  0.37894343  0.50130286  1
  V  V47  1  0.11992235  0.62591229  0.50542289  1
  V  V48  1  0.87199989  0.49122604  0.87898385  1
  V  V49  1  0.75473250  0.25736392  -0.00196607  1
  V  V50  1  -0.00466023  0.48986307  0.00253344  1
  V  V51  1  0.11827836  0.87801643  0.75033440  1
  V  V52  1  0.12784419  0.23841068  0.37983856  1
  V  V53  1  0.24744647  0.87793258  0.13533614  1
  V  V54  1  0.87605719  0.00168002  0.38567541  1
  V  V55  1  0.49828973  0.87307953  0.37214052  1
  V  V56  1  0.49866283  0.25383704  0.25062582  1
  V  V57  1  0.87605051  0.25822007  0.12185724  1
  V  V58  1  0.62845272  0.49890768  0.11989432  1
  V  V59  1  0.62594923  0.74012189  0.36773633  1
  V  V60  1  0.50089612  0.50593397  -0.00645635  1
  V  V61  1  0.74896076  0.87189525  0.12016828  1
  V  V62  1  0.86950842  0.25368915  0.62565598  1
  V  V63  1  0.62813320  0.12554173  -0.00198137  1
  V  V64  1  -0.00011210  0.37788087  0.38109990  1
  V  V65  1  0.24764838  0.23315864  0.49848057  1
  V  V66  1  0.62655284  0.00011126  0.12252522  1
  V  V67  1  0.24857273  0.74909806  -0.00061513  1
  V  V68  1  0.37477612  0.74987388  0.11994282  1
  V  V69  1  0.25112888  0.37499950  0.12508089  1
  V  V70  1  0.25131772  0.11710200  0.87750335  1
  V  V71  1  0.37544133  0.87329056  0.50003273  1
  V  V72  1  0.13622888  0.50130914  0.63400931  1
  V  V73  1  0.12790901  0.00025293  0.13933280  1
  V  V74  1  0.62445520  0.12393940  0.50059736  1
  V  V75  1  0.37602253  0.50091015  0.37854757  1
  V  V76  1  0.49930087  0.12605791  0.12359369  1
  V  V77  1  0.37498759  0.25062984  0.12509781  1
  V  V78  1  0.62975008  -0.02136548  0.62517190  1
  V  V79  1  0.37499238  0.62527633  0.24646737  1
  V  V80  1  0.00300316  0.12487292  0.12205375  1
  V  V81  1  0.43547823  0.69034169  0.69336588  1
  V  V82  1  0.86625395  0.37780798  0.50507637  1
  V  V83  1  0.01049586  0.00291651  -0.00132737  1
  V  V84  1  0.37652575  0.11301736  0.75473647  1
  Zn  Zn85  1  0.87388092  0.87830544  0.50515789  1
  Zn  Zn86  1  0.49474438  0.00446540  -0.00446110  1
  Zn  Zn87  1  0.74654217  0.25450818  0.50607593  1
  Zn  Zn88  1  0.86269112  0.50790311  0.38001737  1
  Zn  Zn89  1  0.49898211  -0.00510221  0.50045565  1
  Zn  Zn90  1  0.62069157  0.61601622  0.49457187  1
  Zn  Zn91  1  -0.00191760  0.37013407  0.87869904  1
  Zn  Zn92  1  -0.00009980  0.62523237  0.12483320  1
  Zn  Zn93  1  0.13471040  0.37688164  0.75459640  1
  Zn  Zn94  1  0.75082217  0.12386640  0.87281876  1
  Zn  Zn95  1  0.35345090  0.00249005  0.37133196  1
  Zn  Zn96  1  0.74833788  0.50526801  0.26135863  1
  Zn  Zn97  1  0.86527935  0.62892079  0.26224509  1
  Zn  Zn98  1  0.35306227  0.12007440  0.25580848  1
  Zn  Zn99  1  0.75258037  0.37752254  0.12588066  1
  Zn  Zn100  1  0.37333970  0.37502181  -0.00316507  1
  Zn  Zn101  1  0.75001462  0.00083826  0.25043933  1
  Zn  Zn102  1  0.74067657  -0.01280696  0.74818162  1
  Zn  Zn103  1  0.62990413  0.37723291  0.24877452  1
  Zn  Zn104  1  0.25219868  0.37394541  0.62974951  1
  Zn  Zn105  1  0.50051517  0.75010698  0.24280366  1
  Zn  Zn106  1  0.25011471  -0.00243001  0.75271191  1
  Zn  Zn107  1  0.17988803  0.19105688  0.18260702  1
  Zn  Zn108  1  0.18878169  0.18569364  0.68866969  1
  Zn  Zn109  1  0.18651413  0.68867566  0.18764210  1
  Zn  Zn110  1  0.18337080  0.69003909  0.68706640  1
  Zn  Zn111  1  0.68782249  0.19060506  0.18801630  1
  Zn  Zn112  1  0.69068256  0.18137902  0.68935877  1
  Zn  Zn113  1  0.68891835  0.68776036  0.18260735  1
  Zn  Zn114  1  0.68161242  0.68783088  0.69638625  1
  Zn  Zn115  1  0.31186865  0.30725988  0.31482927  1
  Zn  Zn116  1  0.31313524  0.30881676  0.81002144  1
  Zn  Zn117  1  0.31368565  0.81107860  0.31344720  1
  Zn  Zn118  1  0.31033211  0.81130667  0.81287835  1
  Zn  Zn119  1  0.81107104  0.32066392  0.31283737  1
  Zn  Zn120  1  0.81209195  0.31521261  0.81081480  1
  Zn  Zn121  1  0.81453798  0.81715703  0.30880635  1
  Zn  Zn122  1  0.77771963  0.80015966  0.79371180  1
  Zn  Zn123  1  0.18845905  0.43575602  0.44316656  1
  Zn  Zn124  1  0.18711280  0.43296990  0.93568279  1
  Zn  Zn125  1  0.18269444  0.93343145  0.44226435  1
  Zn  Zn126  1  0.18692258  0.93674184  0.94030922  1
  Zn  Zn127  1  0.68582762  0.44019644  0.44190297  1
  Zn  Zn128  1  0.68603613  0.43933977  0.93489958  1
  Zn  Zn129  1  0.68773236  0.93398093  0.43911058  1
  Zn  Zn130  1  0.68770971  0.93668212  0.93576456  1
  Zn  Zn131  1  0.30938080  0.06451389  0.06691152  1
  Zn  Zn132  1  0.31265865  0.05414760  0.56487654  1
  Zn  Zn133  1  0.31506244  0.56071941  0.05556165  1
  Zn  Zn134  1  0.31832497  0.56637233  0.56707855  1
  Zn  Zn135  1  0.81311773  0.06307333  0.06087325  1
  Zn  Zn136  1  0.80827310  0.06461601  0.56518775  1
  Zn  Zn137  1  0.81386020  0.56407641  0.06353484  1
  Zn  Zn138  1  0.80865414  0.57243499  0.55782961  1
  Zn  Zn139  1  0.43984917  0.43905017  0.18608714  1
  Zn  Zn140  1  0.43573660  0.43472281  0.68865368  1
  Zn  Zn141  1  0.43674662  0.93660193  0.18243405  1
  Zn  Zn142  1  0.44134600  0.92892312  0.68059620  1
  Zn  Zn143  1  0.93638694  0.44196417  0.19323486  1
  Zn  Zn144  1  0.93865848  0.43719925  0.68980000  1
  Zn  Zn145  1  0.94011009  0.93865198  0.19187809  1
  Zn  Zn146  1  0.90724957  0.91336738  0.70258310  1
  Zn  Zn147  1  0.18060110  0.06437468  0.31537396  1
  Zn  Zn148  1  0.06059888  0.06454550  0.80980459  1
  Zn  Zn149  1  0.02706507  0.58076247  0.33184224  1
  Zn  Zn150  1  0.06101755  0.55830877  0.81699078  1
  Zn  Zn151  1  0.49882633  0.05929354  0.30975820  1
  Zn  Zn152  1  0.56474848  0.05635279  0.81021904  1
  Zn  Zn153  1  0.56099790  0.56135431  0.30345124  1
  Zn  Zn154  1  0.56606482  0.56548339  0.80823095  1
  Zn  Zn155  1  0.43695716  0.18843367  0.43921795  1
  Zn  Zn156  1  0.43512935  0.18893020  0.93694542  1
  Zn  Zn157  1  0.43830552  0.68435899  0.43790628  1
  Zn  Zn158  1  0.43479123  0.68893053  0.92732492  1
  Zn  Zn159  1  0.93771670  0.19026172  0.43775514  1
  Zn  Zn160  1  0.93760008  0.18680482  0.93853798  1
  Zn  Zn161  1  0.93829616  0.69131532  0.44420026  1
  Zn  Zn162  1  0.93597140  0.68373405  0.93540218  1
  Zn  Zn163  1  0.06655226  0.31129417  0.06284888  1
  Zn  Zn164  1  0.06394359  0.31320591  0.56507833  1
  Zn  Zn165  1  0.06298691  0.81683091  0.06313655  1
  Zn  Zn166  1  0.05701751  0.81587963  0.56191398  1
  Zn  Zn167  1  0.56379346  0.31498675  0.05821395  1
  Zn  Zn168  1  0.56036265  0.31448617  0.56275003  1
  Zn  Zn169  1  0.56382843  0.81039826  0.05064990  1
  Zn  Zn170  1  0.54312897  0.77056515  0.55058444  1
  O  O171  1  0.11476367  0.11283951  0.12409406  1
  O  O172  1  0.11781242  0.10979087  0.63361419  1
  O  O173  1  0.12614674  0.61793730  0.11701255  1
  O  O174  1  0.13074050  0.61247910  0.61785014  1
  O  O175  1  0.62117430  0.12378847  0.11542207  1
  O  O176  1  0.61525054  0.12640279  0.61908184  1
  O  O177  1  0.61046212  0.61947177  0.12257594  1
  O  O178  1  0.62473923  0.61197327  0.63298030  1
  O  O179  1  0.38044878  0.37973133  0.38092205  1
  O  O180  1  0.38425805  0.37914868  0.87416593  1
  O  O181  1  0.38309279  0.87574595  0.37953551  1
  O  O182  1  0.38018349  0.87006232  0.88758353  1
  O  O183  1  0.88528561  0.37502644  0.38748122  1
  O  O184  1  0.87710118  0.38553669  0.87503943  1
  O  O185  1  0.88196058  0.88647564  0.37449252  1
  O  O186  1  0.88341988  0.88407315  0.88588378  1
  O  O187  1  0.24225253  -0.00538654  0.37427313  1
  O  O188  1  0.24433628  0.01323217  0.87552119  1
  O  O189  1  0.25336715  0.50596828  0.37072104  1
  O  O190  1  0.25829398  0.50682566  0.88206489  1
  O  O191  1  0.75714847  0.00812144  0.37233218  1
  O  O192  1  0.76053006  0.00241370  0.87198859  1
  O  O193  1  0.74904427  0.50275591  0.37776169  1
  O  O194  1  0.75597753  0.50423175  0.86991115  1
  O  O195  1  0.24658973  0.49422600  0.12941628  1
  O  O196  1  0.23869032  0.49894182  0.62077777  1
  O  O197  1  0.23582378  0.99514777  0.12177070  1
  O  O198  1  0.23672291  0.99016385  0.62876864  1
  O  O199  1  0.73410852  0.49710843  0.11135737  1
  O  O200  1  0.75287428  0.50714312  0.63923132  1
  O  O201  1  0.74502230  0.99177049  0.12598222  1
  O  O202  1  0.73375529  1.00117215  0.62358935  1
  O  O203  1  0.00548420  0.37110127  0.26172763  1
  O  O204  1  0.00315170  0.36122944  0.75221417  1
  O  O205  1  -0.00459768  0.86550821  0.26234746  1
  O  O206  1  0.00388992  0.86444779  0.75810730  1
  O  O207  1  0.50032756  0.36567813  0.25669333  1
  O  O208  1  0.50742442  0.36934454  0.75828687  1
  O  O209  1  0.50771965  0.87110218  0.25289398  1
  O  O210  1  0.49034819  0.87938718  0.76896211  1
  O  O211  1  0.51393731  0.14166855  0.23187700  1
  O  O212  1  0.49640752  0.12720716  0.74420364  1
  O  O213  1  0.49077109  0.62679054  0.23569588  1
  O  O214  1  0.49650309  0.63117075  0.75093023  1
  O  O215  1  0.99024513  0.13520608  0.23572050  1
  O  O216  1  0.99259226  0.13613365  0.74438876  1
  O  O217  1  1.00380151  0.64490612  0.24014111  1
  O  O218  1  1.00445943  0.63761744  0.75753899  1
  O  O219  1  0.36794425  0.25352708  0.00780106  1
  O  O220  1  0.36519528  0.25346450  0.50372743  1
  O  O221  1  0.36812387  0.75766614  0.00302952  1
  O  O222  1  0.35643982  0.75921784  0.48912018  1
  O  O223  1  0.86677958  0.24461768  0.00914816  1
  O  O224  1  0.87419375  0.25841515  0.50946856  1
  O  O225  1  0.88765783  0.76574667  0.00666289  1
  O  O226  1  0.86063313  0.74932215  0.50229145  1
  O  O227  1  0.13974919  0.25311133  0.49580687  1
  O  O228  1  0.13475503  0.24886327  0.99285504  1
  O  O229  1  0.13043491  0.74412733  0.49318137  1
  O  O230  1  0.12699951  0.74227584  0.99551741  1
  O  O231  1  0.62563490  0.24460182  0.49544792  1
  O  O232  1  0.63041797  0.24084274  0.99378439  1
  O  O233  1  0.63789125  0.76288203  0.48005344  1
  O  O234  1  0.63558310  0.75900978  0.97605131  1
  O  O235  1  0.49515099  0.24865032  0.12948332  1
  O  O236  1  0.49542365  0.24069377  0.63050469  1
  O  O237  1  0.49498349  0.74307422  0.11831547  1
  O  O238  1  0.49116862  0.76545638  0.65004060  1
  O  O239  1  0.99561397  0.24297265  0.12684878  1
  O  O240  1  0.99548183  0.24249507  0.63218005  1
  O  O241  1  0.99353008  0.75715843  0.13255936  1
  O  O242  1  1.01559755  0.74239420  0.64070349  1
  O  O243  1  0.00681042  0.26128941  0.37486238  1
  O  O244  1  0.00781924  0.24752973  0.86933602  1
  O  O245  1  0.00592488  0.75807435  0.36794567  1
  O  O246  1  0.00375507  0.75278201  0.86850403  1
  O  O247  1  0.50508463  0.25929211  0.36677364  1
  O  O248  1  0.50579944  0.25675705  0.86885335  1
  O  O249  1  0.50829133  0.75971435  0.36553185  1
  O  O250  1  0.51140017  0.75884224  0.87638357  1
  O  O251  1  0.25657852  0.13446802  0.50149147  1
  O  O252  1  0.25688961  0.13611083  0.99310452  1
  O  O253  1  0.24161045  0.63170439  0.49474559  1
  O  O254  1  0.23876425  0.62935216  0.99729953  1
  O  O255  1  0.73788334  0.12889006  0.49465501  1
  O  O256  1  0.74273191  0.13454310  0.99792092  1
  O  O257  1  0.73724026  0.64622784  0.50415218  1
  O  O258  1  0.74529952  0.61680727  0.98667972  1
  O  O259  1  0.25095802  0.36353981  0.00612513  1
  O  O260  1  0.26248905  0.36620171  0.50311657  1
  O  O261  1  0.25903009  0.86983354  0.00354251  1
  O  O262  1  0.25227506  0.86679495  0.50862389  1
  O  O263  1  0.74244894  0.36022372  0.00078919  1
  O  O264  1  0.76319688  0.37355214  0.50139506  1
  O  O265  1  0.76321057  0.88385388  0.00662616  1
  O  O266  1  0.75632908  0.85942804  0.49604973  1
  O  O267  1  0.13149867  0.49219405  0.24574216  1
  O  O268  1  0.11870257  0.49833774  0.73662807  1
  O  O269  1  0.11735258  1.00001696  0.23646365  1
  O  O270  1  0.12371460  0.98672504  0.74891958  1
  O  O271  1  0.62205675  0.49627864  0.23315202  1
  O  O272  1  0.63420425  0.49382228  0.74146446  1
  O  O273  1  0.62354866  0.98632089  0.23935612  1
  O  O274  1  0.62522925  0.99864532  0.73234987  1
  O  O275  1  0.39920012  0.01021546  0.25722372  1
  O  O276  1  0.37373636  0.01083886  0.74143221  1
  O  O277  1  0.36914214  0.50502620  0.25602350  1
  O  O278  1  0.37537827  0.49657601  0.76226876  1
  O  O279  1  0.87582269  0.01376213  0.25664169  1
  O  O280  1  0.89429785  0.01213820  0.76562887  1
  O  O281  1  0.87497416  0.50703267  0.25749759  1
  O  O282  1  0.86511563  0.49568086  0.75786164  1
  O  O283  1  0.12080147  0.36817687  0.37296011  1
  O  O284  1  0.12271051  0.35961480  0.87354889  1
  O  O285  1  0.11153292  0.86716143  0.37761125  1
  O  O286  1  0.11969400  0.86935216  0.86980322  1
  O  O287  1  0.61562359  0.36500214  0.38075220  1
  O  O288  1  0.61834670  0.37001795  0.86390381  1
  O  O289  1  0.62302098  0.86746273  0.36227222  1
  O  O290  1  0.61028826  0.87396460  0.87776321  1
  O  O291  1  0.38423490  0.13251438  0.12624701  1
  O  O292  1  0.38728817  0.12532725  0.62819709  1
  O  O293  1  0.38099680  0.63071606  0.12477911  1
  O  O294  1  0.37978584  0.63753826  0.62453527  1
  O  O295  1  0.87904736  0.13124046  0.13248753  1
  O  O296  1  0.88300725  0.12837886  0.63240051  1
  O  O297  1  0.87989404  0.64342128  0.11389374  1
  O  O298  1  0.88118328  0.64426259  0.61393001  1
  O  O299  1  0.25344789  0.25447531  0.11665544  1
  O  O300  1  0.25557767  0.24604625  0.61332994  1
  O  O301  1  0.25255036  0.75755470  0.11706935  1
  O  O302  1  0.23791602  0.76261868  0.61586366  1
  O  O303  1  0.75943452  0.25102583  0.11708197  1
  O  O304  1  0.76558528  0.24368815  0.62647492  1
  O  O305  1  0.75879013  0.76453178  0.12317090  1
  O  O306  1  0.75737799  0.74893549  0.62623223  1
  O  O307  1  0.24319427  0.25101513  0.38912228  1
  O  O308  1  0.24489179  0.24109897  0.88268767  1
  O  O309  1  0.24025537  0.74548001  0.37997532  1
  O  O310  1  0.24074524  0.74168173  0.88220836  1
  O  O311  1  0.74134861  0.24638325  0.37724968  1
  O  O312  1  0.74517184  0.24726978  0.87990658  1
  O  O313  1  0.74611367  0.74966904  0.37618899  1
  O  O314  1  0.76919362  0.73076192  0.88200732  1
  O  O315  1  -0.00771629  0.11689456  0.01353256  1
  O  O316  1  -0.00337106  0.12956927  0.51481881  1
  O  O317  1  0.01280578  0.61622044  0.00058450  1
  O  O318  1  0.01373723  0.61732959  0.50069874  1
  O  O319  1  0.50696989  0.12883251  0.00867198  1
  O  O320  1  0.51059081  0.12411403  0.50888796  1
  O  O321  1  0.49315497  0.61739280  0.00316139  1
  O  O322  1  0.51784074  0.66295506  0.50925535  1
  O  O323  1  0.48520260  0.36677588  0.49031391  1
  O  O324  1  0.49962716  0.37860751  0.98360364  1
  O  O325  1  0.48726486  0.86385874  0.49217565  1
  O  O326  1  0.48623187  0.87724672  0.99252560  1
  O  O327  1  0.99351243  0.38037681  0.49809599  1
  O  O328  1  1.00721139  0.38635131  0.99984882  1
  O  O329  1  0.99450362  0.86844861  0.48108814  1
  O  O330  1  0.99436562  0.88531571  0.99598565  1
  O  O331  1  0.49643776  0.48742733  0.36923742  1
  O  O332  1  0.49567513  0.49462773  0.87628850  1
  O  O333  1  0.51703090  0.97753524  0.38508856  1
  O  O334  1  0.50114078  0.98930884  0.87958223  1
  O  O335  1  1.01014212  0.48446897  0.39304493  1
  O  O336  1  0.99203476  0.49579961  0.88417182  1
  O  O337  1  0.99309338  0.98707832  0.37138353  1
  O  O338  1  0.99720461  0.99657357  0.88389203  1
  O  O339  1  0.00756833  0.00467144  0.12027433  1
  O  O340  1  0.01063020  0.00684098  0.63266731  1
  O  O341  1  0.00708896  0.50129717  0.11888869  1
  O  O342  1  0.01012935  0.49612667  0.61697750  1
  O  O343  1  0.50806214  0.01071467  0.11722715  1
  O  O344  1  0.50937019  0.00487694  0.62030393  1
  O  O345  1  0.50403597  0.50669540  0.11375055  1
  O  O346  1  0.50895011  0.50054072  0.63011194  1
  O  O347  1  0.24530570  0.37781996  0.24664571  1
  O  O348  1  0.24741746  0.36563207  0.74290169  1
  O  O349  1  0.25640711  0.87097495  0.23398699  1
  O  O350  1  0.24002928  0.87511052  0.74442620  1
  O  O351  1  0.74747390  0.38266627  0.24369477  1
  O  O352  1  0.74158614  0.38860941  0.75460929  1
  O  O353  1  0.74358250  0.87917807  0.23911254  1
  O  O354  1  0.79976123  0.89224381  0.74283111  1
  O  O355  1  0.24304885  0.13282568  0.25107191  1
  O  O356  1  0.25982429  0.12323282  0.75856436  1
  O  O357  1  0.25456344  0.61993616  0.25560023  1
  O  O358  1  0.23859496  0.62542516  0.76339502  1
  O  O359  1  0.75733846  0.12540250  0.25619949  1
  O  O360  1  0.76595263  0.11782924  0.75035181  1
  O  O361  1  0.75643810  0.61753712  0.23255023  1
  O  O362  1  0.74764152  0.60958584  0.76266758  1
  O  O363  1  0.40367859  0.11236871  0.36541238  1
  O  O364  1  0.36667055  0.12868256  0.86590355  1
  O  O365  1  0.36994387  0.62009458  0.36929830  1
  O  O366  1  0.36176881  0.61344084  0.88220570  1
  O  O367  1  0.87242216  0.12123917  0.36838929  1
  O  O368  1  0.87533406  0.11817730  0.86827579  1
  O  O369  1  0.91323482  0.61350953  0.36847377  1
  O  O370  1  0.86596955  0.60897584  0.88145744  1
  O  O371  1  0.13175701  0.37885320  0.13460577  1
  O  O372  1  0.12811676  0.38977239  0.62351778  1
  O  O373  1  0.13363774  0.88936706  0.11985991  1
  O  O374  1  0.12546272  0.88320722  0.63282398  1
  O  O375  1  0.62277831  0.38534855  0.12495858  1
  O  O376  1  0.61880132  0.38289073  0.63665767  1
  O  O377  1  0.63181611  0.87705303  0.12428117  1
  O  O378  1  0.62001611  0.88332790  0.61529486  1
  O  O379  1  0.11702901  0.26032383  0.25731121  1
  O  O380  1  0.11723250  0.24823001  0.75650746  1
  O  O381  1  0.12110973  0.74944105  0.26222769  1
  O  O382  1  0.11770523  0.75968678  0.75733655  1
  O  O383  1  0.61892989  0.25508901  0.25927628  1
  O  O384  1  0.62330555  0.25622205  0.75191806  1
  O  O385  1  0.62555921  0.76073836  0.25100514  1
  O  O386  1  0.66002268  0.76390617  0.78001888  1
  O  O387  1  0.38395660  0.24723970  0.24405378  1
  O  O388  1  0.38360113  0.23760526  0.74288486  1
  O  O389  1  0.37495672  0.74293256  0.23811338  1
  O  O390  1  0.37048478  0.73693966  0.75694078  1
  O  O391  1  0.87979595  0.24260119  0.24547558  1
  O  O392  1  0.88148655  0.24421616  0.74511188  1
  O  O393  1  0.88203344  0.75023845  0.24010619  1
  O  O394  1  0.88659282  0.74551016  0.73556212  1
  O  O395  1  0.36955426  0.49155272  0.49193289  1
  O  O396  1  0.38674399  0.49382380  0.99209120  1
  O  O397  1  0.37695694  0.98540886  0.49603300  1
  O  O398  1  0.37275652  0.98620156  1.00554533  1
  O  O399  1  0.88289692  0.49522574  0.50429128  1
  O  O400  1  0.88542619  0.50051685  0.99579970  1
  O  O401  1  0.87115333  1.00234685  0.48906038  1
  O  O402  1  0.88385958  0.99607459  0.99192225  1
  O  O403  1  0.11301711  -0.00136337  0.00550782  1
  O  O404  1  0.11889172  -0.00583171  0.51727942  1
  O  O405  1  0.12129776  0.50482080  0.00610331  1
  O  O406  1  0.12098234  0.50725194  0.50953015  1
  O  O407  1  0.62595008  0.01369486  0.00256060  1
  O  O408  1  0.62437876  0.00809870  0.50877275  1
  O  O409  1  0.60851317  0.49455370  0.00236273  1
  O  O410  1  0.62633255  0.49952759  0.52206027  1
  O  O411  1  0.36894340  0.36809701  0.12471384  1
  O  O412  1  0.37719089  0.36568161  0.61677819  1
  O  O413  1  0.36955168  0.86905490  0.11377306  1
  O  O414  1  0.36103713  0.87900698  0.61537004  1
  O  O415  1  0.87926212  0.36067149  0.12926012  1
  O  O416  1  0.88330897  0.36454004  0.61796496  1
  O  O417  1  0.86956165  0.87182338  0.11985171  1
  O  O418  1  0.90054886  0.84378019  0.61251204  1
  O  O419  1  0.11263834  0.14080191  0.37257081  1
  O  O420  1  0.13381867  0.13599176  0.86925850  1
  O  O421  1  0.12575237  0.63362123  0.38377540  1
  O  O422  1  0.13079017  0.62513420  0.88438744  1
  O  O423  1  0.62434438  0.13882677  0.38412494  1
  O  O424  1  0.62566432  0.13060555  0.88045503  1
  O  O425  1  0.61687149  0.63748676  0.36924813  1
  O  O426  1  0.63414855  0.63734783  0.87259588  1
