# generated using pymatgen
data_V85Zn86O256
_symmetry_space_group_name_H-M   'P 1'
_cell_length_a   16.91721397
_cell_length_b   16.91734346
_cell_length_c   16.91826556
_cell_angle_alpha   89.94553510
_cell_angle_beta   90.05376529
_cell_angle_gamma   89.89540959
_symmetry_Int_Tables_number   1
_chemical_formula_structural   V85Zn86O256
_chemical_formula_sum   'V85 Zn86 O256'
_cell_volume   4841.89909692
_cell_formula_units_Z   1
loop_
 _symmetry_equiv_pos_site_id
 _symmetry_equiv_pos_as_xyz
  1  'x, y, z'
loop_
 _atom_site_type_symbol
 _atom_site_label
 _atom_site_symmetry_multiplicity
 _atom_site_fract_x
 _atom_site_fract_y
 _atom_site_fract_z
 _atom_site_occupancy
  V  V0  1  0.75454272  0.74533384  0.49634686  1
  V  V1  1  0.62817268  0.86978059  0.24447959  1
  V  V2  1  0.00001591  0.74970365  0.25177954  1
  V  V3  1  0.86747576  0.11518894  0.75268191  1
  V  V4  1  0.87573842  0.63599580  0.74893399  1
  V  V5  1  0.87185208  0.62187181  0.26390942  1
  V  V6  1  0.75703098  0.36318713  0.62307552  1
  V  V7  1  -0.00399831  0.12577103  0.12136182  1
  V  V8  1  0.74731557  0.13681193  0.37647768  1
  V  V9  1  0.35986909  0.87760486  -0.00342678  1
  V  V10  1  0.37373751  -0.00302529  0.37311069  1
  V  V11  1  0.87140198  0.75117366  0.12749998  1
  V  V12  1  0.36994677  0.51627406  0.37639824  1
  V  V13  1  -0.01167338  0.50434992  0.50019113  1
  V  V14  1  0.62895168  0.87891873  0.75318300  1
  V  V15  1  0.12329516  0.13093851  -0.00751844  1
  V  V16  1  0.50148395  0.36087802  0.37690971  1
  V  V17  1  0.75017486  0.50384056  0.26132938  1
  V  V18  1  0.49893065  0.24920334  0.75079346  1
  V  V19  1  0.49429114  0.63072579  0.13148309  1
  V  V20  1  0.25036812  0.50000169  0.75757335  1
  V  V21  1  0.50463463  0.49839137  0.49887514  1
  V  V22  1  0.76359104  0.49688776  0.75405355  1
  V  V23  1  0.25827435  0.62525026  0.87992040  1
  V  V24  1  0.48922499  0.37841706  0.87537029  1
  V  V25  1  0.75499320  0.86981958  0.62875027  1
  V  V26  1  -0.00458719  0.87578756  0.87376005  1
  V  V27  1  0.24135331  0.37112919  0.62476415  1
  V  V28  1  0.12616543  0.49235600  0.12227962  1
  V  V29  1  -0.00564475  0.50408973  -0.00730414  1
  V  V30  1  -0.00026126  0.00052332  0.49914312  1
  V  V31  1  0.24968254  -0.00513164  0.24167615  1
  V  V32  1  0.49003517  0.50255568  -0.00428975  1
  V  V33  1  0.63021093  0.50136420  0.62630358  1
  V  V34  1  0.63001237  0.36200882  0.25183302  1
  V  V35  1  0.25350107  0.13364304  0.87361743  1
  V  V36  1  0.24943772  0.12297460  0.37333098  1
  V  V37  1  0.37424753  0.37069168  0.49908649  1
  V  V38  1  0.50408686  -0.00197104  0.49953765  1
  V  V39  1  0.62497266  0.75036346  0.87425266  1
  V  V40  1  -0.00252784  0.00060565  -0.00617370  1
  V  V41  1  0.87467881  0.37623900  0.00381944  1
  V  V42  1  0.50341180  0.87194188  0.37249529  1
  V  V43  1  0.75561950  0.24965862  0.00697334  1
  V  V44  1  0.63214540  0.62207542  0.49155852  1
  V  V45  1  -0.00329623  0.37470052  0.87462006  1
  V  V46  1  0.16809050  0.55470433  0.56826011  1
  V  V47  1  0.87254880  0.12972987  0.24441807  1
  V  V48  1  0.62763378  0.37701533  0.75134685  1
  V  V49  1  -0.00565134  0.62782475  0.62291100  1
  V  V50  1  0.12327147  0.37193759  0.75434002  1
  V  V51  1  0.75874774  0.62017576  0.88019595  1
  V  V52  1  0.62233308  0.12369893  0.00043465  1
  V  V53  1  0.62956546  0.13736898  0.49551878  1
  V  V54  1  0.87404593  -0.00050431  0.37295071  1
  V  V55  1  0.87558276  0.87130325  0.50287871  1
  V  V56  1  0.12864889  0.87241149  0.24542231  1
  V  V57  1  0.24895174  0.87390247  0.62240347  1
  V  V58  1  0.44154399  0.29946907  0.19296973  1
  V  V59  1  0.12747395  0.62884192  0.00096431  1
  V  V60  1  0.12639747  0.75017863  0.87659912  1
  V  V61  1  0.12665717  0.00248140  0.62460734  1
  V  V62  1  -0.00364057  0.25345485  0.24147072  1
  V  V63  1  0.25659020  0.00032148  0.75607478  1
  V  V64  1  0.63017171  0.25024640  0.87543126  1
  V  V65  1  0.74822802  0.75268135  0.00517379  1
  V  V66  1  0.62011002  -0.00301379  0.12562994  1
  V  V67  1  0.49973378  0.12283048  0.62438638  1
  V  V68  1  0.63488226  -0.00057430  0.62547860  1
  V  V69  1  -0.00475471  0.38269463  0.37184763  1
  V  V70  1  0.25192271  0.50670731  0.24603211  1
  V  V71  1  0.37805659  0.74890192  0.63150415  1
  V  V72  1  0.37532935  0.87206548  0.50019525  1
  V  V73  1  0.12112191  0.24832008  0.37263944  1
  V  V74  1  0.62303430  0.62291854  0.00117886  1
  V  V75  1  0.25218521  0.25609014  0.01450390  1
  V  V76  1  0.75062302  -0.00479354  0.24509563  1
  V  V77  1  0.24803448  0.24678485  0.50057466  1
  V  V78  1  -0.00580970  0.24945516  0.75186292  1
  V  V79  1  0.37888731  0.12363128  0.24201851  1
  V  V80  1  0.13281064  0.73910491  0.38024632  1
  V  V81  1  -0.00527717  0.13189055  0.62423488  1
  V  V82  1  0.87341708  0.35935298  0.50103509  1
  V  V83  1  0.86924727  0.88019046  0.00164042  1
  V  V84  1  0.35700200  0.75627118  0.12736311  1
  Zn  Zn85  1  0.62932774  0.74405956  0.37143721  1
  Zn  Zn86  1  0.62820909  0.49874358  0.12614860  1
  Zn  Zn87  1  0.13091332  0.37258931  0.24343712  1
  Zn  Zn88  1  0.49031591  0.00150150  -0.01085072  1
  Zn  Zn89  1  0.00272383  0.87577951  0.37548030  1
  Zn  Zn90  1  0.49913977  0.12707928  0.12815016  1
  Zn  Zn91  1  0.12283227  0.87555481  0.75113912  1
  Zn  Zn92  1  -0.00207982  0.75383765  0.74467479  1
  Zn  Zn93  1  0.12593253  -0.00572503  0.12026492  1
  Zn  Zn94  1  0.75417011  0.37654534  0.12768152  1
  Zn  Zn95  1  0.38295436  0.61534596  0.75683418  1
  Zn  Zn96  1  0.50526739  0.62547121  0.63028509  1
  Zn  Zn97  1  0.39083322  0.11083381  0.76750547  1
  Zn  Zn98  1  0.75362099  0.11105044  0.87613315  1
  Zn  Zn99  1  0.49189019  0.88336836  0.87431344  1
  Zn  Zn100  1  0.24872355  0.73344743  0.50031310  1
  Zn  Zn101  1  0.37253992  0.24511569  0.62881603  1
  Zn  Zn102  1  -0.00184436  0.62281729  0.12559918  1
  Zn  Zn103  1  0.50236637  0.74716041  0.75241302  1
  Zn  Zn104  1  0.37055862  0.37400605  0.01027103  1
  Zn  Zn105  1  0.12390000  0.12439770  0.49970749  1
  Zn  Zn106  1  0.49568554  0.74486299  0.25362197  1
  Zn  Zn107  1  0.18303393  0.18158340  0.18672311  1
  Zn  Zn108  1  0.18370262  0.18770476  0.69180903  1
  Zn  Zn109  1  0.18442181  0.67915138  0.19147297  1
  Zn  Zn110  1  0.19028547  0.69258271  0.69673256  1
  Zn  Zn111  1  0.68781450  0.18607267  0.18477305  1
  Zn  Zn112  1  0.68568348  0.18616965  0.68651247  1
  Zn  Zn113  1  0.68671276  0.68420620  0.18746670  1
  Zn  Zn114  1  0.69329893  0.68838816  0.68787449  1
  Zn  Zn115  1  0.30541805  0.31883656  0.31610598  1
  Zn  Zn116  1  0.31166037  0.30721632  0.81336638  1
  Zn  Zn117  1  0.31164773  0.80645808  0.31001907  1
  Zn  Zn118  1  0.30796199  0.81199553  0.81373418  1
  Zn  Zn119  1  0.81459182  0.31468780  0.31298976  1
  Zn  Zn120  1  0.81765011  0.30943872  0.81460821  1
  Zn  Zn121  1  0.81228759  0.81273064  0.31571688  1
  Zn  Zn122  1  0.81284006  0.93451896  0.81424377  1
  Zn  Zn123  1  0.18829449  0.43260653  0.42748320  1
  Zn  Zn124  1  0.18491438  0.43719889  0.93613115  1
  Zn  Zn125  1  0.18564639  0.93259784  0.43386755  1
  Zn  Zn126  1  0.18569778  0.94129421  0.93621986  1
  Zn  Zn127  1  0.69036666  0.43010704  0.43538949  1
  Zn  Zn128  1  0.68510930  0.43845411  0.93813016  1
  Zn  Zn129  1  0.68962007  0.93945341  0.43503629  1
  Zn  Zn130  1  0.68296720  0.93611726  0.94215287  1
  Zn  Zn131  1  0.31081901  0.06309325  0.06046854  1
  Zn  Zn132  1  0.31482941  0.06074185  0.56250548  1
  Zn  Zn133  1  0.31219698  0.56568917  0.06436159  1
  Zn  Zn134  1  0.33079545  0.55814009  0.56922967  1
  Zn  Zn135  1  0.80890310  0.06131262  0.06247443  1
  Zn  Zn136  1  0.81396902  0.06452672  0.56214196  1
  Zn  Zn137  1  0.81373012  0.56054075  0.07018726  1
  Zn  Zn138  1  0.81424828  0.55909601  0.56361231  1
  Zn  Zn139  1  0.43990055  0.46251766  0.19262063  1
  Zn  Zn140  1  0.43634060  0.43563025  0.68537778  1
  Zn  Zn141  1  0.43721942  0.93287065  0.18325810  1
  Zn  Zn142  1  0.44248339  0.93468609  0.69004337  1
  Zn  Zn143  1  0.93520298  0.44177058  0.18346666  1
  Zn  Zn144  1  0.94088379  0.44206453  0.68135520  1
  Zn  Zn145  1  0.93937415  0.93575807  0.18331297  1
  Zn  Zn146  1  0.94079855  0.93896070  0.68329379  1
  Zn  Zn147  1  0.06154233  0.06122842  0.30965245  1
  Zn  Zn148  1  0.06530774  0.06333810  0.81184396  1
  Zn  Zn149  1  0.06353483  0.56268910  0.31004035  1
  Zn  Zn150  1  0.06583140  0.56021058  0.80999917  1
  Zn  Zn151  1  0.56265229  0.06335064  0.31225425  1
  Zn  Zn152  1  0.56975992  0.05829477  0.81535914  1
  Zn  Zn153  1  0.56333067  0.55369309  0.31360426  1
  Zn  Zn154  1  0.56551818  0.56184127  0.81414955  1
  Zn  Zn155  1  0.43534437  0.18295594  0.43679067  1
  Zn  Zn156  1  0.43575758  0.19059430  0.94211501  1
  Zn  Zn157  1  0.44480770  0.69033522  0.44769026  1
  Zn  Zn158  1  0.43602508  0.69810367  0.94392219  1
  Zn  Zn159  1  0.93701049  0.18617361  0.43218552  1
  Zn  Zn160  1  0.93608242  0.19085586  0.93108022  1
  Zn  Zn161  1  0.94156309  0.69049560  0.43804348  1
  Zn  Zn162  1  0.93709784  0.69066366  0.93628524  1
  Zn  Zn163  1  0.06334017  0.31135653  0.05832997  1
  Zn  Zn164  1  0.06078471  0.31324616  0.56098770  1
  Zn  Zn165  1  0.06133195  0.81098947  0.06409562  1
  Zn  Zn166  1  0.06335008  0.81059482  0.56170550  1
  Zn  Zn167  1  0.56983867  0.31910455  0.05813168  1
  Zn  Zn168  1  0.56472239  0.31328554  0.56545076  1
  Zn  Zn169  1  0.55556573  0.81603160  0.05932033  1
  Zn  Zn170  1  0.56656623  0.80983811  0.56306143  1
  O  O171  1  0.11023261  0.12167325  0.11711873  1
  O  O172  1  0.11874037  0.11698693  0.62344878  1
  O  O173  1  0.12142825  0.61528233  0.11668388  1
  O  O174  1  0.12005850  0.62051700  0.63088857  1
  O  O175  1  0.62295920  0.11759336  0.11795176  1
  O  O176  1  0.61924895  0.11730424  0.61879363  1
  O  O177  1  0.61614190  0.62581830  0.11315306  1
  O  O178  1  0.63080190  0.61186902  0.62041237  1
  O  O179  1  0.37937010  0.37864276  0.38717003  1
  O  O180  1  0.38725995  0.36903169  0.87606120  1
  O  O181  1  0.38187946  0.87689305  0.37974572  1
  O  O182  1  0.37338399  0.86320122  0.89132421  1
  O  O183  1  0.88373887  0.37023511  0.38742828  1
  O  O184  1  0.88794817  0.37412348  0.88266812  1
  O  O185  1  0.87766798  0.88275678  0.38301363  1
  O  O186  1  0.88722917  0.87434506  0.88551085  1
  O  O187  1  0.25431979  0.00414479  0.36763007  1
  O  O188  1  0.24416012  0.01198936  0.86442847  1
  O  O189  1  0.26480288  0.50028573  0.37505757  1
  O  O190  1  0.24706969  0.50940807  0.86885096  1
  O  O191  1  0.75575078  0.00626779  0.36223007  1
  O  O192  1  0.74672166  -0.00131842  0.87616169  1
  O  O193  1  0.75027891  0.49602982  0.36098208  1
  O  O194  1  0.74296912  0.50866687  0.86609664  1
  O  O195  1  0.24540325  0.50392569  0.13706995  1
  O  O196  1  0.23968284  0.49559285  0.62466885  1
  O  O197  1  0.24427949  1.00762460  0.13837048  1
  O  O198  1  0.24281023  0.99599753  0.62898824  1
  O  O199  1  0.74707967  0.49597344  0.13620256  1
  O  O200  1  0.74611318  0.49053709  0.63388083  1
  O  O201  1  0.73864439  1.00474101  0.13733200  1
  O  O202  1  0.74012705  0.99037185  0.61723799  1
  O  O203  1  -0.00321650  0.36909740  0.25517917  1
  O  O204  1  0.00298064  0.37132702  0.75286987  1
  O  O205  1  0.00486584  0.86641318  0.25174983  1
  O  O206  1  0.00039077  0.87584723  0.75889003  1
  O  O207  1  0.50083967  0.36869557  0.25288205  1
  O  O208  1  0.50510034  0.36889981  0.75488993  1
  O  O209  1  0.50828804  0.87337309  0.25774152  1
  O  O210  1  0.51518186  0.86938558  0.75161623  1
  O  O211  1  0.48760405  0.12421126  0.25093601  1
  O  O212  1  0.50486616  0.13156284  0.74223445  1
  O  O213  1  0.50576072  0.62189921  0.23487405  1
  O  O214  1  0.49970758  0.62714346  0.74922580  1
  O  O215  1  0.99308339  0.13011835  0.24066496  1
  O  O216  1  0.99423008  0.13036584  0.74469284  1
  O  O217  1  0.99141328  0.63190857  0.24845845  1
  O  O218  1  0.99140764  0.62022351  0.74345215  1
  O  O219  1  0.35855950  0.25266311  0.00236186  1
  O  O220  1  0.36791010  0.25507595  0.50257665  1
  O  O221  1  0.37469696  0.76160506  0.01695309  1
  O  O222  1  0.36910131  0.75320370  0.51149539  1
  O  O223  1  0.86503918  0.25832235  -0.00830398  1
  O  O224  1  0.88154810  0.26032031  0.50144108  1
  O  O225  1  0.86804196  0.75621132  0.00680697  1
  O  O226  1  0.87106511  0.76293591  0.49691203  1
  O  O227  1  0.12850104  0.24741084  0.49057188  1
  O  O228  1  0.13390247  0.23898130  1.00194443  1
  O  O229  1  0.12895215  0.75469334  0.48489861  1
  O  O230  1  0.11734122  0.73680546  0.99512428  1
  O  O231  1  0.62309714  0.23673484  0.50403827  1
  O  O232  1  0.63129103  0.24440996  0.99245127  1
  O  O233  1  0.63425427  0.73855645  0.49950059  1
  O  O234  1  0.63052871  0.74451983  0.99809819  1
  O  O235  1  0.50167966  0.24915237  0.12707231  1
  O  O236  1  0.50091851  0.24256341  0.63387198  1
  O  O237  1  0.49970548  0.73779996  0.12644985  1
  O  O238  1  0.49199991  0.74908998  0.62634566  1
  O  O239  1  1.00322058  0.24446894  0.13465470  1
  O  O240  1  1.00552984  0.23717319  0.63001114  1
  O  O241  1  0.99292371  0.74748842  0.13689858  1
  O  O242  1  1.00672418  0.73395941  0.62537864  1
  O  O243  1  0.00428825  0.25453832  0.36271020  1
  O  O244  1  0.00117023  0.25934036  0.86406260  1
  O  O245  1  0.00816610  0.75337416  0.36513174  1
  O  O246  1  0.00796906  0.75847882  0.87429014  1
  O  O247  1  0.49599779  0.26131148  0.37956324  1
  O  O248  1  0.50962242  0.25462274  0.87035315  1
  O  O249  1  0.50343103  0.76003416  0.37547261  1
  O  O250  1  0.51539274  0.75046956  0.87671059  1
  O  O251  1  0.24947304  0.12946643  0.49287193  1
  O  O252  1  0.24319741  0.13173351  0.99252993  1
  O  O253  1  0.23648698  0.61185137  0.51753214  1
  O  O254  1  0.23952636  0.61882357  0.99242969  1
  O  O255  1  0.74221965  0.11874518  0.48973621  1
  O  O256  1  0.74095212  0.13224473  0.99875294  1
  O  O257  1  0.74617172  0.63302041  0.50688073  1
  O  O258  1  0.74338161  0.62582905  0.99707352  1
  O  O259  1  0.24866961  0.36075056  -0.00346817  1
  O  O260  1  0.25435290  0.36855331  0.50501259  1
  O  O261  1  0.25909988  0.87857142  -0.00138522  1
  O  O262  1  0.25610462  0.87821971  0.51188543  1
  O  O263  1  0.75754258  0.36910034  -0.00234556  1
  O  O264  1  0.76541001  0.37716487  0.50605652  1
  O  O265  1  0.75833069  0.86471078  -0.00147335  1
  O  O266  1  0.75679604  0.87018592  0.50597166  1
  O  O267  1  0.13062029  0.49828530  0.24035467  1
  O  O268  1  0.13623303  0.48565515  0.75038175  1
  O  O269  1  0.13175213  0.99137889  0.24980736  1
  O  O270  1  0.13393861  0.99972090  0.73903093  1
  O  O271  1  0.63650289  0.49247623  0.24915240  1
  O  O272  1  0.63521545  0.49462953  0.74346907  1
  O  O273  1  0.63198884  0.99369203  0.24488829  1
  O  O274  1  0.62560558  0.99193384  0.73747320  1
  O  O275  1  0.36816124  0.00387863  0.25318840  1
  O  O276  1  0.36185154  0.00063168  0.74076907  1
  O  O277  1  0.36549368  0.50431932  0.26496204  1
  O  O278  1  0.35664870  0.49750306  0.74046819  1
  O  O279  1  0.86922673  0.00680998  0.24980935  1
  O  O280  1  0.87765911  0.01034269  0.74973035  1
  O  O281  1  0.86373548  0.50872986  0.24631659  1
  O  O282  1  0.86600533  0.50442078  0.74828738  1
  O  O283  1  0.11422951  0.36222656  0.37260802  1
  O  O284  1  0.11168629  0.37736982  0.86643184  1
  O  O285  1  0.12246087  0.86547077  0.36309050  1
  O  O286  1  0.11420532  0.86838479  0.87785633  1
  O  O287  1  0.61253293  0.38087951  0.36551147  1
  O  O288  1  0.61758968  0.36762332  0.86935758  1
  O  O289  1  0.61831320  0.87540565  0.36490673  1
  O  O290  1  0.62692617  0.86575716  0.86725790  1
  O  O291  1  0.37524073  0.12390475  0.13764815  1
  O  O292  1  0.39133135  0.12388777  0.62419875  1
  O  O293  1  0.38745876  0.63687665  0.11911822  1
  O  O294  1  0.38069579  0.63448702  0.63210186  1
  O  O295  1  0.88555712  0.12146696  0.12969526  1
  O  O296  1  0.88407046  0.11930150  0.63648148  1
  O  O297  1  0.87686701  0.63810795  0.13238145  1
  O  O298  1  0.88247098  0.62028015  0.63505444  1
  O  O299  1  0.24489088  0.24678268  0.11327982  1
  O  O300  1  0.25148231  0.25504233  0.62173108  1
  O  O301  1  0.25889489  0.74261538  0.13024760  1
  O  O302  1  0.25469895  0.75819784  0.62339174  1
  O  O303  1  0.74706045  0.25367928  0.11071306  1
  O  O304  1  0.74552503  0.26428112  0.62936833  1
  O  O305  1  0.75577496  0.74383203  0.11401337  1
  O  O306  1  0.74665770  0.76286497  0.61447020  1
  O  O307  1  0.24013716  0.24455351  0.37862004  1
  O  O308  1  0.24709782  0.23758844  0.88025455  1
  O  O309  1  0.23866189  0.74856751  0.37867371  1
  O  O310  1  0.23419752  0.74184061  0.87084362  1
  O  O311  1  0.75544425  0.23604383  0.37262030  1
  O  O312  1  0.73914240  0.25036332  0.88019835  1
  O  O313  1  0.74695843  0.75486430  0.39115899  1
  O  O314  1  0.73777222  0.73640848  0.89131999  1
  O  O315  1  0.00243914  0.12211297  0.00131667  1
  O  O316  1  -0.00165747  0.11892626  0.50689326  1
  O  O317  1  0.00485525  0.61809203  -0.00092378  1
  O  O318  1  -0.00471192  0.61665417  0.50664837  1
  O  O319  1  0.51100636  0.12544288  0.00327637  1
  O  O320  1  0.50739010  0.11852663  0.50515721  1
  O  O321  1  0.50486620  0.62057237  0.00421362  1
  O  O322  1  0.51319171  0.61629006  0.50740911  1
  O  O323  1  0.49432397  0.37796406  0.49567936  1
  O  O324  1  0.49798333  0.38288032  0.99235409  1
  O  O325  1  0.49769412  0.87797365  0.49308402  1
  O  O326  1  0.48753617  0.87956727  0.99654687  1
  O  O327  1  0.99094986  0.37959268  0.49429254  1
  O  O328  1  0.99495688  0.37977637  0.99218910  1
  O  O329  1  0.99221413  0.88173430  0.50128959  1
  O  O330  1  0.99335810  0.88276182  0.99625290  1
  O  O331  1  0.48729046  0.49072796  0.37884479  1
  O  O332  1  0.50377695  0.49094884  0.88292995  1
  O  O333  1  0.49517914  0.98845694  0.37838053  1
  O  O334  1  0.49699620  0.99916190  0.87345981  1
  O  O335  1  1.00682295  0.48811593  0.38045883  1
  O  O336  1  1.00471852  0.49393498  0.88578182  1
  O  O337  1  0.99326335  1.00011196  0.38083811  1
  O  O338  1  1.00456911  0.99424458  0.88626098  1
  O  O339  1  0.00074025  0.00729403  0.11212920  1
  O  O340  1  0.00971970  0.00926516  0.62031233  1
  O  O341  1  0.00751061  0.50205790  0.11315500  1
  O  O342  1  0.00438823  0.51111669  0.61338998  1
  O  O343  1  0.51179581  0.00316276  0.12672520  1
  O  O344  1  0.51019429  0.00538805  0.62078536  1
  O  O345  1  0.50424051  0.51498439  0.11677098  1
  O  O346  1  0.51185895  0.49626709  0.61808200  1
  O  O347  1  0.24424233  0.39591248  0.26101116  1
  O  O348  1  0.24374988  0.37581928  0.74446485  1
  O  O349  1  0.24244466  0.88402018  0.25541416  1
  O  O350  1  0.24745399  0.88318689  0.73992606  1
  O  O351  1  0.74634788  0.38270404  0.25042616  1
  O  O352  1  0.74948592  0.38003330  0.74659344  1
  O  O353  1  0.74188668  0.88313641  0.25408237  1
  O  O354  1  0.74175048  0.87436110  0.74072376  1
  O  O355  1  0.25529136  0.11861481  0.25629376  1
  O  O356  1  0.25209145  0.12188596  0.76108504  1
  O  O357  1  0.24225438  0.60687193  0.25974924  1
  O  O358  1  0.24997626  0.61530320  0.76044074  1
  O  O359  1  0.75715654  0.11962980  0.25313341  1
  O  O360  1  0.76481319  0.12929262  0.74788718  1
  O  O361  1  0.75468311  0.61298038  0.24940862  1
  O  O362  1  0.75667966  0.61777264  0.75806798  1
  O  O363  1  0.36955683  0.11669203  0.36651869  1
  O  O364  1  0.35983140  0.12673212  0.87929247  1
  O  O365  1  0.38010857  0.61418657  0.38711973  1
  O  O366  1  0.36192268  0.63598744  0.87671607  1
  O  O367  1  0.86999017  0.11794927  0.36477582  1
  O  O368  1  0.87372028  0.12682634  0.85776061  1
  O  O369  1  0.87654565  0.63174303  0.36292730  1
  O  O370  1  0.86346763  0.62686118  0.87189488  1
  O  O371  1  0.12147534  0.38797872  0.12286933  1
  O  O372  1  0.13556938  0.37205081  0.62928810  1
  O  O373  1  0.12001381  0.87491490  0.13917556  1
  O  O374  1  0.13232758  0.88297972  0.62521847  1
  O  O375  1  0.62674565  0.37853941  0.13676149  1
  O  O376  1  0.63359066  0.38381591  0.63005588  1
  O  O377  1  0.62073890  0.88064319  0.13605439  1
  O  O378  1  0.63279166  0.88076835  0.63059003  1
  O  O379  1  0.11651055  0.25156559  0.25477567  1
  O  O380  1  0.11328458  0.26304834  0.74490414  1
  O  O381  1  0.11865757  0.75315435  0.25603573  1
  O  O382  1  0.11869525  0.75470737  0.76093959  1
  O  O383  1  0.63243360  0.26186010  0.25052121  1
  O  O384  1  0.61714172  0.25440508  0.75615366  1
  O  O385  1  0.62359593  0.75615566  0.25230438  1
  O  O386  1  0.62972549  0.75588546  0.75928540  1
  O  O387  1  0.37379572  0.24581462  0.25167866  1
  O  O388  1  0.38905853  0.24528739  0.74991602  1
  O  O389  1  0.37930510  0.75372393  0.23434627  1
  O  O390  1  0.37545597  0.75168267  0.73962946  1
  O  O391  1  0.88132010  0.23814740  0.25132424  1
  O  O392  1  0.88757150  0.24150083  0.74883923  1
  O  O393  1  0.87915276  0.74697779  0.24543825  1
  O  O394  1  0.87804051  0.73508426  0.75222020  1
  O  O395  1  0.38154876  0.49090536  0.49267406  1
  O  O396  1  0.38573439  0.49391144  1.00847317  1
  O  O397  1  0.38310014  0.99284194  0.49397507  1
  O  O398  1  0.37410035  0.98340646  1.01108347  1
  O  O399  1  0.88540472  0.49091663  0.49984120  1
  O  O400  1  0.88385108  0.49398997  1.00209291  1
  O  O401  1  0.87939503  0.99200967  0.49425217  1
  O  O402  1  0.87990550  0.98849169  1.00670938  1
  O  O403  1  0.11660065  0.01132494  0.00150249  1
  O  O404  1  0.11994487  0.00050066  0.50766163  1
  O  O405  1  0.11880943  0.50819964  0.00464996  1
  O  O406  1  0.11764711  0.49636574  0.49977209  1
  O  O407  1  0.62305221  0.00762795  0.01048020  1
  O  O408  1  0.61978613  0.00340971  0.50678812  1
  O  O409  1  0.61455359  0.50781713  0.00181943  1
  O  O410  1  0.62721407  0.50243684  0.50686308  1
  O  O411  1  0.39011561  0.36791710  0.13724407  1
  O  O412  1  0.36319839  0.37408531  0.61392836  1
  O  O413  1  0.37235283  0.86278224  0.11908413  1
  O  O414  1  0.36947975  0.86932700  0.62043470  1
  O  O415  1  0.87633773  0.37468355  0.10892704  1
  O  O416  1  0.87136253  0.37713344  0.61192021  1
  O  O417  1  0.87847903  0.86129619  0.11658223  1
  O  O418  1  0.86637946  0.88163139  0.61660678  1
  O  O419  1  0.12713615  0.13491637  0.37410455  1
  O  O420  1  0.13519447  0.12360741  0.88267078  1
  O  O421  1  0.11951553  0.64060466  0.37374833  1
  O  O422  1  0.12976262  0.63158405  0.88137938  1
  O  O423  1  0.63420726  0.11855733  0.38384478  1
  O  O424  1  0.62968960  0.13393334  0.88248937  1
  O  O425  1  0.62110668  0.62186782  0.38793939  1
  O  O426  1  0.63176049  0.62892644  0.88650374  1
