# generated using pymatgen
data_V85Zn86O256
_symmetry_space_group_name_H-M   'P 1'
_cell_length_a   16.99510297
_cell_length_b   16.97756500
_cell_length_c   16.97376454
_cell_angle_alpha   90.03556945
_cell_angle_beta   90.06798910
_cell_angle_gamma   89.91820295
_symmetry_Int_Tables_number   1
_chemical_formula_structural   V85Zn86O256
_chemical_formula_sum   'V85 Zn86 O256'
_cell_volume   4897.52367487
_cell_formula_units_Z   1
loop_
 _symmetry_equiv_pos_site_id
 _symmetry_equiv_pos_as_xyz
  1  'x, y, z'
loop_
 _atom_site_type_symbol
 _atom_site_label
 _atom_site_symmetry_multiplicity
 _atom_site_fract_x
 _atom_site_fract_y
 _atom_site_fract_z
 _atom_site_occupancy
  V  V0  1  0.74679689  0.12325392  0.86867348  1
  V  V1  1  0.49713028  0.25114115  0.74633938  1
  V  V2  1  0.75438403  0.74437598  0.49386367  1
  V  V3  1  0.74719180  0.87508230  0.13538038  1
  V  V4  1  0.12484994  0.87371822  0.25348701  1
  V  V5  1  0.12487911  0.12649034  0.50719602  1
  V  V6  1  0.48604309  0.48949466  0.48780697  1
  V  V7  1  0.62196645  -0.00164721  0.62161054  1
  V  V8  1  0.87166798  0.62261010  0.25341395  1
  V  V9  1  0.25484089  0.11952280  0.37972424  1
  V  V10  1  0.75770664  0.50396626  0.74649169  1
  V  V11  1  0.23581225  0.37354672  0.62664168  1
  V  V12  1  0.56511065  0.93241885  0.30907797  1
  V  V13  1  0.25172325  0.75085025  0.49775044  1
  V  V14  1  0.25331372  0.88289127  0.62622857  1
  V  V15  1  0.24956563  0.87076921  0.12571262  1
  V  V16  1  0.12434959  0.38731635  0.23294528  1
  V  V17  1  0.49608033  0.12121678  0.61930340  1
  V  V18  1  0.87911004  0.12613323  0.74967636  1
  V  V19  1  0.77455801  0.36595547  0.61745036  1
  V  V20  1  0.36825949  0.25792474  0.62638152  1
  V  V21  1  0.00027993  0.50040577  0.50467549  1
  V  V22  1  0.25757087  -0.00099936  0.25393254  1
  V  V23  1  -0.01162616  0.74874707  0.74691366  1
  V  V24  1  0.24641713  0.12366179  0.87072777  1
  V  V25  1  0.12304181  0.25185486  0.37725157  1
  V  V26  1  0.12397928  0.12416717  0.00050377  1
  V  V27  1  0.50063281  0.87293825  0.87275123  1
  V  V28  1  0.00093262  0.24803490  0.75341283  1
  V  V29  1  0.00206338  0.74751823  0.24945037  1
  V  V30  1  0.62603425  0.36516975  0.26547243  1
  V  V31  1  0.62455914  0.12560989  -0.00231487  1
  V  V32  1  0.25021013  0.74654790  -0.00431553  1
  V  V33  1  0.74925354  0.37161863  0.12436366  1
  V  V34  1  0.49787703  0.62362667  0.62352492  1
  V  V35  1  0.36817462  -0.00162070  0.86741231  1
  V  V36  1  0.74931396  0.50009572  0.25833688  1
  V  V37  1  0.75057348  0.75163380  0.00028436  1
  V  V38  1  0.12944362  0.87997918  0.74979383  1
  V  V39  1  0.11905801  0.38091586  0.75437885  1
  V  V40  1  0.49894909  0.00089709  -0.00393558  1
  V  V41  1  0.37429488  0.87190340  -0.00276788  1
  V  V42  1  -0.01795940  0.62881546  0.62910084  1
  V  V43  1  0.48868254  0.13188856  0.11914656  1
  V  V44  1  0.62542266  0.37617911  0.74598688  1
  V  V45  1  0.49698201  0.25308524  0.25273972  1
  V  V46  1  0.87645749  0.24301449  0.12150154  1
  V  V47  1  0.61209656  0.74717417  0.36607331  1
  V  V48  1  0.00162658  -0.00361594  0.51016049  1
  V  V49  1  0.12538705  0.26321128  0.87966483  1
  V  V50  1  0.37560974  0.37272617  0.01332854  1
  V  V51  1  0.36952242  0.12305888  0.74808564  1
  V  V52  1  0.25030214  0.60772428  0.37366443  1
  V  V53  1  0.24536476  0.50529410  0.74589206  1
  V  V54  1  0.00436040  0.61322127  0.12326455  1
  V  V55  1  0.74893201  0.24810598  -0.00338628  1
  V  V56  1  0.37363833  0.62483256  0.75440052  1
  V  V57  1  0.12729878  0.74361183  0.87312010  1
  V  V58  1  0.87407405  -0.00200617  0.87727268  1
  V  V59  1  0.00539297  0.24694496  0.24013187  1
  V  V60  1  0.87396307  0.74848230  0.12669670  1
  V  V61  1  0.36603706  0.49881805  0.87348902  1
  V  V62  1  0.62704333  0.49513042  0.12488611  1
  V  V63  1  0.87999905  0.12077767  0.24613118  1
  V  V64  1  0.30279839  0.30784342  0.45081673  1
  V  V65  1  0.87646103  -0.00636281  0.37733400  1
  V  V66  1  0.12035489  0.00317957  0.12777699  1
  V  V67  1  0.87788812  0.37688699  -0.01073075  1
  V  V68  1  0.75766290  0.14202954  0.38455886  1
  V  V69  1  0.49801404  0.37719107  0.87280147  1
  V  V70  1  0.75802592  0.86747431  0.62450877  1
  V  V71  1  0.62390617  0.62465875  0.49249315  1
  V  V72  1  0.62414328  0.87264417  0.74735829  1
  V  V73  1  0.12857499  0.61700815  0.00257107  1
  V  V74  1  0.00054991  0.87229163  0.87638994  1
  V  V75  1  0.87620341  0.49610912  0.37948473  1
  V  V76  1  0.62287946  -0.00229500  0.12439518  1
  V  V77  1  0.50496865  0.63288971  0.13254556  1
  V  V78  1  0.62739143  0.62203425  -0.00250718  1
  V  V79  1  0.75609841  0.62540726  0.86926663  1
  V  V80  1  0.62635362  0.49787503  0.62000640  1
  V  V81  1  0.12610610  0.62603206  0.51426023  1
  V  V82  1  0.25592909  0.25095070  0.01355933  1
  V  V83  1  0.38044076  0.87969070  0.48527158  1
  V  V84  1  -0.00037961  0.00278838  0.00476655  1
  Zn  Zn85  1  0.00920118  0.49106075  -0.00904299  1
  Zn  Zn86  1  0.50040218  -0.00423545  0.48769915  1
  Zn  Zn87  1  0.38481748  0.75197225  0.13270453  1
  Zn  Zn88  1  0.37528744  0.75116639  0.62492860  1
  Zn  Zn89  1  0.00004498  0.87122498  0.37799835  1
  Zn  Zn90  1  0.38484103  0.62163747  0.26300504  1
  Zn  Zn91  1  0.87515548  0.87436420  0.00301144  1
  Zn  Zn92  1  0.62421466  0.24846465  0.86832977  1
  Zn  Zn93  1  -0.00037585  0.37628087  0.37395152  1
  Zn  Zn94  1  0.75064505  -0.00294141  0.74817188  1
  Zn  Zn95  1  0.12529481  0.00538389  0.63240567  1
  Zn  Zn96  1  0.62471288  0.74769589  0.87189917  1
  Zn  Zn97  1  0.26741868  0.49555458  0.22631007  1
  Zn  Zn98  1  0.12507535  0.74683237  0.37601603  1
  Zn  Zn99  1  0.74729032  0.00073622  0.25655869  1
  Zn  Zn100  1  0.88137386  0.86564878  0.50355699  1
  Zn  Zn101  1  0.37046585  0.12954315  0.24627842  1
  Zn  Zn102  1  0.49936258  0.74774248  0.74817126  1
  Zn  Zn103  1  0.62917693  0.12966655  0.49289380  1
  Zn  Zn104  1  0.50141456  0.49916434  -0.00151247  1
  Zn  Zn105  1  -0.05908823  0.17219087  0.58726257  1
  Zn  Zn106  1  0.88101239  0.50137933  0.86820272  1
  Zn  Zn107  1  0.18519137  0.18361913  0.18864230  1
  Zn  Zn108  1  0.18518605  0.19186800  0.68904321  1
  Zn  Zn109  1  0.19133133  0.68213152  0.18764543  1
  Zn  Zn110  1  0.18944771  0.69379292  0.68846563  1
  Zn  Zn111  1  0.68915425  0.18370480  0.18951477  1
  Zn  Zn112  1  0.67025070  0.20960871  0.64650865  1
  Zn  Zn113  1  0.68745777  0.68496858  0.18945338  1
  Zn  Zn114  1  0.68694497  0.68730635  0.68322356  1
  Zn  Zn115  1  0.31210290  0.31780837  0.28186630  1
  Zn  Zn116  1  0.30729492  0.31393139  0.81586219  1
  Zn  Zn117  1  0.31705012  0.80138155  0.31151247  1
  Zn  Zn118  1  0.31140963  0.80941023  0.80966583  1
  Zn  Zn119  1  0.81849227  0.31535956  0.30855343  1
  Zn  Zn120  1  0.80771879  0.30914311  0.80343485  1
  Zn  Zn121  1  0.80981309  0.80960131  0.31707962  1
  Zn  Zn122  1  0.81064384  0.81343039  0.81477802  1
  Zn  Zn123  1  0.17174502  0.43942446  0.43809747  1
  Zn  Zn124  1  0.19278710  0.43731072  1.05822272  1
  Zn  Zn125  1  0.18799553  0.93769503  0.43910838  1
  Zn  Zn126  1  0.18631164  0.93519141  0.93655757  1
  Zn  Zn127  1  0.69165276  0.43374305  0.44240555  1
  Zn  Zn128  1  0.69137859  0.43675130  0.93322407  1
  Zn  Zn129  1  0.69312730  0.93794489  0.44322839  1
  Zn  Zn130  1  0.68730291  0.93512580  0.93924540  1
  Zn  Zn131  1  0.30823894  0.05792923  0.05729615  1
  Zn  Zn132  1  0.31221399  0.05901919  0.55871936  1
  Zn  Zn133  1  0.32065462  0.56611216  0.05704781  1
  Zn  Zn134  1  0.31121942  0.56038943  0.56530489  1
  Zn  Zn135  1  0.80941798  0.06127204  0.06212573  1
  Zn  Zn136  1  0.80886576  0.05146726  0.56146266  1
  Zn  Zn137  1  0.81218905  0.56120493  0.06538568  1
  Zn  Zn138  1  0.81031472  0.56207958  0.56085237  1
  Zn  Zn139  1  0.44546698  0.44399810  0.19434444  1
  Zn  Zn140  1  0.43569067  0.43956462  0.68110937  1
  Zn  Zn141  1  0.43329871  0.94154635  0.18034993  1
  Zn  Zn142  1  0.43517905  0.93588550  0.68544882  1
  Zn  Zn143  1  0.93658040  0.43358471  0.18372620  1
  Zn  Zn144  1  0.94585684  0.44309898  0.69006027  1
  Zn  Zn145  1  0.93689995  0.93444165  0.18820846  1
  Zn  Zn146  1  0.93863757  0.93617406  0.69102536  1
  Zn  Zn147  1  0.06227320  0.06216593  0.31693737  1
  Zn  Zn148  1  0.06139157  0.06195718  0.81651539  1
  Zn  Zn149  1  0.06443683  0.56606988  0.31846999  1
  Zn  Zn150  1  0.06044575  0.56318337  0.81395355  1
  Zn  Zn151  1  0.55936433  0.10553765  0.32061253  1
  Zn  Zn152  1  0.56047049  0.06039732  0.80578973  1
  Zn  Zn153  1  0.56495277  0.55811868  0.31456281  1
  Zn  Zn154  1  0.56432614  0.56073262  0.81043882  1
  Zn  Zn155  1  0.43849981  0.18426844  0.43560358  1
  Zn  Zn156  1  0.43547138  0.19098018  0.93411482  1
  Zn  Zn157  1  0.43443244  0.68570269  0.43997674  1
  Zn  Zn158  1  0.43888665  0.68609620  0.93838887  1
  Zn  Zn159  1  0.94126234  0.18681830  0.42493895  1
  Zn  Zn160  1  0.94007621  0.18651663  0.93386425  1
  Zn  Zn161  1  0.93809450  0.68201739  0.43485205  1
  Zn  Zn162  1  0.94005963  0.68399540  0.93715529  1
  Zn  Zn163  1  0.05693837  0.30662088  0.05898858  1
  Zn  Zn164  1  0.02993701  0.30072545  0.54992507  1
  Zn  Zn165  1  0.06299135  0.81068987  0.06370335  1
  Zn  Zn166  1  0.06513539  0.81064284  0.56592356  1
  Zn  Zn167  1  0.56193450  0.31134431  0.06209143  1
  Zn  Zn168  1  0.55950787  0.31291785  0.55485125  1
  Zn  Zn169  1  0.56690771  0.81333269  0.06047038  1
  Zn  Zn170  1  0.56125462  0.80961469  0.55831825  1
  O  O171  1  0.12894921  0.10909715  0.11880518  1
  O  O172  1  0.13314160  0.12390962  0.61182203  1
  O  O173  1  0.11426663  0.63469307  0.11460662  1
  O  O174  1  0.12315849  0.63146154  0.61622302  1
  O  O175  1  0.62075801  0.11258541  0.11954554  1
  O  O176  1  0.61314093  0.10650192  0.63780582  1
  O  O177  1  0.62210395  0.61793148  0.11768171  1
  O  O178  1  0.61835020  0.61490121  0.61701666  1
  O  O179  1  0.35549940  0.35848882  0.38545866  1
  O  O180  1  0.38281055  0.38107396  0.87671629  1
  O  O181  1  0.36954131  0.87250481  0.38695129  1
  O  O182  1  0.38020072  0.88062008  0.87595192  1
  O  O183  1  0.88249557  0.39112156  0.36553746  1
  O  O184  1  0.86430170  0.37300293  0.88801091  1
  O  O185  1  0.87893886  0.88072396  0.37668263  1
  O  O186  1  0.87892484  0.88272685  0.88058173  1
  O  O187  1  0.24154739  0.00798820  0.36439876  1
  O  O188  1  0.25780784  0.00829987  0.88093936  1
  O  O189  1  0.24603062  0.50868581  0.38171551  1
  O  O190  1  0.26559367  0.49725082  0.85925072  1
  O  O191  1  0.76541473  0.00118662  0.37551666  1
  O  O192  1  0.75802794  0.00372829  0.87666559  1
  O  O193  1  0.75708559  0.49524751  0.36485290  1
  O  O194  1  0.75174232  0.50767276  0.86399717  1
  O  O195  1  0.24397082  0.51582744  0.11808053  1
  O  O196  1  0.25478796  0.48860337  0.63770811  1
  O  O197  1  0.24177321  0.98772567  0.12826383  1
  O  O198  1  0.24623491  0.98672990  0.62159606  1
  O  O199  1  0.74193966  0.49472831  0.13393060  1
  O  O200  1  0.74288224  0.49551633  0.62960205  1
  O  O201  1  0.74136252  0.99363357  0.12865264  1
  O  O202  1  0.73852431  0.98760848  0.62653229  1
  O  O203  1  0.00974064  0.36549722  0.24462647  1
  O  O204  1  0.01311732  0.37062273  0.75020581  1
  O  O205  1  0.00811059  0.86521723  0.25014334  1
  O  O206  1  0.00685462  0.86678535  0.75590555  1
  O  O207  1  0.50997412  0.35988698  0.24653800  1
  O  O208  1  0.50525390  0.37320473  0.75292339  1
  O  O209  1  0.50184338  0.88243941  0.25156805  1
  O  O210  1  0.50558994  0.87263070  0.75637155  1
  O  O211  1  0.49404471  0.13197120  0.23355753  1
  O  O212  1  0.49048590  0.12923535  0.74001082  1
  O  O213  1  0.50879852  0.62177625  0.23458528  1
  O  O214  1  0.49452350  0.62377554  0.74157821  1
  O  O215  1  0.98868178  0.13048162  0.25293569  1
  O  O216  1  0.99024815  0.13093210  0.75925499  1
  O  O217  1  0.99655585  0.62939596  0.24217622  1
  O  O218  1  1.00538359  0.63334807  0.73528820  1
  O  O219  1  0.36726012  0.25999530  -0.00529768  1
  O  O220  1  0.37072609  0.25031325  0.50564473  1
  O  O221  1  0.36741447  0.75540454  0.00060712  1
  O  O222  1  0.36832856  0.75958313  0.50291356  1
  O  O223  1  0.87127001  0.25448737  0.00359780  1
  O  O224  1  0.92913554  0.25315883  0.51194012  1
  O  O225  1  0.86354859  0.74806119  0.00624537  1
  O  O226  1  0.85872334  0.74632084  0.49059934  1
  O  O227  1  0.11372516  0.24095402  0.48669510  1
  O  O228  1  0.13125419  0.24414274  0.99584655  1
  O  O229  1  0.13256174  0.74376400  0.49832902  1
  O  O230  1  0.13158041  0.74725316  0.99256098  1
  O  O231  1  0.62929510  0.23119620  0.54072148  1
  O  O232  1  0.63084417  0.24231763  0.99534435  1
  O  O233  1  0.62966990  0.74240634  0.49119472  1
  O  O234  1  0.63729538  0.74219619  0.99810729  1
  O  O235  1  0.50611322  0.23852340  0.13152787  1
  O  O236  1  0.48538513  0.24208802  0.62895008  1
  O  O237  1  0.50784776  0.73691475  0.12111553  1
  O  O238  1  0.50038728  0.73479530  0.62446492  1
  O  O239  1  0.99215297  0.24532518  0.13154926  1
  O  O240  1  1.01256585  0.24436518  0.64994267  1
  O  O241  1  0.99322050  0.74527751  0.13498269  1
  O  O242  1  1.00109904  0.73979337  0.63290797  1
  O  O243  1  0.00912441  0.25192411  0.35547823  1
  O  O244  1  0.01477615  0.24593198  0.86992801  1
  O  O245  1  0.00234880  0.74712632  0.36125468  1
  O  O246  1  0.00675879  0.75434361  0.87022975  1
  O  O247  1  0.50724863  0.22531524  0.35236192  1
  O  O248  1  0.50147374  0.26105230  0.86515973  1
  O  O249  1  0.51303086  0.74580284  0.37829438  1
  O  O250  1  0.50211165  0.76242659  0.87487236  1
  O  O251  1  0.23926992  0.11742109  0.49040408  1
  O  O252  1  0.24511443  0.12910969  0.98999103  1
  O  O253  1  0.24353727  0.63073658  0.49890645  1
  O  O254  1  0.24431765  0.64073318  1.00173078  1
  O  O255  1  0.76074083  0.12428303  0.48711164  1
  O  O256  1  0.74483847  0.12806181  0.98909955  1
  O  O257  1  0.73899225  0.63678270  0.50551131  1
  O  O258  1  0.74225345  0.63014185  0.99710909  1
  O  O259  1  0.26183487  0.36342142  0.00307170  1
  O  O260  1  0.24344547  0.37373513  0.50620428  1
  O  O261  1  0.25313541  0.86821611  0.00728051  1
  O  O262  1  0.25745283  0.86972623  0.50534520  1
  O  O263  1  0.75542033  0.36623202  0.00441662  1
  O  O264  1  0.74987742  0.37560944  0.51984445  1
  O  O265  1  0.75037116  0.86618586  0.01007202  1
  O  O266  1  0.75230554  0.86266884  0.50798514  1
  O  O267  1  0.11528768  0.48542601  0.25086110  1
  O  O268  1  0.13418916  0.49295256  0.75671713  1
  O  O269  1  0.12844078  0.99352749  0.24361883  1
  O  O270  1  0.11822789  0.98491382  0.75226695  1
  O  O271  1  0.63261701  0.49057029  0.24501267  1
  O  O272  1  0.63312113  0.49502310  0.74059878  1
  O  O273  1  0.62348447  0.99651006  0.24659532  1
  O  O274  1  0.62571136  0.98540892  0.74449771  1
  O  O275  1  0.35961646  0.00312424  0.24329738  1
  O  O276  1  0.37758419  0.00447260  0.76141968  1
  O  O277  1  0.37683273  0.50857329  0.25063928  1
  O  O278  1  0.37069015  0.50692189  0.75253464  1
  O  O279  1  0.87646676  0.00627126  0.25635418  1
  O  O280  1  0.87548133  0.00283773  0.76487994  1
  O  O281  1  0.86808082  0.50426181  0.25107736  1
  O  O282  1  0.86103441  0.49704614  0.74944772  1
  O  O283  1  0.12197000  0.36403478  0.36379324  1
  O  O284  1  0.13129451  0.36353057  0.86935589  1
  O  O285  1  0.12370736  0.87358618  0.36211327  1
  O  O286  1  0.11967778  0.86695435  0.86981739  1
  O  O287  1  0.63347962  0.37315241  0.36422140  1
  O  O288  1  0.61954665  0.37552953  0.86075713  1
  O  O289  1  0.62190981  0.87152573  0.37204926  1
  O  O290  1  0.61702650  0.87488994  0.86722434  1
  O  O291  1  0.38646327  0.11700260  0.11810772  1
  O  O292  1  0.37740751  0.12953376  0.62830338  1
  O  O293  1  0.40194220  0.62641390  0.11225974  1
  O  O294  1  0.38292383  0.62499875  0.63428332  1
  O  O295  1  0.86887614  0.13454670  0.13029273  1
  O  O296  1  0.86895046  0.10913713  0.64469667  1
  O  O297  1  0.88171921  0.62941811  0.13306221  1
  O  O298  1  0.88386581  0.62891194  0.62411165  1
  O  O299  1  0.24960231  0.23943195  0.11256403  1
  O  O300  1  0.25640388  0.25896169  0.62768780  1
  O  O301  1  0.24618544  0.76149864  0.11789767  1
  O  O302  1  0.25099732  0.75960637  0.61315692  1
  O  O303  1  0.75655747  0.25064665  0.11753040  1
  O  O304  1  0.76767905  0.26746861  0.64159346  1
  O  O305  1  0.75182747  0.75599249  0.12021225  1
  O  O306  1  0.74025472  0.75773759  0.60964230  1
  O  O307  1  0.24469891  0.24880616  0.38222474  1
  O  O308  1  0.24261293  0.24145523  0.88346461  1
  O  O309  1  0.24542235  0.74784254  0.38913648  1
  O  O310  1  0.24024044  0.75839092  0.88458891  1
  O  O311  1  0.76716186  0.24037095  0.37724438  1
  O  O312  1  0.74526174  0.24010805  0.87724799  1
  O  O313  1  0.73697341  0.75567696  0.38963534  1
  O  O314  1  0.74685546  0.74470848  0.88311695  1
  O  O315  1  0.00686077  0.11046809  -0.00553610  1
  O  O316  1  0.00887264  0.11164365  0.50017192  1
  O  O317  1  0.01052052  0.62868343  0.00935971  1
  O  O318  1  0.00572191  0.62544069  0.51203266  1
  O  O319  1  0.50536351  0.12231161  0.00074409  1
  O  O320  1  0.49862568  0.11892652  0.51017500  1
  O  O321  1  0.51705738  0.62324511  0.00183741  1
  O  O322  1  0.50665426  0.61763498  0.50634869  1
  O  O323  1  0.50034228  0.39004638  0.50273170  1
  O  O324  1  0.49655157  0.37444174  0.98818807  1
  O  O325  1  0.48499934  0.87549089  0.50162510  1
  O  O326  1  0.49580666  0.87944649  0.99162652  1
  O  O327  1  1.01313630  0.39858594  0.49589183  1
  O  O328  1  0.98192822  0.37411247  1.00309294  1
  O  O329  1  1.00037607  0.87848787  0.49782413  1
  O  O330  1  0.99905635  0.88352212  0.99542410  1
  O  O331  1  0.50085475  0.50318906  0.38900048  1
  O  O332  1  0.49590210  0.48773504  0.87273604  1
  O  O333  1  0.51575098  1.00331317  0.36606599  1
  O  O334  1  0.49334871  0.99019039  0.87723093  1
  O  O335  1  0.99268673  0.50373353  0.38406159  1
  O  O336  1  0.99118515  0.50969458  0.88101725  1
  O  O337  1  0.99034170  0.99797280  0.38313617  1
  O  O338  1  0.99275293  0.99254272  0.88373649  1
  O  O339  1  0.00809921  -0.00721820  0.11692581  1
  O  O340  1  0.00299364  -0.00623473  0.61468073  1
  O  O341  1  -0.00652504  0.51110461  0.11679988  1
  O  O342  1  -0.00328094  0.51885591  0.61944116  1
  O  O343  1  0.50588757  0.00648629  0.11476807  1
  O  O344  1  0.50395768  0.00605857  0.62372717  1
  O  O345  1  0.51695535  0.50804869  0.12098120  1
  O  O346  1  0.50774299  0.50856090  0.61850967  1
  O  O347  1  0.23131182  0.38169748  0.24202308  1
  O  O348  1  0.23917574  0.38064936  0.74565740  1
  O  O349  1  0.24362582  0.87918610  0.24399347  1
  O  O350  1  0.24148956  0.86884791  0.73992031  1
  O  O351  1  0.74513114  0.37885012  0.24238397  1
  O  O352  1  0.74185148  0.38439899  0.74167213  1
  O  O353  1  0.75363460  0.87651740  0.23839784  1
  O  O354  1  0.74123355  0.87342658  0.74309176  1
  O  O355  1  0.24951910  0.11588379  0.25624287  1
  O  O356  1  0.25278083  0.12905137  0.76301461  1
  O  O357  1  0.23959393  0.61577839  0.26740155  1
  O  O358  1  0.25923461  0.61723335  0.74337221  1
  O  O359  1  0.76442823  0.12347720  0.25911425  1
  O  O360  1  0.75684308  0.11898787  0.76395894  1
  O  O361  1  0.76005310  0.61247467  0.24339117  1
  O  O362  1  0.74196246  0.61782103  0.75730715  1
  O  O363  1  0.35830080  0.13069268  0.37183199  1
  O  O364  1  0.36790886  0.11737000  0.87011274  1
  O  O365  1  0.35309101  0.62901948  0.38116286  1
  O  O366  1  0.38517510  0.61469846  0.86338593  1
  O  O367  1  0.87134681  0.11692475  0.36625940  1
  O  O368  1  0.86772462  0.11610242  0.87137513  1
  O  O369  1  0.87941346  0.61447939  0.35932641  1
  O  O370  1  0.85847396  0.62454412  0.88254703  1
  O  O371  1  0.11919624  0.37660916  0.12786542  1
  O  O372  1  0.13383710  0.36849648  0.63589576  1
  O  O373  1  0.12997862  0.88144896  0.13441975  1
  O  O374  1  0.13338879  0.87599915  0.63445670  1
  O  O375  1  0.63106719  0.38150999  0.12796038  1
  O  O376  1  0.62125167  0.38770132  0.63362788  1
  O  O377  1  0.63119888  0.88873273  0.11959539  1
  O  O378  1  0.62624321  0.88133908  0.62980970  1
  O  O379  1  0.12016917  0.25586052  0.25133414  1
  O  O380  1  0.12199883  0.25665168  0.76224163  1
  O  O381  1  0.11815168  0.75672115  0.24905649  1
  O  O382  1  0.11944179  0.75863065  0.75825756  1
  O  O383  1  0.61653844  0.25560176  0.24338679  1
  O  O384  1  0.61591357  0.26075148  0.74284469  1
  O  O385  1  0.63090180  0.74512565  0.26763274  1
  O  O386  1  0.62196014  0.76085515  0.74995160  1
  O  O387  1  0.39025367  0.24882593  0.24302049  1
  O  O388  1  0.37648978  0.24442891  0.74400501  1
  O  O389  1  0.36651072  0.73250168  0.24197708  1
  O  O390  1  0.37788152  0.73882377  0.74806056  1
  O  O391  1  0.88407530  0.24388648  0.23958950  1
  O  O392  1  0.88688937  0.23798014  0.76249317  1
  O  O393  1  0.87950880  0.74112725  0.24767356  1
  O  O394  1  0.88944208  0.75453292  0.75700348  1
  O  O395  1  0.38808884  0.50262906  0.50424208  1
  O  O396  1  0.38028604  0.49297791  0.98743106  1
  O  O397  1  0.37805830  0.98459415  0.49893671  1
  O  O398  1  0.37976220  0.99258130  0.98766675  1
  O  O399  1  0.88339702  0.51251124  0.48860250  1
  O  O400  1  0.86745117  0.48193672  1.00125553  1
  O  O401  1  0.88438849  0.99347689  0.49416987  1
  O  O402  1  0.88140626  1.00016054  0.99335481  1
  O  O403  1  0.11808329  0.00136413  0.00754676  1
  O  O404  1  0.11656357  0.00692315  0.50006306  1
  O  O405  1  0.12690098  0.51444954  -0.00546172  1
  O  O406  1  0.11427668  0.51593901  0.49926169  1
  O  O407  1  0.61906714  0.00543408  0.00569547  1
  O  O408  1  0.62175211  0.00492806  0.50784653  1
  O  O409  1  0.62946485  0.50519207  0.00698645  1
  O  O410  1  0.62319671  0.50751341  0.50521273  1
  O  O411  1  0.38899184  0.38221841  0.11125687  1
  O  O412  1  0.36410983  0.36335511  0.63134895  1
  O  O413  1  0.36637959  0.87252319  0.11609585  1
  O  O414  1  0.36677135  0.87143642  0.62070644  1
  O  O415  1  0.86815867  0.36113568  0.11771303  1
  O  O416  1  0.87218494  0.38453987  0.62471371  1
  O  O417  1  0.86598607  0.86722967  0.12327290  1
  O  O418  1  0.86087484  0.87826000  0.62618130  1
  O  O419  1  0.13372381  0.13570619  0.37755361  1
  O  O420  1  0.13286340  0.12844198  0.88158804  1
  O  O421  1  0.13555531  0.62758272  0.38728406  1
  O  O422  1  0.12216612  0.63910964  0.88343339  1
  O  O423  1  0.65291982  0.12619478  0.37713635  1
  O  O424  1  0.63077682  0.12277561  0.87644993  1
  O  O425  1  0.62305069  0.63255468  0.38446385  1
  O  O426  1  0.63387575  0.62469546  0.88205555  1
