# generated using pymatgen
data_V85Zn86O256
_symmetry_space_group_name_H-M   'P 1'
_cell_length_a   16.95817997
_cell_length_b   16.93570172
_cell_length_c   16.94195691
_cell_angle_alpha   90.07189504
_cell_angle_beta   90.03910783
_cell_angle_gamma   90.04488584
_symmetry_Int_Tables_number   1
_chemical_formula_structural   V85Zn86O256
_chemical_formula_sum   'V85 Zn86 O256'
_cell_volume   4865.70116065
_cell_formula_units_Z   1
loop_
 _symmetry_equiv_pos_site_id
 _symmetry_equiv_pos_as_xyz
  1  'x, y, z'
loop_
 _atom_site_type_symbol
 _atom_site_label
 _atom_site_symmetry_multiplicity
 _atom_site_fract_x
 _atom_site_fract_y
 _atom_site_fract_z
 _atom_site_occupancy
  V  V0  1  0.62086292  0.49824792  0.61222578  1
  V  V1  1  0.87378972  0.62984637  0.24608985  1
  V  V2  1  0.62914703  0.89237843  0.74870746  1
  V  V3  1  0.38023494  0.48545036  0.86805999  1
  V  V4  1  0.62357570  0.12507126  -0.00379806  1
  V  V5  1  0.50154025  0.62488608  0.12400717  1
  V  V6  1  0.12986633  0.12678275  0.50093509  1
  V  V7  1  0.25016901  0.62857143  0.87593148  1
  V  V8  1  0.87527520  0.24965024  0.12281475  1
  V  V9  1  0.87221639  0.38190051  -0.00841876  1
  V  V10  1  0.24140558  0.74783349  -0.00255375  1
  V  V11  1  0.11649167  0.74740661  0.37742826  1
  V  V12  1  0.00153290  -0.00742016  0.49893456  1
  V  V13  1  0.61778089  0.37805160  0.75319847  1
  V  V14  1  0.75294608  0.50320658  0.74637192  1
  V  V15  1  0.88053695  -0.00385209  0.37454220  1
  V  V16  1  0.50543986  0.75223394  0.74913566  1
  V  V17  1  0.24337162  0.74800919  0.49967189  1
  V  V18  1  0.62686862  0.87122714  0.25133613  1
  V  V19  1  0.24908218  0.87084907  0.12742437  1
  V  V20  1  0.75066869  0.13270929  0.38183500  1
  V  V21  1  0.74369513  0.36893486  0.61944355  1
  V  V22  1  0.24977237  -0.00327534  0.75257889  1
  V  V23  1  0.74933999  0.50069225  0.25331559  1
  V  V24  1  0.50415513  0.86975245  0.37703481  1
  V  V25  1  0.14320943  0.38372283  0.24736070  1
  V  V26  1  0.37755601  0.62395880  0.75007591  1
  V  V27  1  0.62692900  0.63964767  0.49551797  1
  V  V28  1  0.50482554  0.23628236  0.24879521  1
  V  V29  1  0.87227600  0.86835186  0.49847259  1
  V  V30  1  -0.00132337  0.12649439  0.62721547  1
  V  V31  1  0.86093298  0.74179626  0.62523215  1
  V  V32  1  0.11510483  0.38630764  0.73858753  1
  V  V33  1  -0.00004898  0.37621898  0.37288943  1
  V  V34  1  0.24236163  0.50320907  0.73940057  1
  V  V35  1  0.37664367  0.74941207  0.12469927  1
  V  V36  1  0.11960859  0.87382839  0.25849510  1
  V  V37  1  0.37475223  0.61607649  0.25231294  1
  V  V38  1  0.25979175  0.12584085  0.37813014  1
  V  V39  1  0.37324641  0.75219553  0.62382400  1
  V  V40  1  0.49589100  0.25162850  0.75234230  1
  V  V41  1  0.75038554  0.75277958  0.00403906  1
  V  V42  1  0.04788105  0.43675102  0.93540889  1
  V  V43  1  0.62424093  0.00456388  0.12461426  1
  V  V44  1  0.50364464  0.12293763  0.62681905  1
  V  V45  1  0.12463064  -0.00259450  0.62716707  1
  V  V46  1  0.87257313  0.24971344  0.62046374  1
  V  V47  1  0.37728098  0.87338066  -0.00251461  1
  V  V48  1  0.75131220  0.62672733  0.86829727  1
  V  V49  1  0.49817696  0.00485858  0.00385763  1
  V  V50  1  0.75214434  0.00013426  0.24853936  1
  V  V51  1  0.75092127  0.37482943  0.12412681  1
  V  V52  1  0.85942879  0.12389030  0.75680616  1
  V  V53  1  0.62579996  0.49933080  0.12332805  1
  V  V54  1  0.49988809  0.38155598  0.37915073  1
  V  V55  1  0.37577696  0.22886179  0.13166995  1
  V  V56  1  0.00274442  0.25110011  0.25195181  1
  V  V57  1  0.24715837  0.62127269  0.37446049  1
  V  V58  1  0.87719210  0.12435884  0.24948298  1
  V  V59  1  0.74441493  0.88911645  0.61990688  1
  V  V60  1  0.88443126  0.87184579  0.00477137  1
  V  V61  1  0.12397621  0.12618521  -0.00174529  1
  V  V62  1  0.74523289  0.64244507  0.37601450  1
  V  V63  1  0.01197503  0.62863406  0.62034371  1
  V  V64  1  0.51092178  0.00099395  0.50376950  1
  V  V65  1  0.37763205  -0.00200594  0.37438441  1
  V  V66  1  0.49937123  0.62127389  0.61649656  1
  V  V67  1  0.86952242  -0.00908163  0.86932317  1
  V  V68  1  0.10700089  0.87022161  0.75764716  1
  V  V69  1  0.75170552  0.24314595  -0.00501601  1
  V  V70  1  -0.00256574  0.75190562  0.24485970  1
  V  V71  1  0.00311438  0.61576689  0.11995772  1
  V  V72  1  0.62534121  0.62668744  -0.00390325  1
  V  V73  1  0.62312644  0.25276060  0.87614086  1
  V  V74  1  0.50251186  0.49351126  -0.00751262  1
  V  V75  1  0.25116816  0.12846627  0.87618581  1
  V  V76  1  0.37545597  0.37359371  0.01510817  1
  V  V77  1  0.86962608  0.37524623  0.49817587  1
  V  V78  1  0.01024433  0.50493812  0.50043905  1
  V  V79  1  0.00080603  0.12291850  0.12410903  1
  V  V80  1  0.50184606  0.75110752  0.25187912  1
  V  V81  1  0.13491873  0.25383143  0.38055842  1
  V  V82  1  -0.00428070  0.25560038  0.75892926  1
  V  V83  1  0.12506665  -0.00102167  0.12534842  1
  V  V84  1  0.25339152  0.00247496  0.25148418  1
  Zn  Zn85  1  0.24796942  0.25410315  0.01060940  1
  Zn  Zn86  1  0.62671753  0.75360131  0.87122281  1
  Zn  Zn87  1  0.12029778  0.25482899  0.87730814  1
  Zn  Zn88  1  0.36526411  0.24566183  0.61014243  1
  Zn  Zn89  1  0.36272921  0.37249069  0.49893266  1
  Zn  Zn90  1  0.24644190  0.87391213  0.62661017  1
  Zn  Zn91  1  0.75282545  0.87261826  0.12434790  1
  Zn  Zn92  1  0.62406019  0.37154741  0.24939055  1
  Zn  Zn93  1  0.63285146  0.12819495  0.50953303  1
  Zn  Zn94  1  0.13075015  0.49506680  0.11429486  1
  Zn  Zn95  1  0.50338192  0.87747340  0.87459658  1
  Zn  Zn96  1  0.37722486  0.50103687  0.38254098  1
  Zn  Zn97  1  0.37551246  0.12227967  0.75017818  1
  Zn  Zn98  1  0.87667235  0.49962614  0.86994060  1
  Zn  Zn99  1  0.00411300  -0.00569262  -0.00935610  1
  Zn  Zn100  1  0.92493745  0.67724677  0.78281483  1
  Zn  Zn101  1  0.87269923  0.50380119  0.37618820  1
  Zn  Zn102  1  0.62713869  0.25419091  0.38374092  1
  Zn  Zn103  1  0.10651187  0.75078677  0.87632181  1
  Zn  Zn104  1  0.24480269  0.36585275  0.61300888  1
  Zn  Zn105  1  0.37660639  0.00163318  0.87571264  1
  Zn  Zn106  1  0.37408982  0.87571978  0.50114662  1
  Zn  Zn107  1  0.19047546  0.18897517  0.19192163  1
  Zn  Zn108  1  0.18017322  0.18669289  0.69282677  1
  Zn  Zn109  1  0.20816154  0.64690615  0.16622345  1
  Zn  Zn110  1  0.18773392  0.69077594  0.69091306  1
  Zn  Zn111  1  0.68794851  0.18499091  0.18680402  1
  Zn  Zn112  1  0.68208897  0.18953863  0.68512254  1
  Zn  Zn113  1  0.68790400  0.68797585  0.18601813  1
  Zn  Zn114  1  0.68719247  0.69036947  0.68248356  1
  Zn  Zn115  1  0.32037528  0.30854519  0.31290457  1
  Zn  Zn116  1  0.29211552  0.29774685  0.77709697  1
  Zn  Zn117  1  0.31178574  0.80957966  0.31341948  1
  Zn  Zn118  1  0.31313665  0.81475229  0.81169369  1
  Zn  Zn119  1  0.81428267  0.31330983  0.30941498  1
  Zn  Zn120  1  0.80706099  0.31364782  0.81046022  1
  Zn  Zn121  1  0.81510382  0.81472760  0.31134933  1
  Zn  Zn122  1  0.80531638  0.81817052  0.81150251  1
  Zn  Zn123  1  0.19101179  0.44014802  0.43920618  1
  Zn  Zn124  1  0.21081443  0.43178200  0.92576785  1
  Zn  Zn125  1  0.18921845  0.93363832  0.43954467  1
  Zn  Zn126  1  0.18621741  0.93515080  0.93493960  1
  Zn  Zn127  1  0.68374168  0.43748592  0.43483570  1
  Zn  Zn128  1  0.69006644  0.43621554  0.93437225  1
  Zn  Zn129  1  0.69062607  0.93870494  0.43445204  1
  Zn  Zn130  1  0.69199506  0.93978758  0.93341722  1
  Zn  Zn131  1  0.30915041  0.06113601  0.06064542  1
  Zn  Zn132  1  0.31698381  0.06266361  0.56420722  1
  Zn  Zn133  1  0.31556363  0.55835853  0.05905206  1
  Zn  Zn134  1  0.31215090  0.55985760  0.55631428  1
  Zn  Zn135  1  0.81291535  0.05794985  0.05835467  1
  Zn  Zn136  1  0.81674282  0.06164941  0.56202519  1
  Zn  Zn137  1  0.81362476  0.56582064  0.06290362  1
  Zn  Zn138  1  0.80716530  0.55824051  0.55553378  1
  Zn  Zn139  1  0.44338674  0.43495628  0.19299528  1
  Zn  Zn140  1  0.43338639  0.43552644  0.67718511  1
  Zn  Zn141  1  0.43786510  0.94040162  0.18712376  1
  Zn  Zn142  1  0.43750218  0.93841506  0.68794737  1
  Zn  Zn143  1  0.93614460  0.43976472  0.18680666  1
  Zn  Zn144  1  0.93730024  0.44262080  0.68274145  1
  Zn  Zn145  1  0.93995059  0.93647091  0.18428273  1
  Zn  Zn146  1  0.93136835  0.93825870  0.68528648  1
  Zn  Zn147  1  0.06531161  0.06310230  0.31491034  1
  Zn  Zn148  1  0.05609559  0.06117100  0.81266436  1
  Zn  Zn149  1  0.06182234  0.56352481  0.31269173  1
  Zn  Zn150  1  0.06122657  0.58273900  0.81196748  1
  Zn  Zn151  1  0.56551662  0.05935792  0.31504108  1
  Zn  Zn152  1  0.56143496  0.06705188  0.81914250  1
  Zn  Zn153  1  0.56507050  0.56288658  0.31329456  1
  Zn  Zn154  1  0.56493298  0.56306638  0.80807248  1
  Zn  Zn155  1  0.44330710  0.19252800  0.43959662  1
  Zn  Zn156  1  0.43805881  0.18972424  0.93866696  1
  Zn  Zn157  1  0.43579597  0.68840546  0.43892407  1
  Zn  Zn158  1  0.43704853  0.68623527  0.93442909  1
  Zn  Zn159  1  0.94117307  0.18670271  0.43892352  1
  Zn  Zn160  1  0.93553942  0.18353275  0.93625485  1
  Zn  Zn161  1  0.93432036  0.68750369  0.43538239  1
  Zn  Zn162  1  0.93462064  0.68579673  0.94564584  1
  Zn  Zn163  1  0.06655285  0.30915905  0.06948193  1
  Zn  Zn164  1  0.06010772  0.31318349  0.56175247  1
  Zn  Zn165  1  0.06253535  0.80674677  0.06956246  1
  Zn  Zn166  1  0.05920537  0.80966062  0.56766845  1
  Zn  Zn167  1  0.55924875  0.31133839  0.06625668  1
  Zn  Zn168  1  0.55880152  0.30372304  0.55912761  1
  Zn  Zn169  1  0.56507580  0.81497529  0.06312693  1
  Zn  Zn170  1  0.56315441  0.81547226  0.56524714  1
  O  O171  1  0.12307533  0.12187918  0.11625175  1
  O  O172  1  0.11986462  0.11987948  0.61879159  1
  O  O173  1  0.10415439  0.62987860  0.12310292  1
  O  O174  1  0.11045708  0.63555363  0.62309505  1
  O  O175  1  0.63055168  0.11212545  0.11498597  1
  O  O176  1  0.61044622  0.12382246  0.62693145  1
  O  O177  1  0.62109128  0.61908014  0.11648684  1
  O  O178  1  0.61872253  0.61839511  0.61743135  1
  O  O179  1  0.38957460  0.37869543  0.36893078  1
  O  O180  1  0.37369162  0.38624089  0.88063396  1
  O  O181  1  0.38401033  0.88163227  0.37585924  1
  O  O182  1  0.37721524  0.87730757  0.88775613  1
  O  O183  1  0.88196573  0.37301990  0.38277840  1
  O  O184  1  0.86974128  0.37728874  0.88355000  1
  O  O185  1  0.87004252  0.88498488  0.38460633  1
  O  O186  1  0.87294773  0.88438443  0.87954517  1
  O  O187  1  0.25721256  0.00328520  0.37098573  1
  O  O188  1  0.24999152  0.00934096  0.87076608  1
  O  O189  1  0.24707135  0.51873527  0.37582121  1
  O  O190  1  0.26426832  0.51138144  0.86561660  1
  O  O191  1  0.76287303  0.00791114  0.36832497  1
  O  O192  1  0.76959323  0.00609289  0.88032913  1
  O  O193  1  0.74847923  0.50401841  0.36168323  1
  O  O194  1  0.74788387  0.50824915  0.86406635  1
  O  O195  1  0.23403953  0.53860306  0.12923123  1
  O  O196  1  0.24938151  0.50317619  0.63796430  1
  O  O197  1  0.24550225  0.99435884  0.13418835  1
  O  O198  1  0.24261276  0.99902042  0.63392909  1
  O  O199  1  0.74566781  0.49701961  0.13252584  1
  O  O200  1  0.74095000  0.49078045  0.62814420  1
  O  O201  1  0.74371938  0.99827665  0.13164598  1
  O  O202  1  0.75501139  0.98791409  0.62488405  1
  O  O203  1  -0.00297059  0.37066656  0.26272101  1
  O  O204  1  0.00197745  0.37040158  0.74500558  1
  O  O205  1  0.00805215  0.86721415  0.24501028  1
  O  O206  1  0.00840673  0.87771314  0.74701164  1
  O  O207  1  0.50483313  0.36425870  0.25761933  1
  O  O208  1  0.51231063  0.36965207  0.74344076  1
  O  O209  1  0.50739010  0.87197950  0.25611469  1
  O  O210  1  0.51237045  0.87025417  0.74796133  1
  O  O211  1  0.50445873  0.13655508  0.25533774  1
  O  O212  1  0.49984691  0.13170617  0.74586061  1
  O  O213  1  0.49623350  0.63335337  0.24686210  1
  O  O214  1  0.49853114  0.63349159  0.73888823  1
  O  O215  1  0.99713410  0.12978175  0.24524861  1
  O  O216  1  0.99224643  0.13478845  0.74277361  1
  O  O217  1  0.99049245  0.63085056  0.24702996  1
  O  O218  1  0.98950139  0.60490659  0.72129012  1
  O  O219  1  0.38090349  0.25592384  0.01624145  1
  O  O220  1  0.37384389  0.25559749  0.49711976  1
  O  O221  1  0.37383974  0.75847219  0.00540388  1
  O  O222  1  0.36800906  0.75283936  0.50881538  1
  O  O223  1  0.86771291  0.25499503  0.00194916  1
  O  O224  1  0.88297713  0.25873117  0.51203851  1
  O  O225  1  0.86697409  0.76510785  -0.00763979  1
  O  O226  1  0.87769756  0.76294494  0.50640499  1
  O  O227  1  0.11695957  0.23923399  0.49095537  1
  O  O228  1  0.12808158  0.24289036  0.99777406  1
  O  O229  1  0.12986542  0.75825451  0.49034456  1
  O  O230  1  0.13742330  0.75725205  0.99543510  1
  O  O231  1  0.62622579  0.24067702  0.49660145  1
  O  O232  1  0.62967245  0.24481041  0.99690357  1
  O  O233  1  0.62336385  0.73892344  0.50523276  1
  O  O234  1  0.63111197  0.74582758  0.99475282  1
  O  O235  1  0.49127444  0.25154259  0.13826243  1
  O  O236  1  0.49738954  0.24174838  0.63735795  1
  O  O237  1  0.49698485  0.74467060  0.12957873  1
  O  O238  1  0.49378217  0.74535662  0.63284312  1
  O  O239  1  0.99426354  0.24262267  0.13146766  1
  O  O240  1  0.99005237  0.24693387  0.63325425  1
  O  O241  1  0.99868176  0.74028258  0.13890067  1
  O  O242  1  0.98508397  0.73355906  0.61804820  1
  O  O243  1  0.00953619  0.25666561  0.37242772  1
  O  O244  1  -0.00279087  0.24717965  0.86226895  1
  O  O245  1  0.00915810  0.74392716  0.36686757  1
  O  O246  1  0.00672303  0.69694082  0.86033297  1
  O  O247  1  0.50296550  0.25544117  0.36047916  1
  O  O248  1  0.51572161  0.24557538  0.87176803  1
  O  O249  1  0.49645755  0.76335148  0.37064442  1
  O  O250  1  0.50120607  0.75203842  0.86029377  1
  O  O251  1  0.23742131  0.11669487  0.49359111  1
  O  O252  1  0.24169239  0.12856904  0.99395058  1
  O  O253  1  0.25291864  0.64001158  0.49104816  1
  O  O254  1  0.26531925  0.63925615  0.98805109  1
  O  O255  1  0.75452888  0.11926358  0.48494176  1
  O  O256  1  0.74489805  0.13768769  1.00567509  1
  O  O257  1  0.74082018  0.62158486  0.48606726  1
  O  O258  1  0.74627754  0.63181718  0.99162624  1
  O  O259  1  0.26692470  0.36793187  -0.00225179  1
  O  O260  1  0.24245352  0.36590129  0.49905763  1
  O  O261  1  0.25776209  0.86899096  0.00583887  1
  O  O262  1  0.25279289  0.86367385  0.50445890  1
  O  O263  1  0.75536216  0.36488469  0.00449535  1
  O  O264  1  0.75851597  0.38020183  0.50609974  1
  O  O265  1  0.75757709  0.86781127  -0.00105919  1
  O  O266  1  0.75580818  0.88056436  0.51026193  1
  O  O267  1  0.12313275  0.48341245  0.25637533  1
  O  O268  1  0.12919019  0.49782246  0.75531965  1
  O  O269  1  0.13030309  0.99275520  0.24689861  1
  O  O270  1  0.12742729  0.99118177  0.74789030  1
  O  O271  1  0.63376226  0.50130969  0.23967645  1
  O  O272  1  0.63144192  0.49321236  0.74014206  1
  O  O273  1  0.62949775  0.99321653  0.24196893  1
  O  O274  1  0.61984022  0.99041744  0.75266593  1
  O  O275  1  0.36718266  -0.00488403  0.26217876  1
  O  O276  1  0.36485381  -0.00011042  0.75442504  1
  O  O277  1  0.38047514  0.51396313  0.25226283  1
  O  O278  1  0.37036835  0.50465263  0.75350851  1
  O  O279  1  0.87447030  0.00299567  0.25678319  1
  O  O280  1  0.87575093  0.01166813  0.75743925  1
  O  O281  1  0.86519285  0.50738431  0.25299892  1
  O  O282  1  0.85653601  0.49209509  0.74788906  1
  O  O283  1  0.11834966  0.36794810  0.36770276  1
  O  O284  1  0.11229326  0.37987292  0.87443110  1
  O  O285  1  0.12775309  0.87000529  0.36384664  1
  O  O286  1  0.11965574  0.87253100  0.86388663  1
  O  O287  1  0.61687419  0.37278304  0.36910674  1
  O  O288  1  0.62812115  0.36801439  0.86447983  1
  O  O289  1  0.61741590  0.88262121  0.36320757  1
  O  O290  1  0.62627583  0.87505231  0.86050610  1
  O  O291  1  0.37876605  0.13049829  0.12283423  1
  O  O292  1  0.38566141  0.12760368  0.63034933  1
  O  O293  1  0.38461872  0.63093225  0.13222084  1
  O  O294  1  0.38197155  0.63393930  0.62846467  1
  O  O295  1  0.88088037  0.12810192  0.12852264  1
  O  O296  1  0.87793946  0.13249393  0.63142047  1
  O  O297  1  0.87976613  0.62049500  0.14045052  1
  O  O298  1  0.86451901  0.64010662  0.61587313  1
  O  O299  1  0.26959294  0.24298148  0.12877909  1
  O  O300  1  0.26106259  0.25827741  0.66634175  1
  O  O301  1  0.25652627  0.74954349  0.11570805  1
  O  O302  1  0.25707069  0.74960064  0.61875812  1
  O  O303  1  0.75644107  0.25488428  0.11873562  1
  O  O304  1  0.75601441  0.26182926  0.62863879  1
  O  O305  1  0.74697496  0.75025979  0.10895325  1
  O  O306  1  0.75744262  0.76147077  0.62114738  1
  O  O307  1  0.24098381  0.23934830  0.36609772  1
  O  O308  1  0.24211899  0.23554633  0.86839888  1
  O  O309  1  0.24038494  0.74782798  0.38274503  1
  O  O310  1  0.25573544  0.74476001  0.88270964  1
  O  O311  1  0.75273592  0.23519804  0.36785180  1
  O  O312  1  0.73777736  0.25373820  0.88381341  1
  O  O313  1  0.74736691  0.74149817  0.36885187  1
  O  O314  1  0.74780416  0.74306817  0.88079614  1
  O  O315  1  0.00762587  0.12513965  0.00706563  1
  O  O316  1  0.00915613  0.11500426  0.50513079  1
  O  O317  1  -0.01674623  0.61945974  0.02251231  1
  O  O318  1  -0.00837559  0.61317020  0.50609418  1
  O  O319  1  0.50995313  0.11715179  -0.00064707  1
  O  O320  1  0.50100824  0.11579000  0.50718300  1
  O  O321  1  0.50510604  0.61652172  0.00312179  1
  O  O322  1  0.50586373  0.63013404  0.51086614  1
  O  O323  1  0.50267273  0.36920454  0.48062661  1
  O  O324  1  0.49561907  0.38716121  1.00207252  1
  O  O325  1  0.50038045  0.88163966  0.49315297  1
  O  O326  1  0.49282202  0.88053056  0.99861412  1
  O  O327  1  0.99452957  0.38380804  0.49139455  1
  O  O328  1  0.99335300  0.37358635  0.99828714  1
  O  O329  1  0.99145419  0.88668473  0.50728782  1
  O  O330  1  0.98835702  0.87118971  1.00305920  1
  O  O331  1  0.50113162  0.48580723  0.36794810  1
  O  O332  1  0.49397225  0.50679212  0.88195374  1
  O  O333  1  0.49400255  0.99221433  0.37949989  1
  O  O334  1  0.49828464  0.99805245  0.88958392  1
  O  O335  1  0.99507268  0.49391860  0.38258128  1
  O  O336  1  0.99689126  0.50471125  0.87799040  1
  O  O337  1  0.98915546  1.00610997  0.38307972  1
  O  O338  1  0.97829281  1.01036776  0.87835553  1
  O  O339  1  0.00803916  0.00755090  0.12176558  1
  O  O340  1  0.00319840  0.00654261  0.61794831  1
  O  O341  1  0.00795639  0.51051217  0.13354561  1
  O  O342  1  -0.00560107  0.50888318  0.60664956  1
  O  O343  1  0.50899128  -0.00506841  0.11385435  1
  O  O344  1  0.49307032  0.00578763  0.61310229  1
  O  O345  1  0.50701553  0.50581937  0.11722222  1
  O  O346  1  0.50897099  0.51084800  0.63141259  1
  O  O347  1  0.24109516  0.37426743  0.25654720  1
  O  O348  1  0.22972210  0.39171050  0.76149971  1
  O  O349  1  0.24350650  0.88288130  0.24665437  1
  O  O350  1  0.24328086  0.88659494  0.75172797  1
  O  O351  1  0.74983156  0.38336875  0.24303948  1
  O  O352  1  0.73720343  0.37989299  0.73955237  1
  O  O353  1  0.74350714  0.88116272  0.24781439  1
  O  O354  1  0.73602419  0.87615320  0.73844864  1
  O  O355  1  0.24157233  0.10937998  0.26204063  1
  O  O356  1  0.24490487  0.11084295  0.75939182  1
  O  O357  1  0.26700436  0.64392769  0.26385177  1
  O  O358  1  0.25795863  0.62190547  0.75394280  1
  O  O359  1  0.75968837  0.11866874  0.25570397  1
  O  O360  1  0.76195524  0.12929672  0.74383303  1
  O  O361  1  0.75384947  0.62077921  0.25457690  1
  O  O362  1  0.74066508  0.61658318  0.75515508  1
  O  O363  1  0.36377734  0.11780260  0.37961525  1
  O  O364  1  0.36453498  0.12258121  0.87626508  1
  O  O365  1  0.36966568  0.62567075  0.36839017  1
  O  O366  1  0.37241677  0.61857318  0.86513701  1
  O  O367  1  0.86932141  0.11999099  0.37082748  1
  O  O368  1  0.87147665  0.12368234  0.86028705  1
  O  O369  1  0.86349977  0.62454466  0.36621799  1
  O  O370  1  0.86106024  0.62189264  0.87067213  1
  O  O371  1  0.12412719  0.37643171  0.14220247  1
  O  O372  1  0.12394436  0.37509222  0.63566559  1
  O  O373  1  0.13160347  0.87801835  0.13489540  1
  O  O374  1  0.12422546  0.88048954  0.63634801  1
  O  O375  1  0.63345941  0.38224995  0.12387154  1
  O  O376  1  0.62842086  0.38023397  0.62662002  1
  O  O377  1  0.62850671  0.88683864  0.13122528  1
  O  O378  1  0.63626210  0.87626302  0.63187145  1
  O  O379  1  0.12038875  0.25850818  0.25856008  1
  O  O380  1  0.11079767  0.26305954  0.75530829  1
  O  O381  1  0.11527086  0.75988069  0.25899576  1
  O  O382  1  0.12753665  0.76719189  0.75234145  1
  O  O383  1  0.61541213  0.24917427  0.24864788  1
  O  O384  1  0.61851629  0.25705662  0.75792003  1
  O  O385  1  0.61914551  0.76373991  0.24150548  1
  O  O386  1  0.61728604  0.75817914  0.74748526  1
  O  O387  1  0.38654509  0.24733309  0.23845248  1
  O  O388  1  0.39400236  0.24761362  0.76695133  1
  O  O389  1  0.38532025  0.74868973  0.24310777  1
  O  O390  1  0.38218520  0.74621612  0.74262566  1
  O  O391  1  0.88308464  0.24388298  0.24382601  1
  O  O392  1  0.87608097  0.24300932  0.74231395  1
  O  O393  1  0.88424381  0.74330337  0.25491490  1
  O  O394  1  0.86787348  0.75828841  0.73120072  1
  O  O395  1  0.37151912  0.48992012  0.49570696  1
  O  O396  1  0.38443210  0.49289857  0.99317274  1
  O  O397  1  0.38106337  0.99710222  0.48787167  1
  O  O398  1  0.38208720  0.99165748  1.00295237  1
  O  O399  1  0.88001171  0.48775839  0.49643094  1
  O  O400  1  0.86619865  0.48551813  0.99803030  1
  O  O401  1  0.88296716  0.99278116  0.49366180  1
  O  O402  1  0.87753458  0.98700835  0.99157691  1
  O  O403  1  0.12409047  0.00543888  0.00703382  1
  O  O404  1  0.11796398  0.00335847  0.50391647  1
  O  O405  1  0.11879701  0.48375860  -0.00887233  1
  O  O406  1  0.10839530  0.50178610  0.49341939  1
  O  O407  1  0.62112159  0.00582830  0.00422021  1
  O  O408  1  0.61382801  0.00496911  0.49307273  1
  O  O409  1  0.61993608  0.50421942  0.00202714  1
  O  O410  1  0.62710490  0.50767299  0.51002540  1
  O  O411  1  0.37885318  0.37629074  0.11693050  1
  O  O412  1  0.36540972  0.36667935  0.62507619  1
  O  O413  1  0.36899763  0.87066447  0.11738533  1
  O  O414  1  0.37326564  0.86205374  0.62603374  1
  O  O415  1  0.87091488  0.36866927  0.11715654  1
  O  O416  1  0.86619508  0.36871770  0.61769248  1
  O  O417  1  0.87171944  0.88002045  0.10852742  1
  O  O418  1  0.86342381  0.86970129  0.61794964  1
  O  O419  1  0.13311697  0.13146788  0.38310592  1
  O  O420  1  0.12703646  0.12272970  0.88774029  1
  O  O421  1  0.13343950  0.63753631  0.36688940  1
  O  O422  1  0.14781537  0.62786906  0.87218180  1
  O  O423  1  0.64551805  0.12168137  0.37173203  1
  O  O424  1  0.62816890  0.13219665  0.88892788  1
  O  O425  1  0.63201050  0.62391259  0.38314838  1
  O  O426  1  0.63394964  0.62681196  0.87977804  1
