# generated using pymatgen
data_V85Zn86O256
_symmetry_space_group_name_H-M   'P 1'
_cell_length_a   16.97054474
_cell_length_b   16.97158499
_cell_length_c   16.96575083
_cell_angle_alpha   90.04463009
_cell_angle_beta   89.98213631
_cell_angle_gamma   90.01695930
_symmetry_Int_Tables_number   1
_chemical_formula_structural   V85Zn86O256
_chemical_formula_sum   'V85 Zn86 O256'
_cell_volume   4886.42344133
_cell_formula_units_Z   1
loop_
 _symmetry_equiv_pos_site_id
 _symmetry_equiv_pos_as_xyz
  1  'x, y, z'
loop_
 _atom_site_type_symbol
 _atom_site_label
 _atom_site_symmetry_multiplicity
 _atom_site_fract_x
 _atom_site_fract_y
 _atom_site_fract_z
 _atom_site_occupancy
  V  V0  1  0.74844314  0.25179166  0.49537083  1
  V  V1  1  0.37478599  0.87365504  0.00079707  1
  V  V2  1  0.49733020  0.49147398  0.49909343  1
  V  V3  1  0.75331674  0.62337124  0.88319091  1
  V  V4  1  0.75295552  0.75027789  0.00623848  1
  V  V5  1  0.37804224  0.87107116  0.49900304  1
  V  V6  1  0.87414031  0.37772409  -0.00140206  1
  V  V7  1  0.62574021  0.74913055  0.87892898  1
  V  V8  1  0.00304534  0.37625967  0.37420923  1
  V  V9  1  0.25084013  0.51732969  0.25659054  1
  V  V10  1  0.74208091  0.13164151  0.36994980  1
  V  V11  1  0.24473221  0.87726729  0.12096535  1
  V  V12  1  0.48254886  0.12410340  0.12796367  1
  V  V13  1  0.75014467  -0.00162653  0.74738576  1
  V  V14  1  0.12458200  0.87672575  0.74410407  1
  V  V15  1  0.75143655  0.87736413  0.12435563  1
  V  V16  1  0.75007182  0.86443666  0.62069966  1
  V  V17  1  0.23612156  0.25925151  -0.00197941  1
  V  V18  1  0.87645773  0.12665343  0.74774036  1
  V  V19  1  0.01100260  0.36184597  0.86849203  1
  V  V20  1  0.50452695  0.62347134  0.62752946  1
  V  V21  1  -0.00093995  0.01767998  0.00337274  1
  V  V22  1  0.37033413  0.48664405  0.37382256  1
  V  V23  1  0.27445972  0.38192286  0.60962647  1
  V  V24  1  0.13024938  0.24310172  0.38859369  1
  V  V25  1  0.51432880  0.37085487  0.36717594  1
  V  V26  1  0.50016965  0.74807258  0.75133193  1
  V  V27  1  0.25870022  0.00139127  0.74662073  1
  V  V28  1  0.87476263  0.00127095  0.87543743  1
  V  V29  1  0.13097996  0.49552842  0.12816725  1
  V  V30  1  0.00589947  0.49927930  0.51001971  1
  V  V31  1  0.00468623  0.87414212  0.37557072  1
  V  V32  1  0.13891157  0.37225291  0.25053924  1
  V  V33  1  0.36779563  0.27552887  0.12237283  1
  V  V34  1  0.12412677  0.62318221  0.00088215  1
  V  V35  1  0.24349131  0.74660462  0.48447868  1
  V  V36  1  0.50564908  0.24660373  0.24921490  1
  V  V37  1  -0.00334264  0.62377998  0.12844448  1
  V  V38  1  0.87852058  0.24909142  0.62845666  1
  V  V39  1  0.61543069  0.25378772  0.87646653  1
  V  V40  1  0.37485330  0.49079695  0.87935693  1
  V  V41  1  0.00085835  0.87804396  0.87873931  1
  V  V42  1  0.24772873  0.61837035  0.87187090  1
  V  V43  1  0.36969174  0.62179871  0.75101584  1
  V  V44  1  0.62912281  -0.00156605  0.62258465  1
  V  V45  1  0.87411610  0.37748246  0.50176338  1
  V  V46  1  0.86811085  0.50141568  0.36461446  1
  V  V47  1  0.00490439  0.24650914  0.24610802  1
  V  V48  1  0.62765947  0.13217783  0.49871925  1
  V  V49  1  0.74802464  0.00312854  0.24985086  1
  V  V50  1  0.49766944  -0.00149914  0.00111744  1
  V  V51  1  0.50070320  0.62839606  0.12205744  1
  V  V52  1  0.50669369  -0.00495242  0.49569303  1
  V  V53  1  0.87867801  0.24885672  0.12260852  1
  V  V54  1  0.00675745  0.74659220  0.25238851  1
  V  V55  1  0.49578407  0.48696805  -0.00114441  1
  V  V56  1  0.24626926  0.87152927  0.62084084  1
  V  V57  1  0.24809857  0.74830316  0.00033121  1
  V  V58  1  0.49345454  0.12802190  0.62337933  1
  V  V59  1  -0.00014905  0.75077745  0.74832468  1
  V  V60  1  0.87488421  0.86903444  0.49789588  1
  V  V61  1  0.11906566  0.01499043  0.12353394  1
  V  V62  1  0.63307820  0.62778048  0.48224656  1
  V  V63  1  0.62516412  0.87351284  0.74987651  1
  V  V64  1  0.62786632  0.49726876  0.62425579  1
  V  V65  1  0.87483923  0.12805579  0.24287922  1
  V  V66  1  0.74680099  0.25019416  -0.00136183  1
  V  V67  1  0.37361875  0.74342406  0.12607362  1
  V  V68  1  0.37544416  0.00166868  0.36852567  1
  V  V69  1  0.74485018  0.37724079  0.13544679  1
  V  V70  1  0.61991242  0.37607008  0.75610726  1
  V  V71  1  0.49886675  0.87298547  0.87654571  1
  V  V72  1  0.88208510  0.01216917  0.38372202  1
  V  V73  1  0.43573567  0.68323191  0.29794091  1
  V  V74  1  0.87844368  0.49530981  0.87654039  1
  V  V75  1  0.12659337  0.87723634  0.25464726  1
  V  V76  1  0.62460305  0.49511810  0.13376379  1
  V  V77  1  0.61938567  0.12417457  0.00166119  1
  V  V78  1  0.74874618  0.49931732  0.75267540  1
  V  V79  1  0.62168469  0.86512332  0.25613637  1
  V  V80  1  0.62411544  0.62334472  0.00312391  1
  V  V81  1  0.49218333  0.25159390  0.74879793  1
  V  V82  1  0.14731788  0.38473784  0.72980257  1
  V  V83  1  0.87632732  0.62447068  0.74912966  1
  V  V84  1  0.12960259  0.62165917  0.49546333  1
  Zn  Zn85  1  0.87474874  0.74312034  0.61877414  1
  Zn  Zn86  1  0.01218122  0.61788864  0.63153797  1
  Zn  Zn87  1  0.37287786  0.74630541  0.62536517  1
  Zn  Zn88  1  0.11036054  0.03913977  0.62156656  1
  Zn  Zn89  1  0.50601083  0.86121414  0.37279891  1
  Zn  Zn90  1  0.00321872  0.49548047  0.00170593  1
  Zn  Zn91  1  0.83868344  0.65548653  0.28780948  1
  Zn  Zn92  1  0.24605029  0.13800160  0.88452988  1
  Zn  Zn93  1  0.01331522  0.00946322  0.50127774  1
  Zn  Zn94  1  0.74383080  0.12357737  0.87357890  1
  Zn  Zn95  1  0.37462462  0.00384952  0.87581853  1
  Zn  Zn96  1  0.27494610  0.24054759  0.51106714  1
  Zn  Zn97  1  0.74725778  0.37262388  0.62658015  1
  Zn  Zn98  1  0.37712176  0.12692706  0.75295311  1
  Zn  Zn99  1  0.24992738  0.12351108  0.38029540  1
  Zn  Zn100  1  0.12601128  0.75144677  0.87474717  1
  Zn  Zn101  1  0.62193038  0.00200877  0.12800668  1
  Zn  Zn102  1  0.25835707  0.00946047  0.24244777  1
  Zn  Zn103  1  0.87701345  0.87655463  0.00249070  1
  Zn  Zn104  1  0.88108885  0.75158968  0.12521914  1
  Zn  Zn105  1  0.75318792  0.74092601  0.46534359  1
  Zn  Zn106  1  0.03121649  0.23309984  0.73257634  1
  Zn  Zn107  1  0.20044046  0.18735063  0.19332182  1
  Zn  Zn108  1  0.19884109  0.20198356  0.68766139  1
  Zn  Zn109  1  0.18332871  0.68932529  0.18873672  1
  Zn  Zn110  1  0.18707718  0.68735296  0.68274567  1
  Zn  Zn111  1  0.68295584  0.19071489  0.18187095  1
  Zn  Zn112  1  0.68773194  0.18791486  0.68463657  1
  Zn  Zn113  1  0.68335445  0.68074155  0.28415652  1
  Zn  Zn114  1  0.68812885  0.68385225  0.69084249  1
  Zn  Zn115  1  0.31744921  0.30745749  0.31249979  1
  Zn  Zn116  1  0.30627474  0.31501874  0.81223342  1
  Zn  Zn117  1  0.30954360  0.82522668  0.31315560  1
  Zn  Zn118  1  0.31089099  0.80968396  0.81354155  1
  Zn  Zn119  1  0.81369076  0.31430591  0.31289153  1
  Zn  Zn120  1  0.80586362  0.31145538  0.81458026  1
  Zn  Zn121  1  0.82040019  0.82250053  0.30684489  1
  Zn  Zn122  1  0.81334256  0.81209330  0.81370684  1
  Zn  Zn123  1  0.18982123  0.43485615  0.44167239  1
  Zn  Zn124  1  0.19236568  0.43343133  0.94418053  1
  Zn  Zn125  1  0.18695549  0.94506506  0.44466797  1
  Zn  Zn126  1  0.16000601  0.98218193  0.91182653  1
  Zn  Zn127  1  0.68911031  0.43929196  0.43746024  1
  Zn  Zn128  1  0.68569717  0.43635682  0.94304728  1
  Zn  Zn129  1  0.69537874  0.93598157  0.43582033  1
  Zn  Zn130  1  0.68599466  0.93843943  0.93800565  1
  Zn  Zn131  1  0.30603570  0.06493686  0.05701889  1
  Zn  Zn132  1  0.31084314  0.05971307  0.55639998  1
  Zn  Zn133  1  0.31163667  0.55756547  0.06508459  1
  Zn  Zn134  1  0.31201220  0.56228927  0.56023846  1
  Zn  Zn135  1  0.81057707  0.06414781  0.05986102  1
  Zn  Zn136  1  0.83940734  0.06880623  0.55031073  1
  Zn  Zn137  1  0.78357932  0.59035721  0.11729667  1
  Zn  Zn138  1  0.81379382  0.56060271  0.56201046  1
  Zn  Zn139  1  0.43724882  0.44246836  0.19419177  1
  Zn  Zn140  1  0.43990019  0.44277800  0.69644376  1
  Zn  Zn141  1  0.44016239  0.93269477  0.18519224  1
  Zn  Zn142  1  0.43938246  0.93574368  0.68136073  1
  Zn  Zn143  1  0.94269973  0.43339680  0.18625867  1
  Zn  Zn144  1  0.93694550  0.43232700  0.69011746  1
  Zn  Zn145  1  0.93862733  0.94062933  0.19004251  1
  Zn  Zn146  1  0.93952283  0.93931764  0.68161440  1
  Zn  Zn147  1  0.06479789  0.06426972  0.30839882  1
  Zn  Zn148  1  0.08440949  0.08567020  0.78331419  1
  Zn  Zn149  1  0.06327056  0.56141050  0.31728539  1
  Zn  Zn150  1  0.06327922  0.55672319  0.81334404  1
  Zn  Zn151  1  0.56141550  0.06100445  0.31087322  1
  Zn  Zn152  1  0.56015498  0.06223183  0.81311147  1
  Zn  Zn153  1  0.56470460  0.54954485  0.31294355  1
  Zn  Zn154  1  0.56037169  0.56135928  0.81780577  1
  Zn  Zn155  1  0.44466595  0.18212340  0.42977132  1
  Zn  Zn156  1  0.42665327  0.18903602  0.93960342  1
  Zn  Zn157  1  0.43447323  0.67733813  0.45743428  1
  Zn  Zn158  1  0.43518776  0.68432904  0.93867560  1
  Zn  Zn159  1  0.93394606  0.19130842  0.43083657  1
  Zn  Zn160  1  0.93528480  0.18863189  0.93160510  1
  Zn  Zn161  1  0.94877823  0.68632133  0.43870013  1
  Zn  Zn162  1  0.93939168  0.68829861  0.93818913  1
  Zn  Zn163  1  0.06214400  0.31528966  0.06327088  1
  Zn  Zn164  1  0.06312449  0.31582716  0.56515223  1
  Zn  Zn165  1  0.06413204  0.81417266  0.06238932  1
  Zn  Zn166  1  0.06176434  0.81098805  0.56112916  1
  Zn  Zn167  1  0.55893551  0.30942520  0.06725354  1
  Zn  Zn168  1  0.44941390  0.31000223  0.56204745  1
  Zn  Zn169  1  0.56556064  0.81167839  0.06955511  1
  Zn  Zn170  1  0.56679789  0.80635712  0.55962306  1
  O  O171  1  0.12743475  0.11237906  0.13080941  1
  O  O172  1  0.10686440  0.13842692  0.68030226  1
  O  O173  1  0.11758981  0.61934435  0.11776624  1
  O  O174  1  0.12456871  0.63004241  0.60864529  1
  O  O175  1  0.61477153  0.12535268  0.11241965  1
  O  O176  1  0.62173250  0.11613668  0.61662559  1
  O  O177  1  0.61354601  0.61329716  0.11615163  1
  O  O178  1  0.61939975  0.61464626  0.62686746  1
  O  O179  1  0.38677375  0.38381609  0.37203432  1
  O  O180  1  0.37215317  0.39256056  0.86751090  1
  O  O181  1  0.38382948  0.87850026  0.38561626  1
  O  O182  1  0.38335006  0.86811822  0.88529354  1
  O  O183  1  0.88332756  0.37912293  0.38294005  1
  O  O184  1  0.87833723  0.37842633  0.87966657  1
  O  O185  1  0.88654129  0.88415013  0.37889343  1
  O  O186  1  0.88233080  0.88581442  0.87338255  1
  O  O187  1  0.26975512  -0.00783544  0.37728415  1
  O  O188  1  0.25980073  -0.02058387  0.85036247  1
  O  O189  1  0.25999336  0.49624266  0.37097455  1
  O  O190  1  0.25784408  0.51251997  0.88511247  1
  O  O191  1  0.75628726  0.00999883  0.36340704  1
  O  O192  1  0.75721251  -0.00301306  0.86696660  1
  O  O193  1  0.76902053  0.49479702  0.37716620  1
  O  O194  1  0.76006164  0.50412476  0.87479144  1
  O  O195  1  0.23800198  0.50666355  0.13672586  1
  O  O196  1  0.25745754  0.48252297  0.61738741  1
  O  O197  1  0.23819962  0.99329101  0.12216656  1
  O  O198  1  0.25932758  0.98292454  0.63198779  1
  O  O199  1  0.73863565  0.48373727  0.11303748  1
  O  O200  1  0.74341275  0.50093132  0.63416941  1
  O  O201  1  0.74966200  0.99676099  0.13475341  1
  O  O202  1  0.74606604  0.98383531  0.63081349  1
  O  O203  1  0.00783700  0.36547114  0.25866620  1
  O  O204  1  -0.00239596  0.37076647  0.76389341  1
  O  O205  1  0.00800194  0.87013993  0.25522228  1
  O  O206  1  0.00529880  0.86997353  0.75508864  1
  O  O207  1  0.50147499  0.36984334  0.26111937  1
  O  O208  1  0.51284455  0.36792140  0.74673304  1
  O  O209  1  0.51800416  0.88033276  0.25181364  1
  O  O210  1  0.50613331  0.86720901  0.75301207  1
  O  O211  1  0.50399010  0.13652613  0.24276260  1
  O  O212  1  0.50232990  0.13234255  0.74038012  1
  O  O213  1  0.50240325  0.62477109  0.24265366  1
  O  O214  1  0.49677378  0.62917245  0.74446763  1
  O  O215  1  0.99241557  0.14016395  0.25444220  1
  O  O216  1  0.97737808  0.13301949  0.76866034  1
  O  O217  1  1.01030783  0.63388890  0.24228044  1
  O  O218  1  0.99457724  0.63121931  0.75163274  1
  O  O219  1  0.38063438  0.25478124  0.02060406  1
  O  O220  1  0.38746890  0.24859713  0.49470835  1
  O  O221  1  0.36860448  0.75316279  0.00874695  1
  O  O222  1  0.36515637  0.75409144  0.50269452  1
  O  O223  1  0.87009899  0.25776626  0.00444265  1
  O  O224  1  0.86985289  0.26115386  0.50461493  1
  O  O225  1  0.86742483  0.75460329  0.00072438  1
  O  O226  1  0.87189848  0.75485838  0.49751949  1
  O  O227  1  0.11898129  0.25233020  0.48781027  1
  O  O228  1  0.13657872  0.25251327  1.00794867  1
  O  O229  1  0.13888935  0.74772427  0.49930803  1
  O  O230  1  0.13048324  0.74173553  0.99723037  1
  O  O231  1  0.63511413  0.23358909  0.50242058  1
  O  O232  1  0.62298757  0.24349528  0.99409996  1
  O  O233  1  0.62692518  0.73012069  0.49684133  1
  O  O234  1  0.63242469  0.74515376  0.99740810  1
  O  O235  1  0.48972582  0.24377472  0.13205816  1
  O  O236  1  0.50659019  0.23929762  0.63532710  1
  O  O237  1  0.49190663  0.73712307  0.12148343  1
  O  O238  1  0.50111920  0.73606274  0.62848924  1
  O  O239  1  0.98950801  0.25810974  0.13359622  1
  O  O240  1  0.98342439  0.25897279  0.62736555  1
  O  O241  1  1.00314003  0.74264200  0.13150724  1
  O  O242  1  0.99565187  0.74990805  0.63897916  1
  O  O243  1  0.00512733  0.25957100  0.36974234  1
  O  O244  1  0.00015660  0.26046630  0.87169384  1
  O  O245  1  -0.00093873  0.76422845  0.36711045  1
  O  O246  1  0.00088384  0.75899979  0.86499900  1
  O  O247  1  0.50019762  0.25916203  0.35999974  1
  O  O248  1  0.51028779  0.24279951  0.86806562  1
  O  O249  1  0.48805875  0.73979052  0.36509723  1
  O  O250  1  0.50615941  0.75274942  0.87242212  1
  O  O251  1  0.25387990  0.12956868  0.49397107  1
  O  O252  1  0.25896854  0.14986416  1.00320923  1
  O  O253  1  0.24687110  0.63900048  0.50056386  1
  O  O254  1  0.23946432  0.62775252  0.99674037  1
  O  O255  1  0.74937314  0.13101062  0.48861380  1
  O  O256  1  0.73653353  0.13121568  1.00010861  1
  O  O257  1  0.73583100  0.62458123  0.50301588  1
  O  O258  1  0.74462954  0.63394919  1.00616966  1
  O  O259  1  0.25193546  0.36118550  0.00616271  1
  O  O260  1  0.25775741  0.37004492  0.50773971  1
  O  O261  1  0.25512043  0.86765953  0.01287905  1
  O  O262  1  0.25822787  0.86595265  0.50316049  1
  O  O263  1  0.75769394  0.36720544  0.00320310  1
  O  O264  1  0.75609443  0.36823055  0.50054250  1
  O  O265  1  0.74996740  0.87057007  0.00767242  1
  O  O266  1  0.74886504  0.85563562  0.50473088  1
  O  O267  1  0.13075521  0.49273527  0.24842651  1
  O  O268  1  0.12041224  0.47931598  0.75502324  1
  O  O269  1  0.12163820  0.99305123  0.23591586  1
  O  O270  1  0.14026936  0.98495635  0.73747091  1
  O  O271  1  0.62120799  0.49474770  0.23316983  1
  O  O272  1  0.62725941  0.49533639  0.74855732  1
  O  O273  1  0.63489583  0.99501441  0.24826289  1
  O  O274  1  0.62950747  0.99261142  0.74477034  1
  O  O275  1  0.37739641  -0.01393818  0.26525085  1
  O  O276  1  0.36917277  -0.00463728  0.74910034  1
  O  O277  1  0.36367652  0.50067166  0.26022847  1
  O  O278  1  0.38435290  0.51629597  0.76303962  1
  O  O279  1  0.86897518  0.00987301  0.25589233  1
  O  O280  1  0.86920998  0.00518487  0.75646622  1
  O  O281  1  0.88251971  0.49118533  0.26537752  1
  O  O282  1  0.87028328  0.50444718  0.75791637  1
  O  O283  1  0.11833943  0.36686987  0.37005163  1
  O  O284  1  0.10881191  0.38277705  0.88073280  1
  O  O285  1  0.12184174  0.88471722  0.36254578  1
  O  O286  1  0.11386657  0.88039177  0.86482817  1
  O  O287  1  0.61267114  0.37916700  0.37617531  1
  O  O288  1  0.62708552  0.36677669  0.86863356  1
  O  O289  1  0.62786808  0.87434528  0.36134770  1
  O  O290  1  0.61910387  0.86824549  0.87058787  1
  O  O291  1  0.38261167  0.12007168  0.12766983  1
  O  O292  1  0.39251144  0.11370872  0.62582602  1
  O  O293  1  0.37983943  0.63595207  0.12262609  1
  O  O294  1  0.38455656  0.62374105  0.63324198  1
  O  O295  1  0.86609002  0.14124122  0.12707557  1
  O  O296  1  0.86878467  0.13581292  0.63604049  1
  O  O297  1  0.89422616  0.62546870  0.11546768  1
  O  O298  1  0.87551832  0.62393670  0.63951623  1
  O  O299  1  0.26387661  0.25385969  0.12407008  1
  O  O300  1  0.25728740  0.27181407  0.62377106  1
  O  O301  1  0.25529586  0.75477136  0.12190663  1
  O  O302  1  0.25447825  0.76017469  0.61803136  1
  O  O303  1  0.75460412  0.26112668  0.11841202  1
  O  O304  1  0.75620571  0.25061918  0.61052342  1
  O  O305  1  0.75485669  0.76144494  0.11293433  1
  O  O306  1  0.75248103  0.75967193  0.63447615  1
  O  O307  1  0.23621290  0.25377723  0.37809969  1
  O  O308  1  0.25154426  0.25494560  0.89060965  1
  O  O309  1  0.25374436  0.75559829  0.38666574  1
  O  O310  1  0.24783487  0.73821061  0.88284543  1
  O  O311  1  0.75211454  0.24684443  0.38509872  1
  O  O312  1  0.73493752  0.24644428  0.88156032  1
  O  O313  1  0.76349816  0.73493599  0.35166080  1
  O  O314  1  0.74721506  0.74481915  0.88697499  1
  O  O315  1  -0.00709860  0.11644639  -0.00124491  1
  O  O316  1  -0.06748413  0.08739076  0.47333708  1
  O  O317  1  0.01259942  0.62294736  0.00307105  1
  O  O318  1  0.00641124  0.61525934  0.50795342  1
  O  O319  1  0.50131836  0.11812990  0.00699155  1
  O  O320  1  0.51244996  0.11488163  0.50359552  1
  O  O321  1  0.50490917  0.62036802  0.00735599  1
  O  O322  1  0.51646247  0.61517170  0.50775381  1
  O  O323  1  0.50441590  0.38746569  0.49095531  1
  O  O324  1  0.50291534  0.38896811  1.00401837  1
  O  O325  1  0.49777354  0.87635933  0.49677093  1
  O  O326  1  0.49668128  0.87929900  0.99941833  1
  O  O327  1  0.99304674  0.37962648  0.49413028  1
  O  O328  1  0.99059237  0.37425035  0.98949128  1
  O  O329  1  0.99087147  0.87363555  0.49135107  1
  O  O330  1  0.99825014  0.87616355  0.98859705  1
  O  O331  1  0.49581202  0.48779107  0.37898195  1
  O  O332  1  0.49219428  0.50596366  0.89163788  1
  O  O333  1  0.49736927  0.99473811  0.38485963  1
  O  O334  1  0.49764304  0.99058942  0.88209977  1
  O  O335  1  0.99608500  0.48644209  0.38332599  1
  O  O336  1  0.98674989  0.49352122  0.87752272  1
  O  O337  1  0.99930760  0.98821411  0.37191679  1
  O  O338  1  0.98925555  0.99290830  0.88561795  1
  O  O339  1  0.00894783  -0.00187353  0.11797062  1
  O  O340  1  -0.00112758  0.00343966  0.61580917  1
  O  O341  1  0.01110929  0.50587172  0.12521875  1
  O  O342  1  -0.00710568  0.49689783  0.61336374  1
  O  O343  1  0.50071641  0.00663313  0.11926801  1
  O  O344  1  0.50963650  0.00160079  0.61231866  1
  O  O345  1  0.50132192  0.50762049  0.11710503  1
  O  O346  1  0.50633953  0.50766022  0.61861441  1
  O  O347  1  0.23996177  0.38056996  0.25713952  1
  O  O348  1  0.25215727  0.38359151  0.73560528  1
  O  O349  1  0.24313639  0.88196215  0.23871520  1
  O  O350  1  0.24401631  0.87232643  0.73963483  1
  O  O351  1  0.75356815  0.37149652  0.23377885  1
  O  O352  1  0.73782806  0.38199650  0.75013014  1
  O  O353  1  0.74391684  0.88520382  0.24329979  1
  O  O354  1  0.74428743  0.87855113  0.74470465  1
  O  O355  1  0.24566757  0.11783054  0.26654240  1
  O  O356  1  0.25840522  0.10715252  0.74113830  1
  O  O357  1  0.24057067  0.61640027  0.25485758  1
  O  O358  1  0.25761506  0.63055806  0.75852541  1
  O  O359  1  0.74866663  0.12215259  0.25050795  1
  O  O360  1  0.75368420  0.11384912  0.75050219  1
  O  O361  1  0.75505253  0.62065435  0.22259347  1
  O  O362  1  0.75808410  0.61907788  0.76093859  1
  O  O363  1  0.38407216  0.10282502  0.37387641  1
  O  O364  1  0.36628707  0.12072902  0.87084766  1
  O  O365  1  0.38833640  0.62065889  0.36245760  1
  O  O366  1  0.36587517  0.62115322  0.86959652  1
  O  O367  1  0.85663285  0.13245986  0.35601220  1
  O  O368  1  0.86458594  0.11420047  0.87240728  1
  O  O369  1  0.88880186  0.60589411  0.37728536  1
  O  O370  1  0.87254609  0.61632888  0.86959905  1
  O  O371  1  0.11801892  0.38595898  0.13798087  1
  O  O372  1  0.13334401  0.38056814  0.62776603  1
  O  O373  1  0.13218852  0.87904273  0.13294780  1
  O  O374  1  0.13406330  0.86706318  0.63118427  1
  O  O375  1  0.63753243  0.37870064  0.11749359  1
  O  O376  1  0.62738109  0.39209659  0.63478239  1
  O  O377  1  0.63686614  0.87979792  0.13278578  1
  O  O378  1  0.63109971  0.87600160  0.62864111  1
  O  O379  1  0.11971870  0.25669905  0.25487601  1
  O  O380  1  0.13310223  0.28084412  0.75477656  1
  O  O381  1  0.11648683  0.76308890  0.24678008  1
  O  O382  1  0.11799362  0.75938242  0.75302514  1
  O  O383  1  0.60530589  0.25458547  0.23710223  1
  O  O384  1  0.62067917  0.25753785  0.75695505  1
  O  O385  1  0.62276067  0.76684794  0.24158802  1
  O  O386  1  0.62022850  0.75288094  0.75909890  1
  O  O387  1  0.38808762  0.25804347  0.23536215  1
  O  O388  1  0.38950702  0.25167395  0.75638521  1
  O  O389  1  0.37208214  0.74845414  0.24583254  1
  O  O390  1  0.38292478  0.73877444  0.74983046  1
  O  O391  1  0.88230116  0.24970967  0.24053492  1
  O  O392  1  0.85938504  0.24188478  0.73971592  1
  O  O393  1  0.89392099  0.75195946  0.24433986  1
  O  O394  1  0.88205478  0.73959968  0.75328735  1
  O  O395  1  0.38922489  0.51636417  0.48509186  1
  O  O396  1  0.38753155  0.50614826  0.99533494  1
  O  O397  1  0.38772055  0.98864978  0.49326062  1
  O  O398  1  0.37927700  0.98977819  1.00007881  1
  O  O399  1  0.88053123  0.48966184  0.49491038  1
  O  O400  1  0.87673110  0.48496069  0.99260351  1
  O  O401  1  0.84407843  0.97105850  0.49097106  1
  O  O402  1  0.87930382  0.99836618  0.99338414  1
  O  O403  1  0.11182882  -0.00609663  0.01638305  1
  O  O404  1  0.12620571  0.00490356  0.51384352  1
  O  O405  1  0.12526896  0.50573305  0.01082950  1
  O  O406  1  0.11617118  0.50543141  0.49551632  1
  O  O407  1  0.61666277  0.00762171  0.00157649  1
  O  O408  1  0.62367461  0.00372287  0.50182135  1
  O  O409  1  0.61263908  0.50427687  0.00405637  1
  O  O410  1  0.62169216  0.50865767  0.50676461  1
  O  O411  1  0.37638308  0.37395306  0.12578046  1
  O  O412  1  0.37972020  0.38160121  0.62208065  1
  O  O413  1  0.36943022  0.86289478  0.12192333  1
  O  O414  1  0.37300688  0.86991100  0.61106486  1
  O  O415  1  0.86737334  0.36943544  0.11726338  1
  O  O416  1  0.86771792  0.37027971  0.61785138  1
  O  O417  1  0.86276436  0.87718328  0.12598493  1
  O  O418  1  0.86696580  0.86840492  0.61553063  1
  O  O419  1  0.11703626  0.14211506  0.37543173  1
  O  O420  1  0.14343737  0.08986604  0.87570835  1
  O  O421  1  0.11463193  0.62770196  0.39433645  1
  O  O422  1  0.13078804  0.62324406  0.88213821  1
  O  O423  1  0.63545110  0.11978094  0.38097525  1
  O  O424  1  0.62278365  0.12952115  0.88669882  1
  O  O425  1  0.62777572  0.62041774  0.37838847  1
  O  O426  1  0.63374817  0.62882086  0.88336957  1
