# generated using pymatgen
data_V85Zn86O256
_symmetry_space_group_name_H-M   'P 1'
_cell_length_a   16.94274523
_cell_length_b   16.94067546
_cell_length_c   16.93853366
_cell_angle_alpha   89.96690599
_cell_angle_beta   89.98189431
_cell_angle_gamma   90.02534524
_symmetry_Int_Tables_number   1
_chemical_formula_structural   V85Zn86O256
_chemical_formula_sum   'V85 Zn86 O256'
_cell_volume   4861.72262826
_cell_formula_units_Z   1
loop_
 _symmetry_equiv_pos_site_id
 _symmetry_equiv_pos_as_xyz
  1  'x, y, z'
loop_
 _atom_site_type_symbol
 _atom_site_label
 _atom_site_symmetry_multiplicity
 _atom_site_fract_x
 _atom_site_fract_y
 _atom_site_fract_z
 _atom_site_occupancy
  V  V0  1  0.62236998  0.37599826  0.24811605  1
  V  V1  1  0.74562911  0.25237463  -0.00582498  1
  V  V2  1  0.62038619  0.63032590  0.49579015  1
  V  V3  1  0.12527176  0.74873176  0.87568642  1
  V  V4  1  0.24878371  0.24263653  0.50258752  1
  V  V5  1  -0.00398291  0.74387529  0.25159956  1
  V  V6  1  0.75404120  0.63110386  0.36883657  1
  V  V7  1  0.50468471  0.36946946  0.87143797  1
  V  V8  1  0.49897966  0.00182694  0.50013564  1
  V  V9  1  0.24884090  0.74766021  0.50128797  1
  V  V10  1  -0.00735108  0.23523183  0.74094777  1
  V  V11  1  0.24757481  0.50070308  0.24783874  1
  V  V12  1  0.37544089  0.62695350  0.24896268  1
  V  V13  1  0.12163157  0.50384500  0.61306474  1
  V  V14  1  0.37640308  0.11993669  0.77205715  1
  V  V15  1  0.87067320  0.61933479  0.74776223  1
  V  V16  1  0.50318805  0.75002494  0.74283430  1
  V  V17  1  0.00772012  0.00056032  0.50660503  1
  V  V18  1  0.00151431  0.49702196  -0.00477050  1
  V  V19  1  0.49598528  0.12456065  0.13377438  1
  V  V20  1  0.49216266  0.88155520  0.87015847  1
  V  V21  1  0.86576696  0.24902763  0.61140900  1
  V  V22  1  0.12609056  0.62084084  0.00483743  1
  V  V23  1  0.50246197  0.75101356  0.25079325  1
  V  V24  1  0.25276647  0.12462398  0.35985248  1
  V  V25  1  0.24918931  0.37608646  0.62815054  1
  V  V26  1  0.64488346  0.50294311  0.62843000  1
  V  V27  1  0.37891474  0.62485098  0.74170111  1
  V  V28  1  0.62350567  0.13043161  -0.00697784  1
  V  V29  1  0.00281348  -0.00233878  0.00160802  1
  V  V30  1  -0.00476847  0.38240619  0.38748666  1
  V  V31  1  0.37525210  0.37661835  -0.00131538  1
  V  V32  1  0.74778372  0.12427731  0.37316445  1
  V  V33  1  0.50575036  0.87435743  0.37403414  1
  V  V34  1  0.12855402  0.12369951  -0.00648062  1
  V  V35  1  0.87057291  0.74714307  0.62408955  1
  V  V36  1  0.87348877  0.87294124  0.00427589  1
  V  V37  1  0.25266031  0.62427231  0.87414815  1
  V  V38  1  0.25041628  0.24835390  -0.00761892  1
  V  V39  1  0.87275867  0.74688609  0.12865072  1
  V  V40  1  0.00082607  0.61827246  0.12823077  1
  V  V41  1  0.12271399  0.24960103  0.37469374  1
  V  V42  1  0.50050479  0.50227944  -0.00364182  1
  V  V43  1  0.13223318  0.00355355  0.13235007  1
  V  V44  1  0.37500336  0.87989184  0.50147765  1
  V  V45  1  0.62390767  -0.00173341  0.12209554  1
  V  V46  1  0.24683526  0.62498566  0.37675192  1
  V  V47  1  0.62549176  0.50183792  0.12377592  1
  V  V48  1  0.74848445  0.75394273  0.00325154  1
  V  V49  1  0.74187282  0.75361100  0.49291216  1
  V  V50  1  0.37707175  0.24908349  0.62786744  1
  V  V51  1  0.37216576  0.24765038  0.13310605  1
  V  V52  1  0.63993428  0.37495145  0.74758387  1
  V  V53  1  0.12000731  0.38123661  0.24680686  1
  V  V54  1  0.24479991  0.38113113  0.12249404  1
  V  V55  1  0.12155405  0.74256421  0.37976246  1
  V  V56  1  0.63142075  0.12668402  0.50266583  1
  V  V57  1  0.87813005  0.37356119  -0.00203955  1
  V  V58  1  0.62143097  0.25095255  0.37461163  1
  V  V59  1  0.62611006  0.75888023  0.86800991  1
  V  V60  1  -0.00042543  0.87386750  0.37257348  1
  V  V61  1  0.87105768  0.49776625  0.87221178  1
  V  V62  1  0.25195994  0.87493770  0.12608396  1
  V  V63  1  0.00532653  0.62387175  0.61457356  1
  V  V64  1  0.11609989  0.37679366  0.75348455  1
  V  V65  1  0.75804726  0.50509267  0.24836268  1
  V  V66  1  0.12735017  0.87683715  0.74105425  1
  V  V67  1  0.13008291  0.87709211  0.25218310  1
  V  V68  1  0.37671201  0.50023590  0.37565100  1
  V  V69  1  0.11733198  0.25203149  0.87418435  1
  V  V70  1  0.87410875  -0.00100250  0.38020305  1
  V  V71  1  0.74750353  0.87926429  0.64041400  1
  V  V72  1  0.87676048  0.12563616  0.24822534  1
  V  V73  1  0.62544751  0.62751190  -0.00361682  1
  V  V74  1  0.00108237  0.87588952  0.87682618  1
  V  V75  1  0.63081278  0.87202817  0.24855112  1
  V  V76  1  0.37551332  0.37633523  0.50120509  1
  V  V77  1  0.00064075  0.74707356  0.74977002  1
  V  V78  1  0.24861273  0.00426835  0.75961607  1
  V  V79  1  -0.00180537  0.12676622  0.12591829  1
  V  V80  1  0.49358790  0.12439098  0.62387951  1
  V  V81  1  0.75257250  -0.00265808  0.23628572  1
  V  V82  1  0.49713636  0.50590457  0.51343438  1
  V  V83  1  0.37232706  0.00605393  0.36373843  1
  V  V84  1  0.62939825  -0.00089240  0.63673966  1
  Zn  Zn85  1  0.74889662  0.62507488  0.86857668  1
  Zn  Zn86  1  0.49232975  0.00247439  -0.00524001  1
  Zn  Zn87  1  0.86627173  0.00100305  0.85098810  1
  Zn  Zn88  1  0.86343272  0.48546303  0.38907688  1
  Zn  Zn89  1  -0.00359585  0.25398978  0.25112330  1
  Zn  Zn90  1  0.49817048  0.37663681  0.37622010  1
  Zn  Zn91  1  0.87302850  0.87037917  0.49758987  1
  Zn  Zn92  1  0.38020999  0.74718424  0.61999869  1
  Zn  Zn93  1  0.24980540  0.87585559  0.62533799  1
  Zn  Zn94  1  0.87358789  0.25117391  0.12333266  1
  Zn  Zn95  1  0.75472546  0.12479394  0.85409929  1
  Zn  Zn96  1  0.11691576  0.12407049  0.50926997  1
  Zn  Zn97  1  0.75051505  0.37521165  0.12387950  1
  Zn  Zn98  1  0.24827699  0.50186889  0.75041519  1
  Zn  Zn99  1  0.37554501  0.50094339  0.87238398  1
  Zn  Zn100  1  0.74916842  0.27103943  0.49642334  1
  Zn  Zn101  1  0.49831261  0.62918410  0.12213376  1
  Zn  Zn102  1  0.25320081  0.74949537  0.00205782  1
  Zn  Zn103  1  0.50376315  0.25123546  0.75274430  1
  Zn  Zn104  1  0.49544146  0.24927018  0.25240136  1
  Zn  Zn105  1  0.37366837  0.75157168  0.12317793  1
  Zn  Zn106  1  0.37090979  0.87832478  -0.00592700  1
  Zn  Zn107  1  0.18488289  0.19452718  0.18439472  1
  Zn  Zn108  1  0.18744181  0.18454154  0.69253924  1
  Zn  Zn109  1  0.18426101  0.68896573  0.18831342  1
  Zn  Zn110  1  0.19020051  0.68880919  0.68676809  1
  Zn  Zn111  1  0.68912816  0.18826247  0.18130112  1
  Zn  Zn112  1  0.68734697  0.19663809  0.68296409  1
  Zn  Zn113  1  0.68559195  0.68885635  0.18440199  1
  Zn  Zn114  1  0.68656567  0.68503877  0.68258163  1
  Zn  Zn115  1  0.30869400  0.31520147  0.31291010  1
  Zn  Zn116  1  0.31359831  0.31080705  0.81263082  1
  Zn  Zn117  1  0.31385637  0.81414653  0.31435494  1
  Zn  Zn118  1  0.31289303  0.80819047  0.81037773  1
  Zn  Zn119  1  0.80810080  0.31288526  0.31348922  1
  Zn  Zn120  1  0.81616827  0.31018761  0.81637950  1
  Zn  Zn121  1  0.81227640  0.81026626  0.31191316  1
  Zn  Zn122  1  0.81559757  0.81095934  0.81603487  1
  Zn  Zn123  1  0.18700544  0.43430107  0.43669583  1
  Zn  Zn124  1  0.18540010  0.43893938  0.93560104  1
  Zn  Zn125  1  0.19068558  0.93647322  0.43442661  1
  Zn  Zn126  1  0.19025995  0.93760715  0.93693987  1
  Zn  Zn127  1  0.67995893  0.44475380  0.43362856  1
  Zn  Zn128  1  0.68980917  0.43776913  0.93231340  1
  Zn  Zn129  1  0.68798615  0.94062255  0.43911382  1
  Zn  Zn130  1  0.68284964  0.93713958  0.93662263  1
  Zn  Zn131  1  0.31458986  0.06114318  0.05951370  1
  Zn  Zn132  1  0.28125616  0.07393571  0.58037724  1
  Zn  Zn133  1  0.31338499  0.56277052  0.06214807  1
  Zn  Zn134  1  0.30817943  0.56383872  0.56317253  1
  Zn  Zn135  1  0.81114540  0.05904895  -0.00384444  1
  Zn  Zn136  1  0.81728249  0.06748378  0.68185019  1
  Zn  Zn137  1  0.81339849  0.56513117  0.06121855  1
  Zn  Zn138  1  0.82533205  0.43476465  0.55745564  1
  Zn  Zn139  1  0.43765980  0.43785574  0.18445980  1
  Zn  Zn140  1  0.43703211  0.43948828  0.69095733  1
  Zn  Zn141  1  0.43874196  0.93902255  0.18500895  1
  Zn  Zn142  1  0.43606671  0.93931763  0.68968038  1
  Zn  Zn143  1  0.93701285  0.43777316  0.18552893  1
  Zn  Zn144  1  0.94158269  0.43411702  0.68885783  1
  Zn  Zn145  1  0.93973727  0.93640896  0.18531505  1
  Zn  Zn146  1  0.94114749  0.92808076  0.68261347  1
  Zn  Zn147  1  0.06464394  0.06346244  0.31589404  1
  Zn  Zn148  1  0.06351874  0.05939961  0.81268502  1
  Zn  Zn149  1  0.05854785  0.56093237  0.31535728  1
  Zn  Zn150  1  0.06055592  0.56123942  0.81112433  1
  Zn  Zn151  1  0.56204150  0.06099741  0.31113185  1
  Zn  Zn152  1  0.56462188  0.06573192  0.81078916  1
  Zn  Zn153  1  0.56260664  0.56252832  0.31540275  1
  Zn  Zn154  1  0.56319259  0.56303283  0.81005686  1
  Zn  Zn155  1  0.43600847  0.18640835  0.43804787  1
  Zn  Zn156  1  0.44277252  0.19301952  0.94633374  1
  Zn  Zn157  1  0.43826627  0.68969731  0.43512549  1
  Zn  Zn158  1  0.43618548  0.69441589  0.93489297  1
  Zn  Zn159  1  0.93818741  0.18502017  0.43912834  1
  Zn  Zn160  1  0.93879136  0.18863909  0.93510384  1
  Zn  Zn161  1  0.88655678  0.62630059  0.48876080  1
  Zn  Zn162  1  0.93772771  0.68482238  0.93732121  1
  Zn  Zn163  1  0.06095291  0.31264474  0.06318837  1
  Zn  Zn164  1  0.06179671  0.31217207  0.56547102  1
  Zn  Zn165  1  0.06567554  0.80836758  0.06500233  1
  Zn  Zn166  1  0.05918168  0.81107992  0.55907076  1
  Zn  Zn167  1  0.56103983  0.31279645  0.06396997  1
  Zn  Zn168  1  0.56403111  0.31731323  0.56514848  1
  Zn  Zn169  1  0.55905873  0.81554787  0.06141641  1
  Zn  Zn170  1  0.56428675  0.81616479  0.56422081  1
  O  O171  1  0.11753603  0.12016124  0.12234153  1
  O  O172  1  0.17369457  0.11881833  0.60525515  1
  O  O173  1  0.11621918  0.62793825  0.11574215  1
  O  O174  1  0.12146952  0.61173799  0.63205352  1
  O  O175  1  0.61629832  0.11585090  0.12216339  1
  O  O176  1  0.61295548  0.12176289  0.61764338  1
  O  O177  1  0.62091095  0.62184472  0.11129278  1
  O  O178  1  0.63088764  0.61159723  0.61254111  1
  O  O179  1  0.37423931  0.38231572  0.38189735  1
  O  O180  1  0.38208824  0.37775105  0.88088153  1
  O  O181  1  0.38255842  0.88393867  0.38154928  1
  O  O182  1  0.38907896  0.86967197  0.87264698  1
  O  O183  1  0.89148182  0.37067458  0.36798637  1
  O  O184  1  0.87422371  0.38357031  0.88726623  1
  O  O185  1  0.88355840  0.88101407  0.37137426  1
  O  O186  1  0.88435217  0.87549724  0.88559507  1
  O  O187  1  0.26325776  0.00953774  0.37856586  1
  O  O188  1  0.25548020  -0.00875426  0.86012085  1
  O  O189  1  0.25629558  0.50491232  0.37119895  1
  O  O190  1  0.25065310  0.51296050  0.87374632  1
  O  O191  1  0.75767499  0.00534648  0.36668788  1
  O  O192  1  0.75856759  0.00835424  0.89886181  1
  O  O193  1  0.74650081  0.51088060  0.36286147  1
  O  O194  1  0.76630817  0.50728658  0.88011567  1
  O  O195  1  0.25401406  0.48789960  0.12897422  1
  O  O196  1  0.23965989  0.49328539  0.62701683  1
  O  O197  1  0.23715186  0.99488645  0.12429338  1
  O  O198  1  0.26643378  0.98678299  0.65177174  1
  O  O199  1  0.74229382  0.50233180  0.13004551  1
  O  O200  1  0.74208661  0.49778432  0.62337606  1
  O  O201  1  0.74181642  1.00277605  0.13520368  1
  O  O202  1  0.74547618  0.98549641  0.62193085  1
  O  O203  1  0.00735771  0.37391817  0.25223714  1
  O  O204  1  0.01414747  0.36348276  0.74929661  1
  O  O205  1  0.00931701  0.86796349  0.25404108  1
  O  O206  1  0.00854702  0.86806228  0.75840859  1
  O  O207  1  0.51085273  0.37502054  0.25010704  1
  O  O208  1  0.50284279  0.37524322  0.75871764  1
  O  O209  1  0.50644290  0.87041125  0.25522289  1
  O  O210  1  0.49703376  0.86601170  0.75964024  1
  O  O211  1  0.50329092  0.12871607  0.23801552  1
  O  O212  1  0.49087147  0.12869814  0.74461753  1
  O  O213  1  0.49393114  0.63329146  0.25071439  1
  O  O214  1  0.48857143  0.63434250  0.75795713  1
  O  O215  1  0.99341604  0.12611244  0.24569389  1
  O  O216  1  1.00688229  0.13677673  0.75091675  1
  O  O217  1  1.00526248  0.63247679  0.24202482  1
  O  O218  1  0.99399466  0.63225438  0.74422068  1
  O  O219  1  0.36616918  0.25695664  0.00780149  1
  O  O220  1  0.37023211  0.25831979  0.50608357  1
  O  O221  1  0.37220718  0.75751283  0.00543549  1
  O  O222  1  0.36818097  0.75922886  0.49702181  1
  O  O223  1  0.87032785  0.25954306  0.00108789  1
  O  O224  1  0.87286087  0.24875981  0.50678281  1
  O  O225  1  0.86959687  0.75570939  0.00486302  1
  O  O226  1  0.86110973  0.74337668  0.51038353  1
  O  O227  1  0.13328393  0.24906716  0.49354588  1
  O  O228  1  0.12902840  0.24524980  0.99324921  1
  O  O229  1  0.13440592  0.75818032  0.48908443  1
  O  O230  1  0.12484284  0.73689807  0.99325573  1
  O  O231  1  0.62386870  0.24596611  0.49225809  1
  O  O232  1  0.62899576  0.23994177  1.00475846  1
  O  O233  1  0.62746282  0.74124823  0.50466478  1
  O  O234  1  0.63106499  0.74566703  0.99575478  1
  O  O235  1  0.48892618  0.24441601  0.12584239  1
  O  O236  1  0.49369863  0.24224508  0.62553096  1
  O  O237  1  0.49687078  0.75102105  0.13743765  1
  O  O238  1  0.50227262  0.75385733  0.63829354  1
  O  O239  1  0.99792863  0.24039962  0.12906507  1
  O  O240  1  0.99947921  0.24906466  0.63684502  1
  O  O241  1  0.99735920  0.74015941  0.13332560  1
  O  O242  1  0.99153532  0.74848319  0.63079036  1
  O  O243  1  0.01088254  0.25458574  0.37396054  1
  O  O244  1  0.01233643  0.24762945  0.86674494  1
  O  O245  1  0.00696927  0.76051045  0.36699158  1
  O  O246  1  0.00386564  0.75798907  0.87114156  1
  O  O247  1  0.50908759  0.25105304  0.37262986  1
  O  O248  1  0.50080513  0.26562394  0.87705073  1
  O  O249  1  0.49575447  0.76145559  0.36173779  1
  O  O250  1  0.50831828  0.75811736  0.86558046  1
  O  O251  1  0.26637161  0.14117218  0.48286002  1
  O  O252  1  0.23856587  0.13658742  1.01074921  1
  O  O253  1  0.25548494  0.63876372  0.49197091  1
  O  O254  1  0.24257467  0.62464970  0.99462812  1
  O  O255  1  0.73381977  0.12673336  0.49038638  1
  O  O256  1  0.73053573  0.13566719  1.01478761  1
  O  O257  1  0.73869405  0.64082534  0.48896265  1
  O  O258  1  0.74282584  0.63666770  0.99744991  1
  O  O259  1  0.25242139  0.37102341  0.00579578  1
  O  O260  1  0.25341443  0.36649001  0.50968108  1
  O  O261  1  0.24560259  0.87131712  0.01244607  1
  O  O262  1  0.25890402  0.86799937  0.49920530  1
  O  O263  1  0.75552118  0.36897969  -0.00078648  1
  O  O264  1  0.75583464  0.38258799  0.48439002  1
  O  O265  1  0.75803277  0.86208795  -0.00134298  1
  O  O266  1  0.75092738  0.86449464  0.49908787  1
  O  O267  1  0.13160311  0.48894162  0.25554962  1
  O  O268  1  0.12713459  0.49041437  0.74591307  1
  O  O269  1  0.12047494  0.99064091  0.24400915  1
  O  O270  1  0.13788760  0.99227226  0.75507802  1
  O  O271  1  0.62724842  0.49445209  0.24281767  1
  O  O272  1  0.62366838  0.49845033  0.73488601  1
  O  O273  1  0.63234091  0.99314728  0.24449703  1
  O  O274  1  0.61969818  1.00057656  0.73535370  1
  O  O275  1  0.37649555  -0.00565514  0.26547234  1
  O  O276  1  0.37509073  0.01544661  0.75531232  1
  O  O277  1  0.37040370  0.50624927  0.25511983  1
  O  O278  1  0.37049514  0.50965961  0.75301197  1
  O  O279  1  0.87022338  0.00669987  0.25298024  1
  O  O280  1  0.87913282  -0.00394280  0.74182678  1
  O  O281  1  0.85951811  0.49585198  0.25066425  1
  O  O282  1  0.88643095  0.50780326  0.75935887  1
  O  O283  1  0.11697849  0.36904946  0.36856311  1
  O  O284  1  0.13183795  0.36520308  0.86511484  1
  O  O285  1  0.11999113  0.86770599  0.36792682  1
  O  O286  1  0.11801958  0.86750583  0.87129718  1
  O  O287  1  0.61960408  0.36797097  0.36600925  1
  O  O288  1  0.61779652  0.38801351  0.85730554  1
  O  O289  1  0.61217106  0.88530796  0.36555608  1
  O  O290  1  0.61868814  0.86273765  0.87652052  1
  O  O291  1  0.38233060  0.13623872  0.12043213  1
  O  O292  1  0.38432745  0.12761828  0.62460681  1
  O  O293  1  0.37632960  0.62507772  0.13812288  1
  O  O294  1  0.36958749  0.62737965  0.63728482  1
  O  O295  1  0.89048169  0.12157948  0.13122149  1
  O  O296  1  0.87671277  0.14991977  0.62768443  1
  O  O297  1  0.88586927  0.63758040  0.11839143  1
  O  O298  1  0.88574027  0.63619469  0.63210512  1
  O  O299  1  0.25418713  0.26103274  0.11622177  1
  O  O300  1  0.25683031  0.25903114  0.61921644  1
  O  O301  1  0.24873088  0.76012084  0.12518079  1
  O  O302  1  0.25277811  0.75495338  0.61447884  1
  O  O303  1  0.75368386  0.25517788  0.11352787  1
  O  O304  1  0.76033680  0.25601700  0.61554365  1
  O  O305  1  0.76049578  0.74559867  0.11727145  1
  O  O306  1  0.75247439  0.75954846  0.61859747  1
  O  O307  1  0.24046227  0.24912776  0.38122058  1
  O  O308  1  0.24261019  0.25336516  0.88772974  1
  O  O309  1  0.24146826  0.74616433  0.37974818  1
  O  O310  1  0.24374195  0.73917994  0.87724930  1
  O  O311  1  0.73658553  0.24272214  0.37410256  1
  O  O312  1  0.75412876  0.24356327  0.88951061  1
  O  O313  1  0.74648947  0.74648247  0.38024723  1
  O  O314  1  0.74248713  0.74812684  0.88219351  1
  O  O315  1  0.01012769  0.12075129  0.00935097  1
  O  O316  1  0.00182219  0.10610738  0.49333258  1
  O  O317  1  0.00696820  0.61943451  0.00696086  1
  O  O318  1  0.00312485  0.63693238  0.51650259  1
  O  O319  1  0.51103846  0.12675757  0.01120022  1
  O  O320  1  0.50597251  0.12131925  0.50651233  1
  O  O321  1  0.50650269  0.61978028  -0.00211210  1
  O  O322  1  0.50674009  0.61939125  0.49498582  1
  O  O323  1  0.49233928  0.38572732  0.49995069  1
  O  O324  1  0.49769737  0.38343466  0.99364258  1
  O  O325  1  0.49655683  0.87961676  0.49053702  1
  O  O326  1  0.50068553  0.87460122  0.98277984  1
  O  O327  1  1.00559613  0.37275397  0.48557588  1
  O  O328  1  0.99394162  0.38628290  1.00495628  1
  O  O329  1  0.99568786  0.87942389  0.48772323  1
  O  O330  1  0.99723653  0.87382220  0.99408234  1
  O  O331  1  0.48975297  0.49975832  0.38372099  1
  O  O332  1  0.50020241  0.49432687  0.88523260  1
  O  O333  1  0.49063795  0.99562160  0.37834060  1
  O  O334  1  0.50884264  0.98401227  0.87198733  1
  O  O335  1  0.99756636  0.48506944  0.37338253  1
  O  O336  1  0.99063389  0.50718399  0.88861704  1
  O  O337  1  0.99386139  0.98820319  0.37274416  1
  O  O338  1  1.00214419  0.98724279  0.88274270  1
  O  O339  1  0.01342615  0.00499823  0.12155057  1
  O  O340  1  0.00018470  -0.01161584  0.60417477  1
  O  O341  1  -0.00629869  0.51259691  0.11579503  1
  O  O342  1  0.01440549  0.50777032  0.62936916  1
  O  O343  1  0.50672780  0.00845100  0.12512816  1
  O  O344  1  0.50551872  0.00655243  0.61985540  1
  O  O345  1  0.50595395  0.50255576  0.11178698  1
  O  O346  1  0.49768020  0.50226010  0.61479193  1
  O  O347  1  0.24258945  0.38114912  0.24196068  1
  O  O348  1  0.24375960  0.37284745  0.73858354  1
  O  O349  1  0.23624193  0.86935681  0.24676798  1
  O  O350  1  0.24142987  0.87732326  0.75152311  1
  O  O351  1  0.73778034  0.38430718  0.24923506  1
  O  O352  1  0.73861693  0.37441279  0.75615345  1
  O  O353  1  0.74038219  0.88292165  0.25502436  1
  O  O354  1  0.75124896  0.86906736  0.73864901  1
  O  O355  1  0.24698013  0.13479612  0.26056568  1
  O  O356  1  0.26424756  0.11525219  0.75544177  1
  O  O357  1  0.25547189  0.62051007  0.25464531  1
  O  O358  1  0.25828413  0.62649829  0.75829385  1
  O  O359  1  0.75678827  0.11707907  0.25234746  1
  O  O360  1  0.73874756  0.12090823  0.74379266  1
  O  O361  1  0.73748468  0.61732467  0.25667188  1
  O  O362  1  0.76695192  0.63036237  0.74771763  1
  O  O363  1  0.37255071  0.11364658  0.37175986  1
  O  O364  1  0.38313955  0.13009181  0.86973858  1
  O  O365  1  0.36914040  0.62083068  0.36439639  1
  O  O366  1  0.36640122  0.62582038  0.86831289  1
  O  O367  1  0.87121192  0.11766185  0.36620935  1
  O  O368  1  0.86757493  0.11008352  0.90143912  1
  O  O369  1  0.85534709  0.62712652  0.37289823  1
  O  O370  1  0.87549354  0.61930981  0.86531733  1
  O  O371  1  0.13332266  0.37080172  0.13336845  1
  O  O372  1  0.13034676  0.38409218  0.63081377  1
  O  O373  1  0.13109212  0.88158753  0.13264061  1
  O  O374  1  0.12373545  0.86976158  0.63847140  1
  O  O375  1  0.62599612  0.38311533  0.13108149  1
  O  O376  1  0.62055423  0.39126609  0.63607749  1
  O  O377  1  0.61860495  0.88932120  0.13288908  1
  O  O378  1  0.63942249  0.88438664  0.61988123  1
  O  O379  1  0.12448997  0.26248482  0.25874871  1
  O  O380  1  0.12168046  0.25373580  0.75632297  1
  O  O381  1  0.11464810  0.75622910  0.25687921  1
  O  O382  1  0.12103689  0.75594350  0.75661190  1
  O  O383  1  0.62424770  0.25826551  0.25533256  1
  O  O384  1  0.62073881  0.27141665  0.74101100  1
  O  O385  1  0.61848440  0.76371735  0.24388495  1
  O  O386  1  0.61822688  0.73902690  0.75878395  1
  O  O387  1  0.37401171  0.25860768  0.23699452  1
  O  O388  1  0.37476570  0.23637328  0.74523193  1
  O  O389  1  0.38158273  0.74248148  0.24990361  1
  O  O390  1  0.38368808  0.74251017  0.74596847  1
  O  O391  1  0.87238504  0.23610229  0.24777208  1
  O  O392  1  0.89099660  0.25276729  0.75130232  1
  O  O393  1  0.88774469  0.75348699  0.24358305  1
  O  O394  1  0.88127947  0.74485807  0.74390636  1
  O  O395  1  0.37814012  0.49746829  0.49602519  1
  O  O396  1  0.38452989  0.49556133  0.99811009  1
  O  O397  1  0.38187201  0.99250930  0.49098472  1
  O  O398  1  0.37994586  0.99182082  1.00499640  1
  O  O399  1  0.87624390  0.51511978  0.49768960  1
  O  O400  1  0.88199387  0.49607817  0.99398530  1
  O  O401  1  0.88539649  0.99547233  0.48293260  1
  O  O402  1  0.88794801  0.97931787  1.01982874  1
  O  O403  1  0.12212205  0.00745200  0.00623642  1
  O  O404  1  0.11084001  -0.00305558  0.48969272  1
  O  O405  1  0.11677296  0.51128411  -0.00492664  1
  O  O406  1  0.12938115  0.49795734  0.51429675  1
  O  O407  1  0.61878523  0.00991607  0.00865604  1
  O  O408  1  0.61796414  0.00902596  0.50500134  1
  O  O409  1  0.62091684  0.50840398  0.00173319  1
  O  O410  1  0.61519113  0.50620907  0.51074904  1
  O  O411  1  0.36780320  0.36984574  0.11757660  1
  O  O412  1  0.36622786  0.37230276  0.62285171  1
  O  O413  1  0.35857324  0.87579857  0.13357138  1
  O  O414  1  0.38086628  0.87240752  0.60977843  1
  O  O415  1  0.87221459  0.37609470  0.11180906  1
  O  O416  1  0.88274818  0.36078924  0.62662974  1
  O  O417  1  0.88515359  0.85742152  0.11880974  1
  O  O418  1  0.86404833  0.86225766  0.61993731  1
  O  O419  1  0.13435771  0.13326162  0.37918501  1
  O  O420  1  0.12332764  0.13094041  0.88746141  1
  O  O421  1  0.12822384  0.63631870  0.37093201  1
  O  O422  1  0.13091618  0.62986609  0.87981943  1
  O  O423  1  0.62492917  0.13190359  0.37995941  1
  O  O424  1  0.62418446  0.12334860  0.89105996  1
  O  O425  1  0.63048184  0.61893986  0.38983217  1
  O  O426  1  0.62614228  0.63228298  0.88438807  1
