# generated using pymatgen
data_V85Zn86O256
_symmetry_space_group_name_H-M   'P 1'
_cell_length_a   16.92302970
_cell_length_b   16.92426548
_cell_length_c   16.92440164
_cell_angle_alpha   90.02016027
_cell_angle_beta   89.97724148
_cell_angle_gamma   89.96988307
_symmetry_Int_Tables_number   1
_chemical_formula_structural   V85Zn86O256
_chemical_formula_sum   'V85 Zn86 O256'
_cell_volume   4847.31393635
_cell_formula_units_Z   1
loop_
 _symmetry_equiv_pos_site_id
 _symmetry_equiv_pos_as_xyz
  1  'x, y, z'
loop_
 _atom_site_type_symbol
 _atom_site_label
 _atom_site_symmetry_multiplicity
 _atom_site_fract_x
 _atom_site_fract_y
 _atom_site_fract_z
 _atom_site_occupancy
  V  V0  1  0.12983289  0.24729070  0.87369602  1
  V  V1  1  0.55441894  0.05861534  0.06624990  1
  V  V2  1  -0.00211951  0.87756594  0.87338897  1
  V  V3  1  0.37514487  0.37725888  0.00037412  1
  V  V4  1  0.26612503  0.12170064  0.87348895  1
  V  V5  1  0.12340911  0.49811032  0.62536997  1
  V  V6  1  0.85602610  0.24833506  0.12442191  1
  V  V7  1  0.50253538  0.24620360  0.24796781  1
  V  V8  1  0.62727513  0.50011945  0.62480725  1
  V  V9  1  0.37831795  0.00033569  0.38369213  1
  V  V10  1  0.37695014  0.50704453  0.37031859  1
  V  V11  1  0.51914372  0.34760274  0.89595191  1
  V  V12  1  -0.00977491  0.87422570  0.37732757  1
  V  V13  1  -0.00070897  0.37225918  0.88211979  1
  V  V14  1  0.12579324  0.37407423  0.75156886  1
  V  V15  1  0.85787684  0.37061785  0.00426525  1
  V  V16  1  0.12140728  0.74977265  0.87375523  1
  V  V17  1  0.75488367  0.24991708  0.49825599  1
  V  V18  1  0.00359766  0.13032970  0.12495444  1
  V  V19  1  0.12702048  0.62291935  0.49411550  1
  V  V20  1  0.25388983  0.75156272  0.01184126  1
  V  V21  1  0.74731563  0.75425762  0.00604588  1
  V  V22  1  0.79796846  0.93549615  0.18033256  1
  V  V23  1  0.12058482  0.12259760  0.50152233  1
  V  V24  1  0.25054791  0.12351984  0.37342881  1
  V  V25  1  0.62560550  0.88435662  0.23995276  1
  V  V26  1  0.87934351  0.63558584  0.74747171  1
  V  V27  1  0.50030979  0.62694346  0.62540978  1
  V  V28  1  0.37302210  0.62671982  0.74354113  1
  V  V29  1  0.87197366  0.12636452  0.75582611  1
  V  V30  1  0.25250414  0.86473797  0.62455134  1
  V  V31  1  0.87553996  0.61589344  0.24566060  1
  V  V32  1  0.75494078  0.87639066  0.61718595  1
  V  V33  1  0.24844206  0.62592579  0.87530118  1
  V  V34  1  0.48607197  0.62828595  0.12958879  1
  V  V35  1  0.86874523  0.87998652  -0.00251148  1
  V  V36  1  0.64016106  0.37721171  0.24600853  1
  V  V37  1  0.88034850  0.24714631  0.62187751  1
  V  V38  1  0.25212655  -0.00880776  0.24782807  1
  V  V39  1  0.37463434  0.24815659  0.61972271  1
  V  V40  1  0.50380863  0.24612058  0.74093748  1
  V  V41  1  0.63626173  0.50277358  0.12918708  1
  V  V42  1  0.24973182  0.37463880  0.12800516  1
  V  V43  1  0.75162537  0.62155960  0.36962238  1
  V  V44  1  0.75638082  0.11055776  0.37070740  1
  V  V45  1  0.48979946  0.74878029  0.24681802  1
  V  V46  1  0.13295388  -0.00672544  0.12292936  1
  V  V47  1  0.49538721  0.75006189  0.74619958  1
  V  V48  1  0.62897321  0.24890774  0.37382079  1
  V  V49  1  0.00162526  0.24281918  0.74742680  1
  V  V50  1  0.62785940  0.75064571  0.37290411  1
  V  V51  1  0.50375015  0.87949197  0.38179433  1
  V  V52  1  0.25177795  -0.00226097  0.75143062  1
  V  V53  1  0.37988763  0.49850107  0.87462294  1
  V  V54  1  0.12142207  0.00209381  0.62322222  1
  V  V55  1  0.13000564  0.12295146  -0.00189411  1
  V  V56  1  0.62326226  0.75193872  0.87733712  1
  V  V57  1  0.61634777  0.12270821  0.50196522  1
  V  V58  1  0.61255917  0.00372312  0.62115731  1
  V  V59  1  0.62479022  0.37245295  0.75143844  1
  V  V60  1  0.86985416  0.49362256  0.37479642  1
  V  V61  1  0.50073224  0.49989003  0.49936043  1
  V  V62  1  0.62741171  0.62616355  0.49935622  1
  V  V63  1  0.11710530  0.50478798  0.12461707  1
  V  V64  1  0.00254439  0.74370695  0.25019016  1
  V  V65  1  0.37889988  0.24406693  0.12653744  1
  V  V66  1  -0.01204881  -0.00290479  0.49687577  1
  V  V67  1  -0.00489623  0.37163869  0.37781765  1
  V  V68  1  0.48645672  0.88468291  0.87629715  1
  V  V69  1  0.50151313  0.37631539  0.37304540  1
  V  V70  1  0.12479994  0.25000073  0.37303246  1
  V  V71  1  0.25462700  0.50624217  0.24884125  1
  V  V72  1  0.37172368  0.88015668  0.01320260  1
  V  V73  1  0.72566630  0.13830448  0.88269017  1
  V  V74  1  0.38131577  0.11899925  0.74050628  1
  V  V75  1  0.25012999  0.49744404  0.75164540  1
  V  V76  1  0.87729372  0.74385693  0.12443909  1
  V  V77  1  0.49974401  0.50799817  0.00106516  1
  V  V78  1  -0.00683153  0.49741238  0.50198035  1
  V  V79  1  0.25673597  0.24833767  -0.00116190  1
  V  V80  1  0.37800708  0.86733169  0.50449829  1
  V  V81  1  0.62563215  0.87708623  0.75085884  1
  V  V82  1  0.75606188  0.37454151  0.62264226  1
  V  V83  1  0.87257240  0.50085162  0.87327224  1
  V  V84  1  0.11631875  0.86898242  0.74533245  1
  Zn  Zn85  1  0.76205345  0.75153958  0.49972210  1
  Zn  Zn86  1  0.87202024  0.11403857  0.24861303  1
  Zn  Zn87  1  0.11607245  0.63057803  0.00397509  1
  Zn  Zn88  1  0.00243576  0.63458435  0.62870279  1
  Zn  Zn89  1  0.25337311  0.74457376  0.49955325  1
  Zn  Zn90  1  0.12818468  0.75375490  0.37585099  1
  Zn  Zn91  1  0.37225217  0.37530974  0.49953210  1
  Zn  Zn92  1  -0.00666525  0.50706212  0.00666586  1
  Zn  Zn93  1  0.25511358  0.62872229  0.37203431  1
  Zn  Zn94  1  0.12352741  0.37417006  0.25097575  1
  Zn  Zn95  1  0.75073344  0.50261034  0.74869174  1
  Zn  Zn96  1  0.62498579  0.62981597  0.00449870  1
  Zn  Zn97  1  0.38365031  0.11887059  0.24909222  1
  Zn  Zn98  1  0.74904216  0.62782413  0.87403521  1
  Zn  Zn99  1  0.25196703  0.37374906  0.62277359  1
  Zn  Zn100  1  0.89549651  0.76596113  0.62131648  1
  Zn  Zn101  1  -0.00272053  0.24618229  0.25069091  1
  Zn  Zn102  1  0.12866991  0.87033294  0.25051874  1
  Zn  Zn103  1  0.00010695  0.00272924  -0.00211450  1
  Zn  Zn104  1  0.74728481  0.00381085  0.75220928  1
  Zn  Zn105  1  0.24895339  0.25213398  0.49926327  1
  Zn  Zn106  1  0.86618405  0.00529552  0.87636415  1
  Zn  Zn107  1  0.19021706  0.18339502  0.18966349  1
  Zn  Zn108  1  0.19090167  0.18550951  0.68501427  1
  Zn  Zn109  1  0.18840037  0.68459212  0.18903749  1
  Zn  Zn110  1  0.18180112  0.68593312  0.68602085  1
  Zn  Zn111  1  0.67982826  0.17318680  0.18638282  1
  Zn  Zn112  1  0.68998373  0.18667214  0.68932921  1
  Zn  Zn113  1  0.68632832  0.68822815  0.18765231  1
  Zn  Zn114  1  0.69144479  0.68959647  0.68999737  1
  Zn  Zn115  1  0.31401455  0.31544775  0.31278429  1
  Zn  Zn116  1  0.32178138  0.31063000  0.81163239  1
  Zn  Zn117  1  0.31233559  0.81326551  0.31773854  1
  Zn  Zn118  1  0.30826285  0.80894398  0.81128237  1
  Zn  Zn119  1  0.81493409  0.30720486  0.31106734  1
  Zn  Zn120  1  0.81025579  0.31091592  0.81377335  1
  Zn  Zn121  1  0.81532156  0.80623406  0.31546736  1
  Zn  Zn122  1  0.80899629  0.81385993  0.81303632  1
  Zn  Zn123  1  0.18863488  0.43639917  0.43727669  1
  Zn  Zn124  1  0.18717203  0.43812941  0.93986416  1
  Zn  Zn125  1  0.18563171  0.93351407  0.43595978  1
  Zn  Zn126  1  0.19296719  0.93533552  0.93604661  1
  Zn  Zn127  1  0.68946106  0.43470743  0.43824718  1
  Zn  Zn128  1  0.68648205  0.44174022  0.94065389  1
  Zn  Zn129  1  0.68614206  0.93794896  0.43954147  1
  Zn  Zn130  1  0.68278326  0.94754707  0.94022932  1
  Zn  Zn131  1  0.32375669  0.06139127  0.06139781  1
  Zn  Zn132  1  0.30913428  0.05888573  0.56182440  1
  Zn  Zn133  1  0.30781080  0.56578909  0.06229979  1
  Zn  Zn134  1  0.31222931  0.55817688  0.56202457  1
  Zn  Zn135  1  0.81043748  0.07170082  0.05262656  1
  Zn  Zn136  1  0.80619913  0.06601752  0.56867910  1
  Zn  Zn137  1  0.81294432  0.56607702  0.05695623  1
  Zn  Zn138  1  0.81420573  0.56735975  0.56081247  1
  Zn  Zn139  1  0.44122232  0.43647020  0.18741578  1
  Zn  Zn140  1  0.44061522  0.43406846  0.68816795  1
  Zn  Zn141  1  0.43916981  0.93638982  0.19278863  1
  Zn  Zn142  1  0.43691187  0.93591051  0.68699437  1
  Zn  Zn143  1  0.93432500  0.42884132  0.19061762  1
  Zn  Zn144  1  0.93779776  0.43564157  0.69114243  1
  Zn  Zn145  1  0.96140019  0.93429637  0.18283873  1
  Zn  Zn146  1  0.93821517  0.94578532  0.68703368  1
  Zn  Zn147  1  0.06076446  0.05927756  0.31198223  1
  Zn  Zn148  1  0.06488711  0.06156152  0.81295447  1
  Zn  Zn149  1  0.06099161  0.55928850  0.31083445  1
  Zn  Zn150  1  0.05796433  0.56210823  0.81701801  1
  Zn  Zn151  1  0.56575299  0.06142041  0.31391785  1
  Zn  Zn152  1  0.56047293  0.06226166  0.81159324  1
  Zn  Zn153  1  0.56322250  0.56390481  0.30752978  1
  Zn  Zn154  1  0.56440732  0.56260629  0.81361783  1
  Zn  Zn155  1  0.43903646  0.18809433  0.43499637  1
  Zn  Zn156  1  0.47416704  0.18988299  0.94654662  1
  Zn  Zn157  1  0.44041768  0.68943078  0.43596340  1
  Zn  Zn158  1  0.43474379  0.69058712  0.93533269  1
  Zn  Zn159  1  0.93699405  0.18155917  0.43804535  1
  Zn  Zn160  1  0.93728128  0.18934533  0.94048592  1
  Zn  Zn161  1  0.93948927  0.68685427  0.43957602  1
  Zn  Zn162  1  0.93869087  0.68810213  0.93680508  1
  Zn  Zn163  1  0.06563922  0.31187751  0.06092629  1
  Zn  Zn164  1  0.06236326  0.31337603  0.55997529  1
  Zn  Zn165  1  0.05964998  0.81177641  0.05965102  1
  Zn  Zn166  1  0.06154935  0.81135541  0.55911585  1
  Zn  Zn167  1  0.56779635  0.31458785  0.06834369  1
  Zn  Zn168  1  0.56528234  0.31088483  0.56168017  1
  Zn  Zn169  1  0.55690754  0.82101673  0.06221687  1
  Zn  Zn170  1  0.56665353  0.81253972  0.56260944  1
  O  O171  1  0.12204028  0.11930819  0.11867668  1
  O  O172  1  0.13076536  0.11576466  0.61430429  1
  O  O173  1  0.12796303  0.60787794  0.12459814  1
  O  O174  1  0.12350330  0.61064393  0.61944451  1
  O  O175  1  0.61358460  0.13332192  0.10595555  1
  O  O176  1  0.63209328  0.11161418  0.61859574  1
  O  O177  1  0.61650364  0.61561932  0.12678827  1
  O  O178  1  0.62224155  0.62045649  0.62106880  1
  O  O179  1  0.38638962  0.38273962  0.37674971  1
  O  O180  1  0.38879431  0.37858833  0.88339084  1
  O  O181  1  0.38451478  0.88134690  0.38293550  1
  O  O182  1  0.38444003  0.87003547  0.87243750  1
  O  O183  1  0.88098041  0.38176910  0.37128767  1
  O  O184  1  0.87924552  0.37730121  0.88517000  1
  O  O185  1  0.88935701  0.87054885  0.37228864  1
  O  O186  1  0.88173214  0.87722953  0.87939733  1
  O  O187  1  0.25627895  0.00532147  0.37020307  1
  O  O188  1  0.24409418  0.00709282  0.85946934  1
  O  O189  1  0.25998182  0.49797351  0.36592994  1
  O  O190  1  0.25566665  0.50529206  0.87087908  1
  O  O191  1  0.75138547  0.01213187  0.38157645  1
  O  O192  1  0.74588094  0.01452679  0.87141405  1
  O  O193  1  0.76201692  0.50424916  0.37975753  1
  O  O194  1  0.76167631  0.50170245  0.87607116  1
  O  O195  1  0.24437066  0.49254364  0.12994574  1
  O  O196  1  0.24152387  0.49652830  0.63402011  1
  O  O197  1  0.24502606  1.00907988  0.13572864  1
  O  O198  1  0.23993728  0.99195283  0.63281397  1
  O  O199  1  0.73479422  0.50667501  0.11990293  1
  O  O200  1  0.74557515  0.49082886  0.62212638  1
  O  O201  1  0.74913938  0.99959583  0.12286197  1
  O  O202  1  0.74076273  0.98938763  0.62964217  1
  O  O203  1  0.00296162  0.36989889  0.26384473  1
  O  O204  1  0.00483077  0.36544073  0.76186113  1
  O  O205  1  0.00305950  0.86157800  0.25779292  1
  O  O206  1  0.01009715  0.88192456  0.75592869  1
  O  O207  1  0.50823437  0.36892115  0.25989832  1
  O  O208  1  0.51254510  0.36823103  0.75562171  1
  O  O209  1  0.51060243  0.86667532  0.25897138  1
  O  O210  1  0.50522569  0.86775533  0.75558403  1
  O  O211  1  0.50117634  0.14180410  0.26209000  1
  O  O212  1  0.48985572  0.13022896  0.74789518  1
  O  O213  1  0.50214302  0.64030323  0.24588607  1
  O  O214  1  0.49333715  0.63090342  0.74632323  1
  O  O215  1  0.99314121  0.12338863  0.24112007  1
  O  O216  1  0.99645282  0.13774447  0.75375113  1
  O  O217  1  0.99055220  0.63448320  0.25470500  1
  O  O218  1  0.98340585  0.61933670  0.75088444  1
  O  O219  1  0.37527098  0.25674744  0.00925168  1
  O  O220  1  0.37642729  0.24893748  0.50980174  1
  O  O221  1  0.36012052  0.75661746  -0.00551113  1
  O  O222  1  0.37502362  0.76240292  0.49726122  1
  O  O223  1  0.87836589  0.26140260  0.01140834  1
  O  O224  1  0.86975330  0.24254886  0.51137859  1
  O  O225  1  0.86851385  0.75776158  0.00673587  1
  O  O226  1  0.87355502  0.73762671  0.51247272  1
  O  O227  1  0.12351644  0.24064699  0.49023990  1
  O  O228  1  0.13717285  0.24407824  0.99357193  1
  O  O229  1  0.12714130  0.73488352  0.49858578  1
  O  O230  1  0.13494063  0.75268719  0.99300122  1
  O  O231  1  0.63420969  0.24261915  0.49579204  1
  O  O232  1  0.56018862  0.27104612  0.96545320  1
  O  O233  1  0.62570997  0.74430241  0.48685223  1
  O  O234  1  0.62993913  0.75532766  0.99544357  1
  O  O235  1  0.48975552  0.26167233  0.13703929  1
  O  O236  1  0.49292722  0.25415150  0.63292983  1
  O  O237  1  0.50656565  0.74433985  0.13920827  1
  O  O238  1  0.50721450  0.74521142  0.63862851  1
  O  O239  1  1.00385908  0.23904030  0.12634571  1
  O  O240  1  0.99078952  0.25788495  0.63305737  1
  O  O241  1  0.98478441  0.75784832  0.13236897  1
  O  O242  1  1.00740563  0.74903081  0.63305516  1
  O  O243  1  0.00523647  0.25468363  0.37598729  1
  O  O244  1  0.00749188  0.25549764  0.86897842  1
  O  O245  1  0.00298755  0.75431272  0.36751775  1
  O  O246  1  0.01218804  0.76292779  0.87900663  1
  O  O247  1  0.50778430  0.25971746  0.37064297  1
  O  O248  1  0.47794287  0.25381261  0.84964193  1
  O  O249  1  0.50812895  0.75577088  0.36562717  1
  O  O250  1  0.50475005  0.75566111  0.86437073  1
  O  O251  1  0.23969951  0.12366831  0.48848579  1
  O  O252  1  0.25276760  0.12908038  0.99031658  1
  O  O253  1  0.24162786  0.62232483  0.49893502  1
  O  O254  1  0.24566940  0.63550655  0.99284256  1
  O  O255  1  0.74497317  0.13362013  0.49273859  1
  O  O256  1  0.74931036  0.13157832  0.98097654  1
  O  O257  1  0.74297430  0.62461430  0.48793226  1
  O  O258  1  0.74690755  0.63851177  0.99450445  1
  O  O259  1  0.25637399  0.36881519  0.00624212  1
  O  O260  1  0.25346762  0.37081854  0.50282176  1
  O  O261  1  0.25915072  0.86106359  -0.00436139  1
  O  O262  1  0.25778346  0.87365707  0.50859627  1
  O  O263  1  0.75935370  0.37146452  -0.00264312  1
  O  O264  1  0.74563489  0.35988673  0.50849257  1
  O  O265  1  0.76106334  0.87069390  -0.00766999  1
  O  O266  1  0.74808670  0.87446390  0.51363861  1
  O  O267  1  0.13232008  0.49611413  0.24009356  1
  O  O268  1  0.12713027  0.49501339  0.74501174  1
  O  O269  1  0.13391492  1.00026225  0.24143535  1
  O  O270  1  0.12993882  0.99354338  0.74130946  1
  O  O271  1  0.62226977  0.49343286  0.23749584  1
  O  O272  1  0.62691311  0.49297127  0.74256675  1
  O  O273  1  0.62760500  0.98303277  0.25712116  1
  O  O274  1  0.62257963  0.99324338  0.73937938  1
  O  O275  1  0.36925741  0.00011341  0.26290274  1
  O  O276  1  0.36528989  0.00744697  0.74203529  1
  O  O277  1  0.36843559  0.49254314  0.25807377  1
  O  O278  1  0.37242485  0.50394325  0.75635712  1
  O  O279  1  0.86722360  -0.00927979  0.23190390  1
  O  O280  1  0.87323396  0.01275333  0.75348596  1
  O  O281  1  0.88064452  0.50825077  0.25661557  1
  O  O282  1  0.87158479  0.50257147  0.75975955  1
  O  O283  1  0.11806026  0.36531001  0.37467662  1
  O  O284  1  0.11864924  0.36876741  0.87225948  1
  O  O285  1  0.11317991  0.87299705  0.37149200  1
  O  O286  1  0.12006591  0.86951389  0.86695133  1
  O  O287  1  0.62074289  0.37055950  0.36745744  1
  O  O288  1  0.61759252  0.38406585  0.86691304  1
  O  O289  1  0.62102022  0.86842556  0.37166733  1
  O  O290  1  0.61431343  0.86860571  0.86875112  1
  O  O291  1  0.36708464  0.14034026  0.13216736  1
  O  O292  1  0.36905524  0.13053524  0.63074055  1
  O  O293  1  0.38642751  0.62181487  0.12440551  1
  O  O294  1  0.38111388  0.61719172  0.63712015  1
  O  O295  1  0.88251258  0.13675926  0.12126779  1
  O  O296  1  0.86762005  0.13742175  0.64060909  1
  O  O297  1  0.87111001  0.63175820  0.13296777  1
  O  O298  1  0.87704433  0.62005274  0.64111167  1
  O  O299  1  0.25592358  0.25728470  0.12246912  1
  O  O300  1  0.25931265  0.25189603  0.62129601  1
  O  O301  1  0.24616847  0.74561212  0.11071601  1
  O  O302  1  0.24669853  0.76137791  0.62466506  1
  O  O303  1  0.75822745  0.24168351  0.12608310  1
  O  O304  1  0.75736503  0.25506957  0.61871993  1
  O  O305  1  0.75841765  0.74861784  0.11474573  1
  O  O306  1  0.74249895  0.76921770  0.62422767  1
  O  O307  1  0.24384918  0.24210771  0.37541780  1
  O  O308  1  0.25036740  0.24195374  0.87734487  1
  O  O309  1  0.24679172  0.74548825  0.37863882  1
  O  O310  1  0.23910675  0.74455245  0.88028495  1
  O  O311  1  0.74628873  0.24591650  0.38301746  1
  O  O312  1  0.74471446  0.23736051  0.86752478  1
  O  O313  1  0.74389995  0.74128744  0.37799470  1
  O  O314  1  0.73962776  0.75312998  0.88492409  1
  O  O315  1  0.01070852  0.12521131  0.00522991  1
  O  O316  1  0.01235278  0.11195331  0.49344536  1
  O  O317  1  0.00294076  0.61985548  -0.00371956  1
  O  O318  1  0.00995258  0.61140675  0.50174797  1
  O  O319  1  0.47837508  0.10011930  0.00885575  1
  O  O320  1  0.51701838  0.12936443  0.49394905  1
  O  O321  1  0.49991693  0.62212873  0.00718977  1
  O  O322  1  0.50667594  0.62148734  0.50608249  1
  O  O323  1  0.50443292  0.38045327  0.48732182  1
  O  O324  1  0.49232472  0.39480876  1.00221763  1
  O  O325  1  0.49591996  0.86984376  0.48988343  1
  O  O326  1  0.48228962  0.86494855  0.98620023  1
  O  O327  1  1.00366346  0.38380994  0.48811265  1
  O  O328  1  0.99676707  0.37475528  0.98960802  1
  O  O329  1  1.00332975  0.88848712  0.49317915  1
  O  O330  1  0.98697910  0.87627961  0.99276628  1
  O  O331  1  0.49690950  0.49485201  0.37645877  1
  O  O332  1  0.49739473  0.50134183  0.88697599  1
  O  O333  1  0.49283633  0.99004057  0.37141192  1
  O  O334  1  0.49758017  0.98236221  0.86662329  1
  O  O335  1  0.99123490  0.49202151  0.38069379  1
  O  O336  1  0.98805315  0.48868078  0.87655148  1
  O  O337  1  1.00044094  0.99295009  0.38775597  1
  O  O338  1  1.00235438  0.98785227  0.87771035  1
  O  O339  1  0.01214018  0.01331270  0.11895922  1
  O  O340  1  0.01345577  -0.00551331  0.61361473  1
  O  O341  1  0.01499875  0.48753612  0.12713975  1
  O  O342  1  0.00557080  0.49699749  0.61750650  1
  O  O343  1  0.50554652  0.01181860  0.14290277  1
  O  O344  1  0.51365029  -0.00384420  0.62487799  1
  O  O345  1  0.50473344  0.50914269  0.11984397  1
  O  O346  1  0.50776503  0.50471022  0.61998874  1
  O  O347  1  0.24776353  0.38261754  0.24229694  1
  O  O348  1  0.24364044  0.37996768  0.75272728  1
  O  O349  1  0.24904536  0.88682976  0.25386375  1
  O  O350  1  0.24271855  0.88078880  0.74425756  1
  O  O351  1  0.73919484  0.37250362  0.25362030  1
  O  O352  1  0.73929245  0.37511293  0.74335009  1
  O  O353  1  0.74427437  0.87394536  0.24785025  1
  O  O354  1  0.73528544  0.87700956  0.74674096  1
  O  O355  1  0.25256552  0.11625374  0.26293590  1
  O  O356  1  0.25690357  0.11653799  0.75355909  1
  O  O357  1  0.25080870  0.61070678  0.25109612  1
  O  O358  1  0.25637157  0.61940497  0.75341497  1
  O  O359  1  0.74962515  0.12456264  0.26511674  1
  O  O360  1  0.75641668  0.12502603  0.76042928  1
  O  O361  1  0.75811978  0.62857673  0.26166973  1
  O  O362  1  0.76046206  0.62245370  0.75405050  1
  O  O363  1  0.36798388  0.11774467  0.37616391  1
  O  O364  1  0.36685360  0.12768227  0.86096877  1
  O  O365  1  0.37747857  0.61102726  0.37892569  1
  O  O366  1  0.36971202  0.61946145  0.86430243  1
  O  O367  1  0.86107627  0.12795255  0.37006946  1
  O  O368  1  0.87768021  0.12821468  0.86446880  1
  O  O369  1  0.86910627  0.61606969  0.36704669  1
  O  O370  1  0.87415448  0.61770454  0.86578079  1
  O  O371  1  0.13732426  0.37936744  0.12568559  1
  O  O372  1  0.12468179  0.38417693  0.63128567  1
  O  O373  1  0.11770287  0.88996696  0.12570540  1
  O  O374  1  0.13282524  0.88109737  0.63050564  1
  O  O375  1  0.62189932  0.39038122  0.13217698  1
  O  O376  1  0.63428398  0.37929791  0.63076482  1
  O  O377  1  0.62341782  0.87168076  0.14099967  1
  O  O378  1  0.62965714  0.88483737  0.63083646  1
  O  O379  1  0.12392738  0.24795434  0.26286984  1
  O  O380  1  0.12018496  0.25313212  0.75264084  1
  O  O381  1  0.11590652  0.74839379  0.24926939  1
  O  O382  1  0.13177078  0.76016499  0.75938137  1
  O  O383  1  0.62050119  0.25659061  0.25264255  1
  O  O384  1  0.61564769  0.25817448  0.74212596  1
  O  O385  1  0.62291135  0.75818904  0.26042815  1
  O  O386  1  0.61850338  0.75774275  0.75757481  1
  O  O387  1  0.38401487  0.25117369  0.24469322  1
  O  O388  1  0.37794019  0.24097890  0.73454015  1
  O  O389  1  0.39154711  0.75839474  0.25325799  1
  O  O390  1  0.38244027  0.73928220  0.75273824  1
  O  O391  1  0.87700857  0.24885389  0.23257395  1
  O  O392  1  0.88391010  0.24772654  0.74444005  1
  O  O393  1  0.87912173  0.73888923  0.24227411  1
  O  O394  1  0.87022427  0.73815635  0.74868943  1
  O  O395  1  0.38503492  0.49698002  0.49313445  1
  O  O396  1  0.37918789  0.49895071  0.99467598  1
  O  O397  1  0.37046918  0.99043978  0.48939345  1
  O  O398  1  0.36008112  0.97812877  0.99365994  1
  O  O399  1  0.88503212  0.50420096  0.49134240  1
  O  O400  1  0.87475506  0.48619771  0.99693580  1
  O  O401  1  0.89077092  1.00937087  0.51140120  1
  O  O402  1  0.87745853  0.99338437  0.99679550  1
  O  O403  1  0.13062676  0.00616242  0.00538569  1
  O  O404  1  0.12150376  0.00538769  0.50621437  1
  O  O405  1  0.12512557  0.49846647  0.01530366  1
  O  O406  1  0.11867877  0.50269640  0.50800800  1
  O  O407  1  0.60674384  -0.01085732  0.01115376  1
  O  O408  1  0.62766819  0.00654092  0.51270459  1
  O  O409  1  0.61652385  0.50444708  0.01059887  1
  O  O410  1  0.62026278  0.50546730  0.50410256  1
  O  O411  1  0.36494619  0.37070224  0.12134348  1
  O  O412  1  0.37529186  0.36443324  0.62364952  1
  O  O413  1  0.38191902  0.87592311  0.11247134  1
  O  O414  1  0.36622893  0.88050496  0.61625097  1
  O  O415  1  0.87598940  0.36322877  0.11400386  1
  O  O416  1  0.86225430  0.36655084  0.63245048  1
  O  O417  1  0.86750284  0.87444881  0.12176507  1
  O  O418  1  0.85795784  0.87780951  0.63722190  1
  O  O419  1  0.13089445  0.12943784  0.37961402  1
  O  O420  1  0.13608859  0.13041467  0.87801370  1
  O  O421  1  0.12766540  0.61809922  0.38557748  1
  O  O422  1  0.13011340  0.63307358  0.87361811  1
  O  O423  1  0.63637562  0.12945703  0.38166421  1
  O  O424  1  0.62429490  0.12916233  0.87612123  1
  O  O425  1  0.63261712  0.63011093  0.37552037  1
  O  O426  1  0.62362267  0.64050738  0.87720524  1
