# generated using pymatgen
data_V85Zn86O256
_symmetry_space_group_name_H-M   'P 1'
_cell_length_a   16.92396256
_cell_length_b   16.92665768
_cell_length_c   16.92012451
_cell_angle_alpha   89.98558052
_cell_angle_beta   90.01989419
_cell_angle_gamma   90.00311854
_symmetry_Int_Tables_number   1
_chemical_formula_structural   V85Zn86O256
_chemical_formula_sum   'V85 Zn86 O256'
_cell_volume   4847.04197894
_cell_formula_units_Z   1
loop_
 _symmetry_equiv_pos_site_id
 _symmetry_equiv_pos_as_xyz
  1  'x, y, z'
loop_
 _atom_site_type_symbol
 _atom_site_label
 _atom_site_symmetry_multiplicity
 _atom_site_fract_x
 _atom_site_fract_y
 _atom_site_fract_z
 _atom_site_occupancy
  V  V0  1  0.37925104  0.50225233  0.87648676  1
  V  V1  1  0.49930878  0.00278128  0.01117322  1
  V  V2  1  0.86333373  0.00522669  0.37979430  1
  V  V3  1  0.77727417  0.65069564  0.86918736  1
  V  V4  1  0.63042713  0.62759014  0.50169725  1
  V  V5  1  0.86275303  0.00642802  0.87791884  1
  V  V6  1  0.49718512  0.62558485  0.62527785  1
  V  V7  1  0.49906971  0.49675379  0.49980617  1
  V  V8  1  0.11998490  0.49913151  0.11459018  1
  V  V9  1  0.75173978  0.24476180  0.49682018  1
  V  V10  1  0.25197315  0.37384649  0.12459949  1
  V  V11  1  0.37449562  0.13229601  0.74379704  1
  V  V12  1  0.12217670  0.75307106  0.37424547  1
  V  V13  1  0.25216464  0.63059169  0.87880660  1
  V  V14  1  0.12987703  0.75572413  0.88397473  1
  V  V15  1  0.36805505  0.74581546  0.12394954  1
  V  V16  1  0.37349535  0.49451369  0.37944477  1
  V  V17  1  0.77074519  0.87250995  0.62383029  1
  V  V18  1  0.37779102  0.12183373  0.24803852  1
  V  V19  1  0.75050577  0.37333716  0.12231831  1
  V  V20  1  -0.00303051  0.62474564  0.10952724  1
  V  V21  1  0.63013679  0.11572371  0.50510473  1
  V  V22  1  0.86103917  0.11876845  0.24957275  1
  V  V23  1  0.26830075  0.37080350  0.62825224  1
  V  V24  1  0.74978124  0.49887409  0.24940732  1
  V  V25  1  0.50246098  0.24455018  0.24723887  1
  V  V26  1  0.37294553  0.75538439  0.62266157  1
  V  V27  1  0.37212066  -0.00134683  0.87243081  1
  V  V28  1  0.11671444  0.88041841  0.25011128  1
  V  V29  1  -0.00298123  0.75298672  0.24664380  1
  V  V30  1  0.00028606  0.49722487  0.50141483  1
  V  V31  1  0.24468291  0.00112261  0.24546199  1
  V  V32  1  -0.06045274  0.83579220  0.42944042  1
  V  V33  1  0.24851204  0.49891189  0.25032715  1
  V  V34  1  0.24075504  0.87360304  0.12142585  1
  V  V35  1  0.24937390  0.88306657  0.61869576  1
  V  V36  1  0.87555817  0.24654306  0.12389042  1
  V  V37  1  0.49870971  0.74815553  0.24998535  1
  V  V38  1  0.62242605  0.88077170  0.74064778  1
  V  V39  1  0.62714439  0.50091948  0.62709421  1
  V  V40  1  0.88148576  0.49831974  0.87463219  1
  V  V41  1  0.24894312  0.62320456  0.37445701  1
  V  V42  1  0.26361084  0.25449006  0.49806145  1
  V  V43  1  0.38063837  0.24544183  0.11870488  1
  V  V44  1  0.25417478  0.75469711  0.49781418  1
  V  V45  1  -0.00776559  0.63661354  0.63942802  1
  V  V46  1  0.01042311  0.00525472  0.00187485  1
  V  V47  1  -0.00044198  0.87910057  0.87054085  1
  V  V48  1  0.73970839  0.89208059  0.12080009  1
  V  V49  1  -0.00013514  0.37331925  0.37450488  1
  V  V50  1  0.50103247  0.12812902  0.62412399  1
  V  V51  1  0.12399018  0.48843714  0.63422327  1
  V  V52  1  0.86177598  0.75200916  0.11319895  1
  V  V53  1  0.00700012  0.00087724  0.49485729  1
  V  V54  1  0.12624344  0.62392412  0.50538723  1
  V  V55  1  0.62262965  0.62354484  -0.00464112  1
  V  V56  1  0.87793629  0.24910455  0.62415460  1
  V  V57  1  0.00897006  0.11960252  0.62550763  1
  V  V58  1  0.62763803  0.75032892  0.37446901  1
  V  V59  1  0.75112960  0.37681211  0.62443843  1
  V  V60  1  0.88378000  0.37844917  0.00076192  1
  V  V61  1  0.50816945  0.37677396  0.87739528  1
  V  V62  1  0.12459482  0.87076821  0.74654072  1
  V  V63  1  0.38291691  0.37960251  0.00174576  1
  V  V64  1  0.61839338  0.49971242  0.11968072  1
  V  V65  1  0.24229303  0.00512474  0.74446150  1
  V  V66  1  0.25145485  0.12637201  0.88291551  1
  V  V67  1  0.86839920  0.12678882  0.75297026  1
  V  V68  1  0.01365361  0.11997624  0.12486654  1
  V  V69  1  0.01368176  0.38046022  0.87431338  1
  V  V70  1  0.74693528  0.24938646  -0.02144167  1
  V  V71  1  0.36682105  0.86719293  -0.00102072  1
  V  V72  1  0.00052245  0.24503822  0.24995467  1
  V  V73  1  0.50563190  0.25265463  0.74976050  1
  V  V74  1  0.00794538  0.25340470  0.74974955  1
  V  V75  1  0.62227978  0.75080379  0.88056990  1
  V  V76  1  0.49808243  0.37042836  0.38152993  1
  V  V77  1  0.12370251  0.37467301  0.24875117  1
  V  V78  1  0.49689332  -0.00722517  0.50479479  1
  V  V79  1  0.87489689  0.62477352  0.24531102  1
  V  V80  1  0.62832501  0.24397608  0.37610990  1
  V  V81  1  0.75494463  0.50813026  0.75385386  1
  V  V82  1  0.49708696  0.87565735  0.87492347  1
  V  V83  1  0.12759675  0.24664671  0.88060886  1
  V  V84  1  0.37359934  -0.00881238  0.37860924  1
  Zn  Zn85  1  0.49740939  0.87152724  0.37893523  1
  Zn  Zn86  1  0.74374914  0.00618034  0.74618260  1
  Zn  Zn87  1  0.37046183  0.62454480  0.74821650  1
  Zn  Zn88  1  0.24944064  0.24522111  0.00352272  1
  Zn  Zn89  1  0.63294936  0.12658920  -0.00691628  1
  Zn  Zn90  1  0.49692104  0.75078155  0.74838091  1
  Zn  Zn91  1  0.37573915  0.62171607  0.24839327  1
  Zn  Zn92  1  0.63187386  0.37120756  0.75770223  1
  Zn  Zn93  1  0.62707539  0.88289462  0.25319446  1
  Zn  Zn94  1  0.12949584  0.12621479  0.50058670  1
  Zn  Zn95  1  0.76609300  0.75193478  0.50430124  1
  Zn  Zn96  1  0.24909560  0.49483115  0.75400485  1
  Zn  Zn97  1  0.12762712  0.62814369  -0.00097872  1
  Zn  Zn98  1  0.61640492  0.02395502  0.14261338  1
  Zn  Zn99  1  0.87329283  0.49792044  0.37426159  1
  Zn  Zn100  1  0.87511399  0.37387017  0.49830643  1
  Zn  Zn101  1  0.12567551  0.24642306  0.37873745  1
  Zn  Zn102  1  0.49584867  0.62002704  0.11950407  1
  Zn  Zn103  1  0.62602951  0.37359578  0.25103140  1
  Zn  Zn104  1  0.75291402  0.62481496  0.37654262  1
  Zn  Zn105  1  0.24745177  0.12488665  0.37667579  1
  Zn  Zn106  1  0.87081911  0.87801674  -0.00248692  1
  Zn  Zn107  1  0.19028833  0.18866698  0.18995622  1
  Zn  Zn108  1  0.18889486  0.19496129  0.68705704  1
  Zn  Zn109  1  0.18461702  0.68675896  0.18680243  1
  Zn  Zn110  1  0.18563731  0.68645540  0.69114357  1
  Zn  Zn111  1  0.68333842  0.18749329  0.17881644  1
  Zn  Zn112  1  0.68560614  0.18923795  0.68505824  1
  Zn  Zn113  1  0.68486834  0.68659999  0.18710424  1
  Zn  Zn114  1  0.68836583  0.69464633  0.69146800  1
  Zn  Zn115  1  0.31519479  0.31116504  0.31264830  1
  Zn  Zn116  1  0.31820472  0.31211383  0.81168943  1
  Zn  Zn117  1  0.30973501  0.81299451  0.30869470  1
  Zn  Zn118  1  0.31000352  0.81111720  0.80672103  1
  Zn  Zn119  1  0.81432055  0.30994858  0.31157929  1
  Zn  Zn120  1  0.82176911  0.31920716  0.80733824  1
  Zn  Zn121  1  0.80348237  0.81072352  0.30299093  1
  Zn  Zn122  1  0.80979995  0.81997722  0.81327469  1
  Zn  Zn123  1  0.18677809  0.43149134  0.44213509  1
  Zn  Zn124  1  0.19544071  0.43558737  0.93850627  1
  Zn  Zn125  1  0.18443014  0.93861551  0.43281907  1
  Zn  Zn126  1  0.18756234  0.94087544  0.93666746  1
  Zn  Zn127  1  0.68663826  0.43515579  0.43681745  1
  Zn  Zn128  1  0.69331934  0.44042791  0.93872735  1
  Zn  Zn129  1  0.68804855  0.93221635  0.44443802  1
  Zn  Zn130  1  0.68422640  0.93465169  0.94184414  1
  Zn  Zn131  1  0.31867871  0.05774995  0.06451569  1
  Zn  Zn132  1  0.31450313  0.06708970  0.56115805  1
  Zn  Zn133  1  0.31021435  0.56087878  0.05918549  1
  Zn  Zn134  1  0.31150241  0.55901899  0.56255582  1
  Zn  Zn135  1  0.81374687  0.06722256  0.05848967  1
  Zn  Zn136  1  0.81546967  0.05774719  0.56649547  1
  Zn  Zn137  1  0.80522145  0.56602727  0.05183851  1
  Zn  Zn138  1  0.81660604  0.56505162  0.56469464  1
  Zn  Zn139  1  0.43919122  0.43275060  0.19423755  1
  Zn  Zn140  1  0.43884707  0.44023245  0.69288923  1
  Zn  Zn141  1  0.43471723  0.92970154  0.19103729  1
  Zn  Zn142  1  0.43443879  0.94106424  0.68534129  1
  Zn  Zn143  1  0.93859121  0.43846609  0.18473173  1
  Zn  Zn144  1  0.93829716  0.43877733  0.69041971  1
  Zn  Zn145  1  0.93128033  0.93976341  0.18602824  1
  Zn  Zn146  1  0.93861769  0.94364901  0.68852909  1
  Zn  Zn147  1  0.05926850  0.06128238  0.31733648  1
  Zn  Zn148  1  0.06234388  0.06466934  0.81391250  1
  Zn  Zn149  1  0.06124292  0.56238912  0.30941479  1
  Zn  Zn150  1  0.06572874  0.56546481  0.81326286  1
  Zn  Zn151  1  0.56349963  0.06140661  0.31970088  1
  Zn  Zn152  1  0.56439021  0.06225214  0.81719357  1
  Zn  Zn153  1  0.56284170  0.56396603  0.31107168  1
  Zn  Zn154  1  0.56286105  0.56160087  0.81044809  1
  Zn  Zn155  1  0.43735272  0.18026553  0.43555384  1
  Zn  Zn156  1  0.46822700  0.17317908  0.92158888  1
  Zn  Zn157  1  0.43683328  0.68375719  0.43680699  1
  Zn  Zn158  1  0.44006782  0.68653964  0.94018275  1
  Zn  Zn159  1  0.93746836  0.18343330  0.43621401  1
  Zn  Zn160  1  0.93793015  0.18820298  0.93796623  1
  Zn  Zn161  1  0.94060375  0.67050930  0.43596832  1
  Zn  Zn162  1  0.93773768  0.69771959  0.92221838  1
  Zn  Zn163  1  0.06343025  0.30804302  0.06076043  1
  Zn  Zn164  1  0.06742020  0.30831625  0.56015052  1
  Zn  Zn165  1  0.05570588  0.81567626  0.06079177  1
  Zn  Zn166  1  0.06833842  0.81202183  0.56755849  1
  Zn  Zn167  1  0.56561604  0.30901588  0.06194241  1
  Zn  Zn168  1  0.56380699  0.30944364  0.56440425  1
  Zn  Zn169  1  0.55710920  0.81288300  0.06312797  1
  Zn  Zn170  1  0.56382902  0.81066955  0.56155146  1
  O  O171  1  0.11317124  0.12919693  0.12862844  1
  O  O172  1  0.11237679  0.12911222  0.62755889  1
  O  O173  1  0.11575987  0.61790545  0.12252114  1
  O  O174  1  0.12292191  0.61421264  0.61918408  1
  O  O175  1  0.62191157  0.13045496  0.10731915  1
  O  O176  1  0.61661806  0.12620055  0.61576413  1
  O  O177  1  0.62781959  0.61724779  0.11359842  1
  O  O178  1  0.61926620  0.62350050  0.61934512  1
  O  O179  1  0.38527238  0.38228936  0.37241409  1
  O  O180  1  0.38046680  0.38366799  0.88354339  1
  O  O181  1  0.37523919  0.88673383  0.36967662  1
  O  O182  1  0.37701328  0.87556225  0.87986527  1
  O  O183  1  0.88754946  0.37756401  0.37466059  1
  O  O184  1  0.88730145  0.38240609  0.88171174  1
  O  O185  1  0.87445428  0.88586170  0.36243760  1
  O  O186  1  0.88400539  0.88809370  0.87255392  1
  O  O187  1  0.25630819  -0.00081650  0.36323195  1
  O  O188  1  0.25379536  0.00807499  0.86629507  1
  O  O189  1  0.25543556  0.50023307  0.37331284  1
  O  O190  1  0.26141964  0.50507224  0.87414588  1
  O  O191  1  0.76435363  -0.00411723  0.38307572  1
  O  O192  1  0.75947592  -0.00389689  0.87419859  1
  O  O193  1  0.75128432  0.50015665  0.36406928  1
  O  O194  1  0.76146101  0.50176940  0.86613305  1
  O  O195  1  0.24252873  0.49379122  0.13070181  1
  O  O196  1  0.24011118  0.48800508  0.62244799  1
  O  O197  1  0.25454671  0.98980951  0.13719128  1
  O  O198  1  0.25609851  0.99272273  0.62989073  1
  O  O199  1  0.74497986  0.49065406  0.12803812  1
  O  O200  1  0.74911438  0.49626200  0.63163237  1
  O  O201  1  0.74504935  0.99446398  0.12005009  1
  O  O202  1  0.75725374  0.98175605  0.63041058  1
  O  O203  1  0.00322612  0.36898732  0.25534289  1
  O  O204  1  -0.00459707  0.36494742  0.76117071  1
  O  O205  1  0.00983805  0.87168597  0.23849510  1
  O  O206  1  0.01368319  0.88922682  0.75762747  1
  O  O207  1  0.50346993  0.36270539  0.26312015  1
  O  O208  1  0.50421789  0.36944508  0.75569457  1
  O  O209  1  0.50170569  0.85934429  0.25367292  1
  O  O210  1  0.50606381  0.87718268  0.75609595  1
  O  O211  1  0.49222148  0.13685925  0.25792943  1
  O  O212  1  0.49427827  0.13035064  0.74267803  1
  O  O213  1  0.49845071  0.63493150  0.24513791  1
  O  O214  1  0.49957072  0.62640137  0.73465022  1
  O  O215  1  0.99361362  0.12810002  0.24256582  1
  O  O216  1  0.99327431  0.13096456  0.74340915  1
  O  O217  1  0.98837447  0.62890318  0.24099118  1
  O  O218  1  1.00354578  0.62496817  0.73888358  1
  O  O219  1  0.37945831  0.25314430  0.01367277  1
  O  O220  1  0.36340260  0.24678072  0.49589836  1
  O  O221  1  0.37758461  0.75935122  0.00771976  1
  O  O222  1  0.36092242  0.74426573  0.50398048  1
  O  O223  1  0.86783616  0.25868665  0.00331458  1
  O  O224  1  0.86812245  0.24934313  0.50465301  1
  O  O225  1  0.88092417  0.75489244  0.01177086  1
  O  O226  1  0.88373520  0.76099079  0.48032869  1
  O  O227  1  0.13858084  0.24766865  0.49787281  1
  O  O228  1  0.12999379  0.25016639  0.98659666  1
  O  O229  1  0.13408570  0.74178698  0.49591450  1
  O  O230  1  0.12364756  0.75465760  0.98771795  1
  O  O231  1  0.63344632  0.24185138  0.49557850  1
  O  O232  1  0.64599873  0.25951964  0.99745859  1
  O  O233  1  0.62353508  0.73790897  0.49411015  1
  O  O234  1  0.61486626  0.74533476  0.98711061  1
  O  O235  1  0.49425612  0.25663271  0.13667159  1
  O  O236  1  0.50100573  0.23841964  0.63012575  1
  O  O237  1  0.48652754  0.74896353  0.13163507  1
  O  O238  1  0.48923298  0.74340486  0.62123387  1
  O  O239  1  0.99367343  0.24163006  0.12871177  1
  O  O240  1  0.99690797  0.24662135  0.63209412  1
  O  O241  1  0.99029689  0.74302986  0.12922718  1
  O  O242  1  1.00885205  0.73498927  0.62415223  1
  O  O243  1  0.00009366  0.25725499  0.36929840  1
  O  O244  1  0.00891706  0.25453452  0.86947834  1
  O  O245  1  -0.00053642  0.75824160  0.37128313  1
  O  O246  1  0.01163151  0.77179808  0.87564088  1
  O  O247  1  0.50616027  0.25437342  0.37254335  1
  O  O248  1  0.48906608  0.26873570  0.86280086  1
  O  O249  1  0.50522259  0.74843359  0.36917815  1
  O  O250  1  0.50130317  0.76132654  0.87183667  1
  O  O251  1  0.24967229  0.13936317  0.50124030  1
  O  O252  1  0.26110827  0.12364635  0.98635877  1
  O  O253  1  0.24001777  0.62893139  0.49639419  1
  O  O254  1  0.24635623  0.62172329  0.98507156  1
  O  O255  1  0.74271721  0.13308395  0.51016297  1
  O  O256  1  0.75505534  0.14481206  0.99508072  1
  O  O257  1  0.74470769  0.62946667  0.49986913  1
  O  O258  1  0.74002362  0.62813916  0.97619283  1
  O  O259  1  0.26447727  0.36941492  0.00698397  1
  O  O260  1  0.24959103  0.36409606  0.51077486  1
  O  O261  1  0.25440963  0.87994233  0.00840934  1
  O  O262  1  0.24283105  0.86670907  0.50636001  1
  O  O263  1  0.76012370  0.36756260  0.00494019  1
  O  O264  1  0.75335698  0.36907181  0.50741083  1
  O  O265  1  0.75291639  0.87600425  0.01399447  1
  O  O266  1  0.75076847  0.87085157  0.51872839  1
  O  O267  1  0.12844104  0.49324815  0.24134023  1
  O  O268  1  0.12806066  0.50003874  0.73679292  1
  O  O269  1  0.13135403  0.99122999  0.25374936  1
  O  O270  1  0.13822095  0.99523334  0.75425267  1
  O  O271  1  0.63712654  0.50062557  0.24304062  1
  O  O272  1  0.63641249  0.49830577  0.74332115  1
  O  O273  1  0.61747430  0.99590853  0.25069257  1
  O  O274  1  0.62645699  0.98571211  0.76025211  1
  O  O275  1  0.36974774  0.00514018  0.25425367  1
  O  O276  1  0.36402177  0.00589585  0.75493048  1
  O  O277  1  0.36858854  0.49950358  0.26082182  1
  O  O278  1  0.37101892  0.50455949  0.75984478  1
  O  O279  1  0.87619938  0.01206678  0.25908641  1
  O  O280  1  0.87396962  0.01133135  0.75962520  1
  O  O281  1  0.86482520  0.50624842  0.24513262  1
  O  O282  1  0.86700891  0.49880631  0.76042358  1
  O  O283  1  0.11359073  0.37539648  0.36856646  1
  O  O284  1  0.11947398  0.36945541  0.87865302  1
  O  O285  1  0.12796340  0.86577593  0.36181333  1
  O  O286  1  0.12263151  0.87345445  0.86765105  1
  O  O287  1  0.61886050  0.36264616  0.37411353  1
  O  O288  1  0.61217181  0.38606634  0.87670402  1
  O  O289  1  0.62298043  0.86066839  0.37757417  1
  O  O290  1  0.61410810  0.86862907  0.87180110  1
  O  O291  1  0.37043699  0.13160482  0.13880042  1
  O  O292  1  0.38159303  0.12316783  0.63714004  1
  O  O293  1  0.37413199  0.63104532  0.12524033  1
  O  O294  1  0.38074065  0.63236590  0.62241845  1
  O  O295  1  0.88031815  0.12769360  0.13550855  1
  O  O296  1  0.88474732  0.13214620  0.63201587  1
  O  O297  1  0.87746508  0.63224529  0.12373370  1
  O  O298  1  0.89301427  0.62467020  0.62297997  1
  O  O299  1  0.26048177  0.25618754  0.12529465  1
  O  O300  1  0.25129159  0.26370694  0.61734388  1
  O  O301  1  0.25987764  0.75652307  0.13142287  1
  O  O302  1  0.25462281  0.75595202  0.61742483  1
  O  O303  1  0.75763228  0.26349612  0.12419769  1
  O  O304  1  0.75496663  0.25903567  0.61726124  1
  O  O305  1  0.76114015  0.74557612  0.12125619  1
  O  O306  1  0.74753245  0.76489102  0.62477242  1
  O  O307  1  0.25018440  0.25285205  0.38666386  1
  O  O308  1  0.24578209  0.24346646  0.87449748  1
  O  O309  1  0.24492794  0.74475896  0.38073612  1
  O  O310  1  0.24343054  0.74404715  0.87218154  1
  O  O311  1  0.74418631  0.25579885  0.38794145  1
  O  O312  1  0.75489732  0.25962899  0.88008885  1
  O  O313  1  0.74176283  0.74636297  0.37767115  1
  O  O314  1  0.72563377  0.75779456  0.87689334  1
  O  O315  1  -0.00486192  0.11454618  0.00880365  1
  O  O316  1  0.00213781  0.11888388  0.50782279  1
  O  O317  1  0.00332622  0.63270945  0.00792867  1
  O  O318  1  0.01235119  0.61550489  0.50650739  1
  O  O319  1  0.47098841  0.09957099  0.01072896  1
  O  O320  1  0.50688836  0.11917931  0.50701249  1
  O  O321  1  0.51514519  0.62419468  0.00167663  1
  O  O322  1  0.50712202  0.61871027  0.50886726  1
  O  O323  1  0.50779347  0.38005473  0.48963476  1
  O  O324  1  0.49103117  0.36971198  0.99351053  1
  O  O325  1  0.50320687  0.88862778  0.50193628  1
  O  O326  1  0.48896036  0.87955304  0.99237247  1
  O  O327  1  1.00041441  0.38046180  0.49275769  1
  O  O328  1  0.99379907  0.36820734  0.98961548  1
  O  O329  1  1.00296991  0.88170440  0.50115169  1
  O  O330  1  0.99544222  0.88929622  0.99325495  1
  O  O331  1  0.49469112  0.49185477  0.37714989  1
  O  O332  1  0.48777295  0.49362157  0.86871103  1
  O  O333  1  0.48986733  0.99807246  0.38593141  1
  O  O334  1  0.49002170  0.98720668  0.88184059  1
  O  O335  1  1.00092451  0.49324411  0.38345295  1
  O  O336  1  0.99807029  0.49029722  0.86961422  1
  O  O337  1  0.98804055  0.99736075  0.38508785  1
  O  O338  1  0.99572960  0.99730210  0.88432868  1
  O  O339  1  -0.00575280  0.00571710  0.11112999  1
  O  O340  1  -0.00835485  0.01039178  0.61152768  1
  O  O341  1  0.00807704  0.51085218  0.12824495  1
  O  O342  1  0.01065746  0.50247475  0.62062724  1
  O  O343  1  0.49880890  -0.01414042  0.11344447  1
  O  O344  1  0.49301972  0.01323991  0.61698486  1
  O  O345  1  0.51515695  0.49836796  0.13469514  1
  O  O346  1  0.50597467  0.50598553  0.62023869  1
  O  O347  1  0.24440600  0.37897197  0.24456456  1
  O  O348  1  0.25550286  0.37419141  0.73390644  1
  O  O349  1  0.23897326  0.88038366  0.24223429  1
  O  O350  1  0.24510077  0.88553483  0.74106207  1
  O  O351  1  0.75099311  0.38151461  0.24136839  1
  O  O352  1  0.75065942  0.38445000  0.74217288  1
  O  O353  1  0.74418645  0.86859605  0.22604825  1
  O  O354  1  0.73799713  0.87529619  0.74201524  1
  O  O355  1  0.25679880  0.11601830  0.25088543  1
  O  O356  1  0.25648953  0.12196260  0.75226007  1
  O  O357  1  0.24754001  0.61573533  0.25714637  1
  O  O358  1  0.24962993  0.62060944  0.76262604  1
  O  O359  1  0.76311831  0.13156343  0.24528084  1
  O  O360  1  0.76310264  0.12683729  0.74309870  1
  O  O361  1  0.76044235  0.61777670  0.24707295  1
  O  O362  1  0.74419689  0.61960581  0.76318576  1
  O  O363  1  0.37060939  0.11532129  0.36296045  1
  O  O364  1  0.37115739  0.11959316  0.86225665  1
  O  O365  1  0.36629453  0.61570837  0.37250286  1
  O  O366  1  0.37094388  0.61990837  0.87540767  1
  O  O367  1  0.87533539  0.11532139  0.36280707  1
  O  O368  1  0.88174965  0.11837583  0.86499654  1
  O  O369  1  0.87387242  0.61793269  0.36025158  1
  O  O370  1  0.87766592  0.59908814  0.90508511  1
  O  O371  1  0.12822029  0.38036233  0.12867007  1
  O  O372  1  0.12799466  0.38705576  0.62269116  1
  O  O373  1  0.13480786  0.86651072  0.13068440  1
  O  O374  1  0.13829455  0.87450289  0.63305901  1
  O  O375  1  0.63462143  0.38113617  0.12665471  1
  O  O376  1  0.63820518  0.38120297  0.62439193  1
  O  O377  1  0.63526803  0.87459342  0.12090326  1
  O  O378  1  0.62039284  0.87399735  0.63986299  1
  O  O379  1  0.11874371  0.25902133  0.25130408  1
  O  O380  1  0.11432025  0.24827711  0.75929850  1
  O  O381  1  0.11484561  0.75379591  0.25483211  1
  O  O382  1  0.13212539  0.76609852  0.75886487  1
  O  O383  1  0.61955067  0.24897790  0.25853720  1
  O  O384  1  0.61199951  0.25273320  0.74709956  1
  O  O385  1  0.61754806  0.74866526  0.25796512  1
  O  O386  1  0.61751056  0.76263205  0.76073089  1
  O  O387  1  0.38227973  0.24306501  0.24300055  1
  O  O388  1  0.38676160  0.24161003  0.74988980  1
  O  O389  1  0.37991101  0.74670681  0.24307375  1
  O  O390  1  0.37654902  0.74593869  0.73715163  1
  O  O391  1  0.88131246  0.23888089  0.24621586  1
  O  O392  1  0.88661067  0.24460253  0.74559986  1
  O  O393  1  0.87758520  0.74199642  0.23839933  1
  O  O394  1  0.85487686  0.71704281  0.83221753  1
  O  O395  1  0.38205061  0.50465124  0.48723175  1
  O  O396  1  0.37512593  0.48994963  0.99373050  1
  O  O397  1  0.38253050  1.00633330  0.48975193  1
  O  O398  1  0.37714363  0.98312983  0.99430598  1
  O  O399  1  0.88981943  0.49903109  0.49920216  1
  O  O400  1  0.86941796  0.48219824  0.99935454  1
  O  O401  1  0.88259420  1.00574952  0.48544143  1
  O  O402  1  0.88167624  1.00137367  0.99050975  1
  O  O403  1  0.10977981  0.00160078  -0.00354007  1
  O  O404  1  0.11226974  0.00331354  0.49485437  1
  O  O405  1  0.12913967  0.49909211  0.01200311  1
  O  O406  1  0.11772545  0.50439793  0.50798282  1
  O  O407  1  0.60517234  0.00055440  -0.00263600  1
  O  O408  1  0.61620263  0.01054191  0.49263999  1
  O  O409  1  0.63244555  0.50907432  0.00832792  1
  O  O410  1  0.62201937  0.51063818  0.50491897  1
  O  O411  1  0.37380017  0.36927497  0.12014680  1
  O  O412  1  0.36616046  0.38366693  0.62101884  1
  O  O413  1  0.36281786  0.86644080  0.11876751  1
  O  O414  1  0.36494527  0.86405900  0.62697432  1
  O  O415  1  0.87211146  0.36838477  0.11866619  1
  O  O416  1  0.86647497  0.36984991  0.62397294  1
  O  O417  1  0.86351670  0.86524069  0.12442430  1
  O  O418  1  0.86940791  0.86711293  0.63677943  1
  O  O419  1  0.12934506  0.12812492  0.37693859  1
  O  O420  1  0.13850696  0.13401859  0.86882021  1
  O  O421  1  0.12725632  0.63020702  0.38316366  1
  O  O422  1  0.13088255  0.63712355  0.87649549  1
  O  O423  1  0.62104238  0.13807420  0.38723959  1
  O  O424  1  0.57855366  0.13839534  0.89504944  1
  O  O425  1  0.62662337  0.63208206  0.38341833  1
  O  O426  1  0.61992375  0.63927401  0.87595333  1
