# generated using pymatgen
data_V85Zn86O256
_symmetry_space_group_name_H-M   'P 1'
_cell_length_a   16.93708759
_cell_length_b   16.95291958
_cell_length_c   16.94901104
_cell_angle_alpha   90.00801261
_cell_angle_beta   89.95827430
_cell_angle_gamma   89.93238874
_symmetry_Int_Tables_number   1
_chemical_formula_structural   V85Zn86O256
_chemical_formula_sum   'V85 Zn86 O256'
_cell_volume   4866.61708012
_cell_formula_units_Z   1
loop_
 _symmetry_equiv_pos_site_id
 _symmetry_equiv_pos_as_xyz
  1  'x, y, z'
loop_
 _atom_site_type_symbol
 _atom_site_label
 _atom_site_symmetry_multiplicity
 _atom_site_fract_x
 _atom_site_fract_y
 _atom_site_fract_z
 _atom_site_occupancy
  V  V0  1  0.23875281  0.50159319  0.24644809  1
  V  V1  1  0.80930077  0.17652291  0.82002051  1
  V  V2  1  0.87297036  0.37050334  0.50454546  1
  V  V3  1  0.74937098  0.75413472  0.00604533  1
  V  V4  1  0.44453761  0.30357238  0.30690680  1
  V  V5  1  0.00594487  0.86953294  0.87702861  1
  V  V6  1  0.25159572  0.87619858  0.12144897  1
  V  V7  1  0.87840581  0.75146598  0.12396654  1
  V  V8  1  0.25242875  -0.00051013  0.24866027  1
  V  V9  1  0.37674207  0.00647756  0.86698927  1
  V  V10  1  0.37954807  0.25189211  0.12028318  1
  V  V11  1  -0.01071523  0.74975467  0.74443939  1
  V  V12  1  0.75816662  0.74985674  0.50917796  1
  V  V13  1  0.50278747  -0.00279669  -0.00382860  1
  V  V14  1  0.00170779  0.36202602  0.37224681  1
  V  V15  1  0.74576484  0.62509191  0.37492222  1
  V  V16  1  0.25243274  0.87539377  0.62283342  1
  V  V17  1  0.87025817  -0.00276697  0.37814278  1
  V  V18  1  0.12938756  0.50065627  0.62250032  1
  V  V19  1  0.24998797  0.25251933  -0.00451894  1
  V  V20  1  0.37621186  0.75130432  0.12308821  1
  V  V21  1  0.87624531  0.62382539  0.24246038  1
  V  V22  1  -0.00087590  0.50037217  0.49824543  1
  V  V23  1  0.12836178  0.74619749  0.37542613  1
  V  V24  1  0.25847687  0.37425117  0.62014111  1
  V  V25  1  0.50790744  0.37392599  0.87271496  1
  V  V26  1  -0.00156632  0.00296373  0.00015728  1
  V  V27  1  0.50161410  0.75417095  0.75925756  1
  V  V28  1  0.01308249  0.00580087  0.49822267  1
  V  V29  1  0.50044124  0.75793515  0.25422622  1
  V  V30  1  0.62687045  0.49274455  0.12600923  1
  V  V31  1  0.62519368  0.36870853  0.25489067  1
  V  V32  1  0.24891377  0.49899661  0.74807181  1
  V  V33  1  0.50377421  0.12764391  0.12529557  1
  V  V34  1  0.12661573  0.62586116  0.50465939  1
  V  V35  1  0.61108109  0.50498823  0.62414585  1
  V  V36  1  0.12897756  0.87255533  0.75264347  1
  V  V37  1  0.37374059  0.23665385  0.62415493  1
  V  V38  1  0.63062519  0.24600198  0.37426148  1
  V  V39  1  0.63189347  0.12915327  -0.01180634  1
  V  V40  1  -0.00224936  0.87035091  0.37568542  1
  V  V41  1  0.50467961  -0.01078893  0.49934624  1
  V  V42  1  0.63292562  0.87457403  0.24601445  1
  V  V43  1  0.50036348  0.62580380  0.12612806  1
  V  V44  1  0.86800100  0.00112367  0.86320850  1
  V  V45  1  0.24227217  0.75154100  -0.00599305  1
  V  V46  1  0.88544697  0.50234244  0.87420166  1
  V  V47  1  0.10844701  0.37631148  0.74804215  1
  V  V48  1  0.49106641  0.49542697  0.48608931  1
  V  V49  1  0.24793139  0.11879951  0.38369234  1
  V  V50  1  0.12540004  0.00153356  0.12313911  1
  V  V51  1  0.37564698  0.62282570  0.25538601  1
  V  V52  1  0.11220556  0.25731746  0.87161153  1
  V  V53  1  0.38217779  0.62464382  0.74515590  1
  V  V54  1  0.37401331  0.49906609  0.87415724  1
  V  V55  1  0.38038838  0.87374846  -0.00931406  1
  V  V56  1  0.24263159  0.38298647  0.11965908  1
  V  V57  1  0.12489214  0.87328632  0.24721730  1
  V  V58  1  0.00009310  0.74436385  0.24557370  1
  V  V59  1  0.63405605  -0.00046979  0.12250156  1
  V  V60  1  0.00362632  0.50174111  0.01743410  1
  V  V61  1  0.87129219  0.88037491  0.00656352  1
  V  V62  1  0.38443011  0.74876501  0.62360680  1
  V  V63  1  0.24143604  0.24668755  0.50216763  1
  V  V64  1  0.87492946  0.37675011  0.00834107  1
  V  V65  1  0.74764670  0.37275684  0.62368236  1
  V  V66  1  0.63468590  -0.00264333  0.62798061  1
  V  V67  1  0.24221480  0.62852466  0.87200965  1
  V  V68  1  0.62321265  0.75654251  0.37897736  1
  V  V69  1  0.62886053  0.12340755  0.49799262  1
  V  V70  1  0.75224953  0.62487728  0.87648302  1
  V  V71  1  0.62516527  0.62497358  0.00190405  1
  V  V72  1  0.62907095  0.87990384  0.76081565  1
  V  V73  1  0.49954961  0.49980306  -0.00070466  1
  V  V74  1  0.88307156  0.13218765  0.25792847  1
  V  V75  1  0.12677641  0.12678241  -0.00409273  1
  V  V76  1  0.38049248  0.12055943  0.25110514  1
  V  V77  1  0.75110993  0.00556569  0.25269745  1
  V  V78  1  0.12144275  0.62388210  0.01044999  1
  V  V79  1  0.74747455  0.49393398  0.24747157  1
  V  V80  1  0.74908212  0.25235223  0.01203961  1
  V  V81  1  0.74747083  0.50740518  0.74747876  1
  V  V82  1  0.49782270  0.24166667  0.75436983  1
  V  V83  1  0.87376194  0.49943960  0.37326923  1
  V  V84  1  0.38415710  -0.01195717  0.37422450  1
  Zn  Zn85  1  -0.01769316  0.24875747  0.74737285  1
  Zn  Zn86  1  0.62084625  0.75421710  0.88112386  1
  Zn  Zn87  1  0.75034800  0.24248752  0.50646036  1
  Zn  Zn88  1  0.25497534  0.13284183  0.86418384  1
  Zn  Zn89  1  0.37161588  0.47822315  0.37201316  1
  Zn  Zn90  1  0.11225082  0.36941968  0.23916653  1
  Zn  Zn91  1  -0.02437066  0.64109848  0.62004106  1
  Zn  Zn92  1  0.11295218  0.23472603  0.37239152  1
  Zn  Zn93  1  0.61849760  0.62790462  0.50708421  1
  Zn  Zn94  1  0.88126290  0.86883664  0.51087214  1
  Zn  Zn95  1  -0.00410669  0.13864784  0.63404383  1
  Zn  Zn96  1  0.00337129  0.13891371  0.13144489  1
  Zn  Zn97  1  0.25576627  0.74737845  0.50058824  1
  Zn  Zn98  1  0.62200804  0.37310290  0.74839716  1
  Zn  Zn99  1  0.38182173  0.86795160  0.49597995  1
  Zn  Zn100  1  0.25180665  0.61740028  0.37838778  1
  Zn  Zn101  1  0.37479469  0.37559703  -0.00343786  1
  Zn  Zn102  1  0.25009221  0.00816148  0.74603955  1
  Zn  Zn103  1  0.49899540  0.11751084  0.62932453  1
  Zn  Zn104  1  0.75932688  0.87195553  0.63962689  1
  Zn  Zn105  1  0.88010937  0.25922178  0.13614390  1
  Zn  Zn106  1  0.12677490  0.00836329  0.62478613  1
  Zn  Zn107  1  0.18875758  0.18840769  0.18530764  1
  Zn  Zn108  1  0.17611867  0.18079700  0.68813765  1
  Zn  Zn109  1  0.19075034  0.68759424  0.18602154  1
  Zn  Zn110  1  0.18690918  0.69339833  0.68802505  1
  Zn  Zn111  1  0.69083887  0.18587047  0.18803377  1
  Zn  Zn112  1  0.67872048  0.18962467  0.68468159  1
  Zn  Zn113  1  0.68927316  0.68572110  0.18622314  1
  Zn  Zn114  1  0.68387147  0.68673225  0.69080717  1
  Zn  Zn115  1  0.26722375  0.29982509  0.30122076  1
  Zn  Zn116  1  0.31195691  0.31332151  0.80675710  1
  Zn  Zn117  1  0.31137794  0.81039570  0.31115561  1
  Zn  Zn118  1  0.31313374  0.81455796  0.81087763  1
  Zn  Zn119  1  0.80992506  0.31321087  0.32058503  1
  Zn  Zn120  1  0.80680277  0.33719814  0.82095345  1
  Zn  Zn121  1  0.80943525  0.81307697  0.31272746  1
  Zn  Zn122  1  0.81444751  0.81394145  0.82026648  1
  Zn  Zn123  1  0.18840955  0.43364789  0.43611978  1
  Zn  Zn124  1  0.18226490  0.43873882  0.93460966  1
  Zn  Zn125  1  0.19332840  0.92983076  0.43547889  1
  Zn  Zn126  1  0.18960207  0.93994752  0.93308062  1
  Zn  Zn127  1  0.67963721  0.43526068  0.43878475  1
  Zn  Zn128  1  0.68954383  0.43632181  0.93916092  1
  Zn  Zn129  1  0.68867295  0.93330450  0.43838313  1
  Zn  Zn130  1  0.69043818  0.93830950  0.93621533  1
  Zn  Zn131  1  0.31400858  0.06488170  0.05835547  1
  Zn  Zn132  1  0.31507775  0.05781432  0.56145314  1
  Zn  Zn133  1  0.31171832  0.56544323  0.06203897  1
  Zn  Zn134  1  0.31720142  0.56334480  0.55976973  1
  Zn  Zn135  1  0.81438514  0.06948213  0.06750729  1
  Zn  Zn136  1  0.81757294  0.05736436  0.56823400  1
  Zn  Zn137  1  0.81207176  0.56240574  0.06347075  1
  Zn  Zn138  1  0.80736384  0.56159566  0.56200557  1
  Zn  Zn139  1  0.43100451  0.44088444  0.18234718  1
  Zn  Zn140  1  0.43611838  0.43294040  0.68687665  1
  Zn  Zn141  1  0.44299060  0.93692656  0.18188038  1
  Zn  Zn142  1  0.44503396  0.93213015  0.68609751  1
  Zn  Zn143  1  0.93696540  0.43627592  0.18860632  1
  Zn  Zn144  1  0.92380818  0.46962231  0.67400196  1
  Zn  Zn145  1  0.93763568  0.93925000  0.18735327  1
  Zn  Zn146  1  0.94050469  0.93549650  0.68421126  1
  Zn  Zn147  1  0.06150938  0.05785397  0.31574898  1
  Zn  Zn148  1  0.05994166  0.06489127  0.80642411  1
  Zn  Zn149  1  0.06173126  0.56139496  0.31329688  1
  Zn  Zn150  1  0.06445996  0.56858013  0.81045543  1
  Zn  Zn151  1  0.56271084  0.06301347  0.31381444  1
  Zn  Zn152  1  0.56303642  0.06016310  0.81304444  1
  Zn  Zn153  1  0.56069762  0.56395649  0.31525858  1
  Zn  Zn154  1  0.56405679  0.56447647  0.81255380  1
  Zn  Zn155  1  0.43416593  0.17653525  0.44774426  1
  Zn  Zn156  1  0.44201303  0.18571035  0.93776779  1
  Zn  Zn157  1  0.44317381  0.68130156  0.43967747  1
  Zn  Zn158  1  0.43380338  0.68481957  0.93512696  1
  Zn  Zn159  1  0.91843636  0.16791886  0.46849590  1
  Zn  Zn160  1  0.94011480  0.19083538  0.94477668  1
  Zn  Zn161  1  0.93752796  0.68324807  0.43285495  1
  Zn  Zn162  1  0.93946918  0.68672859  0.93673577  1
  Zn  Zn163  1  0.05768305  0.31442293  0.05970806  1
  Zn  Zn164  1  0.06359181  0.30990967  0.56451687  1
  Zn  Zn165  1  0.06137844  0.81147471  0.06101262  1
  Zn  Zn166  1  0.06529391  0.81520786  0.56490430  1
  Zn  Zn167  1  0.56384673  0.31384975  0.06143354  1
  Zn  Zn168  1  0.55815535  0.31389174  0.56234135  1
  Zn  Zn169  1  0.56348104  0.81520963  0.06495625  1
  Zn  Zn170  1  0.56719115  0.81266018  0.57011998  1
  O  O171  1  0.12554545  0.12150085  0.11471459  1
  O  O172  1  0.11165584  0.12068984  0.62092550  1
  O  O173  1  0.13081931  0.62770138  0.10997603  1
  O  O174  1  0.12658863  0.62169021  0.61404192  1
  O  O175  1  0.62113713  0.11795881  0.12021461  1
  O  O176  1  0.61972403  0.11487279  0.61911854  1
  O  O177  1  0.61936982  0.61530419  0.12215203  1
  O  O178  1  0.62742914  0.60919759  0.62556370  1
  O  O179  1  0.37639195  0.35869036  0.35595526  1
  O  O180  1  0.37964359  0.38845039  0.87311718  1
  O  O181  1  0.37288566  0.88401563  0.37370628  1
  O  O182  1  0.37359010  0.88310310  0.88675387  1
  O  O183  1  0.88364361  0.38309090  0.37811949  1
  O  O184  1  0.87217441  0.39574193  0.89273538  1
  O  O185  1  0.88410897  0.87700406  0.37385372  1
  O  O186  1  0.88255321  0.88576931  0.88702026  1
  O  O187  1  0.25988902  0.00135842  0.36858594  1
  O  O188  1  0.26798831  0.00161926  0.87646934  1
  O  O189  1  0.25444020  0.49767024  0.36382653  1
  O  O190  1  0.25695483  0.50662403  0.87018403  1
  O  O191  1  0.75947700  -0.00901546  0.36688467  1
  O  O192  1  0.76910591  -0.00168984  0.87911795  1
  O  O193  1  0.74963264  0.50744288  0.36846694  1
  O  O194  1  0.75289098  0.50773834  0.87101633  1
  O  O195  1  0.25532729  0.49322208  0.13022679  1
  O  O196  1  0.24824093  0.49301304  0.62610291  1
  O  O197  1  0.24604289  0.99609302  0.12753208  1
  O  O198  1  0.25289662  0.98657614  0.62545097  1
  O  O199  1  0.73857379  0.50539703  0.13507114  1
  O  O200  1  0.73712736  0.49456901  0.63303131  1
  O  O201  1  0.73972532  1.00331560  0.13127190  1
  O  O202  1  0.73849590  0.99614987  0.62052428  1
  O  O203  1  -0.00161993  0.37984509  0.26585889  1
  O  O204  1  0.00862865  0.38468677  0.74386098  1
  O  O205  1  0.00454037  0.86683438  0.25721404  1
  O  O206  1  0.00723931  0.86869145  0.75816861  1
  O  O207  1  0.50063372  0.36815606  0.24847119  1
  O  O208  1  0.49875176  0.36764466  0.75824928  1
  O  O209  1  0.50966406  0.86333778  0.24420617  1
  O  O210  1  0.51483576  0.86478408  0.74921215  1
  O  O211  1  0.48828466  0.11887611  0.24238666  1
  O  O212  1  0.50061932  0.13780632  0.75196789  1
  O  O213  1  0.49453626  0.63382615  0.24533195  1
  O  O214  1  0.48748182  0.63102146  0.75551713  1
  O  O215  1  0.98749869  0.12071798  0.25279720  1
  O  O216  1  0.99321702  0.13241091  0.75128990  1
  O  O217  1  0.98739635  0.63052561  0.25679703  1
  O  O218  1  1.00850455  0.64757796  0.75068042  1
  O  O219  1  0.36803825  0.25017345  0.00465939  1
  O  O220  1  0.36994489  0.24569345  0.51776408  1
  O  O221  1  0.36901515  0.75660591  0.00273926  1
  O  O222  1  0.37862098  0.74784246  0.50883671  1
  O  O223  1  0.86761395  0.26048956  0.00208584  1
  O  O224  1  0.86540563  0.26895243  0.48592599  1
  O  O225  1  0.87129585  0.75713984  0.00663341  1
  O  O226  1  0.86173456  0.74525077  0.49491169  1
  O  O227  1  0.13825278  0.25211626  0.49254427  1
  O  O228  1  0.13129629  0.24697332  0.99236350  1
  O  O229  1  0.12517505  0.74223206  0.49221955  1
  O  O230  1  0.13643282  0.74499166  1.00119034  1
  O  O231  1  0.61901110  0.24119499  0.49320287  1
  O  O232  1  0.63860922  0.24485145  1.00552920  1
  O  O233  1  0.63114034  0.74724818  0.49335077  1
  O  O234  1  0.63276265  0.74660486  1.00256900  1
  O  O235  1  0.48700813  0.24631442  0.11782086  1
  O  O236  1  0.48747805  0.24788715  0.63218327  1
  O  O237  1  0.49575456  0.74450024  0.13177918  1
  O  O238  1  0.49073270  0.75182957  0.63670166  1
  O  O239  1  0.99389228  0.25249375  0.12553425  1
  O  O240  1  0.99923148  0.25749885  0.63475319  1
  O  O241  1  0.98740476  0.75199934  0.12896668  1
  O  O242  1  0.99918232  0.75302552  0.63731948  1
  O  O243  1  -0.00255635  0.26167804  0.38058580  1
  O  O244  1  0.00954814  0.25388819  0.87565671  1
  O  O245  1  0.00940729  0.75206159  0.36852925  1
  O  O246  1  -0.00397967  0.76427381  0.87111963  1
  O  O247  1  0.49805462  0.24727864  0.37333605  1
  O  O248  1  0.48981909  0.25901507  0.86302262  1
  O  O249  1  0.51043711  0.74420806  0.36524043  1
  O  O250  1  0.50000210  0.74622890  0.86480983  1
  O  O251  1  0.25553151  0.12801172  0.49268068  1
  O  O252  1  0.24317916  0.13514628  0.99662889  1
  O  O253  1  0.24195292  0.62775103  0.49711646  1
  O  O254  1  0.24594625  0.63286341  0.99261506  1
  O  O255  1  0.73278579  0.12360446  0.50415173  1
  O  O256  1  0.74565400  0.13866553  1.00464297  1
  O  O257  1  0.74614783  0.63222967  0.49141137  1
  O  O258  1  0.74338664  0.63077576  0.99683927  1
  O  O259  1  0.25203985  0.37102899  0.00256941  1
  O  O260  1  0.24824828  0.36416778  0.50857014  1
  O  O261  1  0.25590126  0.86823608  0.00199091  1
  O  O262  1  0.25706484  0.86755933  0.50801419  1
  O  O263  1  0.75546893  0.36158575  -0.00397697  1
  O  O264  1  0.75549632  0.38095350  0.50777462  1
  O  O265  1  0.75924280  0.86668941  -0.00218215  1
  O  O266  1  0.75177684  0.85531893  0.49763382  1
  O  O267  1  0.13567925  0.49809289  0.25078444  1
  O  O268  1  0.13002111  0.49767782  0.74300389  1
  O  O269  1  0.13045089  0.99276599  0.24282202  1
  O  O270  1  0.12493174  0.98610107  0.74898095  1
  O  O271  1  0.62848585  0.49352741  0.24595930  1
  O  O272  1  0.62790483  0.49958436  0.74065301  1
  O  O273  1  0.63139600  0.99477489  0.24509387  1
  O  O274  1  0.61990325  0.98715166  0.74518442  1
  O  O275  1  0.37461155  0.00287058  0.25348443  1
  O  O276  1  0.38272018  -0.00808904  0.76606386  1
  O  O277  1  0.36967180  0.50969297  0.25217870  1
  O  O278  1  0.37066479  0.50767295  0.75420161  1
  O  O279  1  0.86911281  0.00239775  0.25771359  1
  O  O280  1  0.88001171  -0.00506880  0.76521900  1
  O  O281  1  0.86575911  0.50614959  0.25224954  1
  O  O282  1  0.86210039  0.49253515  0.77025218  1
  O  O283  1  0.10775470  0.37437507  0.37539584  1
  O  O284  1  0.12807127  0.36902902  0.86208490  1
  O  O285  1  0.11999405  0.86523991  0.36634348  1
  O  O286  1  0.11642189  0.87928236  0.86964251  1
  O  O287  1  0.62019912  0.36764461  0.36278791  1
  O  O288  1  0.61097126  0.38104610  0.87362148  1
  O  O289  1  0.62857942  0.86241861  0.36541637  1
  O  O290  1  0.62423845  0.87504499  0.86593195  1
  O  O291  1  0.37928369  0.13254197  0.13124839  1
  O  O292  1  0.37778745  0.13316447  0.62620009  1
  O  O293  1  0.37964922  0.63195479  0.13388843  1
  O  O294  1  0.36845470  0.63387193  0.63635090  1
  O  O295  1  0.88007300  0.12310965  0.14585855  1
  O  O296  1  0.89467321  0.13344017  0.57668933  1
  O  O297  1  0.87048186  0.63245978  0.13595961  1
  O  O298  1  0.88668289  0.57778458  0.63709332  1
  O  O299  1  0.25972880  0.25604816  0.11250852  1
  O  O300  1  0.25817060  0.25341434  0.62078271  1
  O  O301  1  0.25783391  0.75574128  0.11571580  1
  O  O302  1  0.26260755  0.75977396  0.62695699  1
  O  O303  1  0.75792542  0.24942080  0.11543882  1
  O  O304  1  0.73919695  0.26804430  0.62367352  1
  O  O305  1  0.76054872  0.74514559  0.11422323  1
  O  O306  1  0.74557021  0.74426461  0.61105890  1
  O  O307  1  0.26294990  0.23302698  0.39111251  1
  O  O308  1  0.24779136  0.25358119  0.88565139  1
  O  O309  1  0.23727587  0.74746178  0.37377737  1
  O  O310  1  0.25882115  0.74095815  0.88336893  1
  O  O311  1  0.73336275  0.25432021  0.38356923  1
  O  O312  1  0.75791986  0.24196117  0.88220633  1
  O  O313  1  0.74336986  0.74204365  0.38054416  1
  O  O314  1  0.75095481  0.74208059  0.88959596  1
  O  O315  1  0.00831468  0.11791891  0.00376403  1
  O  O316  1  0.01567852  0.10263369  0.47278085  1
  O  O317  1  0.00844168  0.61522815  -0.00360174  1
  O  O318  1  0.00560256  0.61863368  0.50251629  1
  O  O319  1  0.50919479  0.11904706  0.00674841  1
  O  O320  1  0.50934473  0.10906166  0.50422386  1
  O  O321  1  0.50509405  0.62007950  0.00468274  1
  O  O322  1  0.50483897  0.60566604  0.49724064  1
  O  O323  1  0.50337003  0.39620133  0.50443850  1
  O  O324  1  0.49687875  0.38145423  0.99200347  1
  O  O325  1  0.50318171  0.88419988  0.50354460  1
  O  O326  1  0.49217957  0.88398968  1.00546456  1
  O  O327  1  0.99267976  0.38134307  0.49025358  1
  O  O328  1  0.99313392  0.39376436  1.00109462  1
  O  O329  1  1.00079658  0.87382699  0.48586894  1
  O  O330  1  0.99495854  0.88161723  0.99458251  1
  O  O331  1  0.49441968  0.49628261  0.38015574  1
  O  O332  1  0.49273625  0.49543324  0.87806506  1
  O  O333  1  0.49412199  0.99978419  0.38232666  1
  O  O334  1  0.49195737  1.00303821  0.88844948  1
  O  O335  1  0.99552919  0.49640935  0.38453499  1
  O  O336  1  0.98640089  0.51103343  0.87603955  1
  O  O337  1  0.99471629  0.98497620  0.37659219  1
  O  O338  1  0.99359566  0.99327035  0.88757985  1
  O  O339  1  0.00818586  -0.00106378  0.11360728  1
  O  O340  1  0.00099894  -0.00336727  0.60378039  1
  O  O341  1  -0.00134038  0.50405802  0.11610230  1
  O  O342  1  0.01648028  0.48976350  0.60566376  1
  O  O343  1  0.50993407  0.00597349  0.11451338  1
  O  O344  1  0.51230095  -0.00249725  0.61816131  1
  O  O345  1  0.50524477  0.50635185  0.12026425  1
  O  O346  1  0.50862029  0.49900311  0.62503299  1
  O  O347  1  0.25399341  0.38946972  0.23481086  1
  O  O348  1  0.24531267  0.38455445  0.74128912  1
  O  O349  1  0.24593544  0.87999311  0.24152108  1
  O  O350  1  0.24528117  0.87896086  0.74393058  1
  O  O351  1  0.74160745  0.38607086  0.25554844  1
  O  O352  1  0.74200272  0.38960116  0.74416971  1
  O  O353  1  0.73964901  0.88307845  0.24937411  1
  O  O354  1  0.73396286  0.86515318  0.75590266  1
  O  O355  1  0.26478309  0.11719481  0.25218505  1
  O  O356  1  0.24686668  0.12149821  0.75274409  1
  O  O357  1  0.25774526  0.61805801  0.24964789  1
  O  O358  1  0.25523763  0.62129467  0.75632420  1
  O  O359  1  0.75787973  0.11064650  0.24937985  1
  O  O360  1  0.74842253  0.13094431  0.75546562  1
  O  O361  1  0.75455742  0.61672390  0.25607080  1
  O  O362  1  0.74444517  0.61597735  0.76075419  1
  O  O363  1  0.37066735  0.11160795  0.36758032  1
  O  O364  1  0.37537352  0.10966890  0.88198036  1
  O  O365  1  0.37225042  0.63095523  0.36084470  1
  O  O366  1  0.36613899  0.61475832  0.86836507  1
  O  O367  1  0.87637787  0.11183452  0.36688187  1
  O  O368  1  0.87491523  0.11564421  0.87940498  1
  O  O369  1  0.86310082  0.62053692  0.36497228  1
  O  O370  1  0.86196469  0.61459156  0.88491924  1
  O  O371  1  0.13871506  0.37117783  0.12290248  1
  O  O372  1  0.13794841  0.38095487  0.63098878  1
  O  O373  1  0.13159269  0.87922131  0.12787495  1
  O  O374  1  0.13653881  0.87801305  0.63162987  1
  O  O375  1  0.61729088  0.38553445  0.13746848  1
  O  O376  1  0.62892566  0.38838021  0.62490331  1
  O  O377  1  0.62216178  0.88656632  0.13415590  1
  O  O378  1  0.63375452  0.87945624  0.63848683  1
  O  O379  1  0.15613254  0.26207881  0.26484807  1
  O  O380  1  0.12638990  0.26299960  0.75933074  1
  O  O381  1  0.12074117  0.75184496  0.25447573  1
  O  O382  1  0.11830994  0.76601070  0.74771549  1
  O  O383  1  0.62874120  0.25612402  0.25673255  1
  O  O384  1  0.60231249  0.25561167  0.74302541  1
  O  O385  1  0.62171759  0.75723842  0.25249732  1
  O  O386  1  0.61748150  0.75625410  0.75504066  1
  O  O387  1  0.37741740  0.24369768  0.24548158  1
  O  O388  1  0.38479380  0.25458089  0.73748440  1
  O  O389  1  0.38340640  0.74686455  0.24443825  1
  O  O390  1  0.38251154  0.74453848  0.74619847  1
  O  O391  1  0.86499025  0.23442900  0.25676457  1
  O  O392  1  0.86337280  0.24837549  0.76920588  1
  O  O393  1  0.87621645  0.74395234  0.24243191  1
  O  O394  1  0.89010238  0.75483225  0.75598571  1
  O  O395  1  0.38476694  0.50116664  0.49087947  1
  O  O396  1  0.38112657  0.50218897  0.99046116  1
  O  O397  1  0.38617621  0.99558949  0.49067265  1
  O  O398  1  0.38403577  0.99287002  0.99604015  1
  O  O399  1  0.88193942  0.49340511  0.48972531  1
  O  O400  1  0.88486752  0.50055266  0.99672647  1
  O  O401  1  0.88535856  0.99155699  0.48540327  1
  O  O402  1  0.88208695  0.99601230  1.00186795  1
  O  O403  1  0.12066098  0.00898840  0.00156902  1
  O  O404  1  0.11484297  -0.01355436  0.49661176  1
  O  O405  1  0.11060495  0.50696070  -0.00371331  1
  O  O406  1  0.12056719  0.50856734  0.49967390  1
  O  O407  1  0.62230413  0.00432983  0.00584511  1
  O  O408  1  0.62187736  0.00139930  0.50463668  1
  O  O409  1  0.62061323  0.50199437  0.00971248  1
  O  O410  1  0.61753680  0.50339873  0.51048511  1
  O  O411  1  0.36684577  0.36660812  0.11988335  1
  O  O412  1  0.36277674  0.36598428  0.62842337  1
  O  O413  1  0.37070180  0.87130922  0.11443721  1
  O  O414  1  0.37144942  0.86586538  0.62424185  1
  O  O415  1  0.87159161  0.38059588  0.11372444  1
  O  O416  1  0.86213718  0.38693863  0.61426009  1
  O  O417  1  0.87887961  0.86910980  0.11422520  1
  O  O418  1  0.86930284  0.87715507  0.62258282  1
  O  O419  1  0.14442470  0.12078701  0.36417439  1
  O  O420  1  0.12629962  0.13392087  0.88601845  1
  O  O421  1  0.12533503  0.63103197  0.38478602  1
  O  O422  1  0.13891210  0.62131678  0.88343792  1
  O  O423  1  0.61845454  0.13503726  0.38205651  1
  O  O424  1  0.62316117  0.12049607  0.88947399  1
  O  O425  1  0.63516693  0.63507416  0.37116597  1
  O  O426  1  0.63472875  0.62649782  0.88440346  1
