# generated using pymatgen
data_V85Zn86O256
_symmetry_space_group_name_H-M   'P 1'
_cell_length_a   16.92456486
_cell_length_b   16.93482884
_cell_length_c   16.93016577
_cell_angle_alpha   90.03329996
_cell_angle_beta   89.90660403
_cell_angle_gamma   89.99389519
_symmetry_Int_Tables_number   1
_chemical_formula_structural   V85Zn86O256
_chemical_formula_sum   'V85 Zn86 O256'
_cell_volume   4852.42554701
_cell_formula_units_Z   1
loop_
 _symmetry_equiv_pos_site_id
 _symmetry_equiv_pos_as_xyz
  1  'x, y, z'
loop_
 _atom_site_type_symbol
 _atom_site_label
 _atom_site_symmetry_multiplicity
 _atom_site_fract_x
 _atom_site_fract_y
 _atom_site_fract_z
 _atom_site_occupancy
  V  V0  1  0.75227523  0.62506798  0.87597116  1
  V  V1  1  0.50326834  0.12458085  0.62655180  1
  V  V2  1  0.13030754  0.12599463  0.49405684  1
  V  V3  1  0.62704748  -0.00303759  0.62441930  1
  V  V4  1  0.88288244  0.62833099  0.75096203  1
  V  V5  1  0.24566896  0.49384780  0.75054365  1
  V  V6  1  0.50224791  0.50175883  0.00142745  1
  V  V7  1  -0.00077210  0.50118183  0.48392987  1
  V  V8  1  0.49535202  0.12520848  0.12545074  1
  V  V9  1  0.36765564  0.74524655  0.12936542  1
  V  V10  1  0.11730386  0.26931305  0.86703409  1
  V  V11  1  0.88072250  0.75029331  0.13736385  1
  V  V12  1  0.49792260  0.74426339  0.24955830  1
  V  V13  1  0.62546480  0.74956099  0.87663008  1
  V  V14  1  0.37311029  0.87644631  0.50024494  1
  V  V15  1  0.87250953  0.00248913  0.86015984  1
  V  V16  1  0.00853674  0.62627571  0.12467350  1
  V  V17  1  0.75715950  0.61273082  0.37113780  1
  V  V18  1  0.62929952  0.87928545  0.75218298  1
  V  V19  1  0.11965134  0.49714722  0.62698735  1
  V  V20  1  0.50059067  0.62513644  0.62558824  1
  V  V21  1  0.62772610  0.24480468  0.36815553  1
  V  V22  1  0.75334345  0.37584913  0.12763127  1
  V  V23  1  0.62500522  -0.00068158  0.12682788  1
  V  V24  1  0.49642259  0.87451604  0.87689208  1
  V  V25  1  0.36897097  0.11827286  0.75395056  1
  V  V26  1  0.76504899  0.00550478  0.25703557  1
  V  V27  1  0.13890511  0.49266835  0.12153192  1
  V  V28  1  0.88519201  0.75172768  0.62829649  1
  V  V29  1  0.63249029  0.50320903  0.12670041  1
  V  V30  1  0.62511769  0.12565592  0.00130175  1
  V  V31  1  -0.00918644  0.25273727  0.73764463  1
  V  V32  1  0.37560878  0.49872155  0.87504271  1
  V  V33  1  0.88008930  0.49370138  0.87385761  1
  V  V34  1  0.62905542  0.37083192  0.74469816  1
  V  V35  1  0.74561993  0.26194629  0.50492822  1
  V  V36  1  0.75077933  0.11891296  0.86832506  1
  V  V37  1  0.12606517  0.86564921  0.24436317  1
  V  V38  1  0.75359274  0.74844947  0.49770688  1
  V  V39  1  0.13097718  0.00160636  0.12175951  1
  V  V40  1  0.75338728  0.87905635  0.62723667  1
  V  V41  1  0.23890556  0.00645137  0.25268097  1
  V  V42  1  0.50074707  0.37498527  0.87533467  1
  V  V43  1  0.75358357  0.49530300  0.74459583  1
  V  V44  1  0.23955075  0.25461415  0.00229624  1
  V  V45  1  0.49391802  0.49802723  0.49985897  1
  V  V46  1  0.23726671  0.12009937  0.87813097  1
  V  V47  1  0.50031667  0.24892502  0.75122616  1
  V  V48  1  -0.00038691  0.87237650  0.86537884  1
  V  V49  1  0.62536303  0.87509422  0.25110626  1
  V  V50  1  0.37154603  0.75112144  0.62661893  1
  V  V51  1  0.00266870  0.00636843  -0.00266226  1
  V  V52  1  0.00058366  0.12418371  0.12871864  1
  V  V53  1  0.88263311  0.60778360  0.25396578  1
  V  V54  1  0.13362138  0.87167555  0.75020357  1
  V  V55  1  0.37255842  0.62424324  0.75256794  1
  V  V56  1  -0.00137914  0.00928411  0.50151120  1
  V  V57  1  0.49836103  0.87447310  0.37487592  1
  V  V58  1  0.49621605  -0.00074645  0.00085501  1
  V  V59  1  0.12095359  0.74121258  0.87702938  1
  V  V60  1  0.24419378  0.37062940  0.62545549  1
  V  V61  1  0.49765950  0.24868199  0.24794650  1
  V  V62  1  0.36455114  0.87401679  0.00718977  1
  V  V63  1  0.36861033  0.25586735  0.12328513  1
  V  V64  1  0.87461614  0.24323237  0.13217668  1
  V  V65  1  0.13549252  0.37705951  0.24913386  1
  V  V66  1  0.62741039  0.62558304  0.49955978  1
  V  V67  1  0.87917391  0.87715574  0.49175146  1
  V  V68  1  0.36975126  0.50266615  0.35655891  1
  V  V69  1  0.62693506  0.37971272  0.24842654  1
  V  V70  1  0.12760853  0.62895943  0.49821630  1
  V  V71  1  0.24804004  0.75163968  0.49095658  1
  V  V72  1  0.12666876  0.24648539  0.37228608  1
  V  V73  1  0.87973267  0.37207762  -0.00073461  1
  V  V74  1  0.01113409  0.86467481  0.37466950  1
  V  V75  1  0.62604977  0.24942364  0.87555213  1
  V  V76  1  0.87710172  0.87418853  -0.00099584  1
  V  V77  1  0.63119737  0.12049605  0.49256519  1
  V  V78  1  0.12786811  0.00983712  0.63420029  1
  V  V79  1  0.75265262  0.87477097  0.12664977  1
  V  V80  1  0.37353591  0.24961784  0.62375560  1
  V  V81  1  0.62742532  0.49950165  0.62564349  1
  V  V82  1  0.49902937  -0.00043741  0.49822144  1
  V  V83  1  0.00251499  0.50313243  0.00029125  1
  V  V84  1  0.36667442  0.00783615  0.37377724  1
  Zn  Zn85  1  0.62690672  0.62706437  0.00323358  1
  Zn  Zn86  1  0.24211271  0.62102910  0.88079238  1
  Zn  Zn87  1  0.24174039  0.74541092  0.00351269  1
  Zn  Zn88  1  0.25552452  0.62717012  0.36412190  1
  Zn  Zn89  1  0.50021060  0.62311410  0.13072971  1
  Zn  Zn90  1  0.36750832  -0.00289413  0.87316551  1
  Zn  Zn91  1  0.00532936  0.62793572  0.62968435  1
  Zn  Zn92  1  0.75198886  0.74892246  0.00285326  1
  Zn  Zn93  1  0.87181177  0.25179547  0.62664643  1
  Zn  Zn94  1  0.36500242  0.12888051  0.25281699  1
  Zn  Zn95  1  0.49842313  0.37387662  0.37492333  1
  Zn  Zn96  1  0.62602373  0.74832868  0.37456841  1
  Zn  Zn97  1  0.75339345  0.24752579  -0.00072969  1
  Zn  Zn98  1  0.37135661  0.37727085  0.00348163  1
  Zn  Zn99  1  0.37438548  0.37308868  0.49625578  1
  Zn  Zn100  1  0.78576628  0.12798172  0.36908337  1
  Zn  Zn101  1  0.87010242  0.38487881  0.50018611  1
  Zn  Zn102  1  0.25188709  0.24717319  0.49353408  1
  Zn  Zn103  1  -0.00341733  0.25072728  0.25310088  1
  Zn  Zn104  1  0.25155041  0.88092732  0.62898314  1
  Zn  Zn105  1  -0.00788005  0.38068179  0.36543072  1
  Zn  Zn106  1  0.49909192  0.74899125  0.75189847  1
  Zn  Zn107  1  0.18071569  0.18435393  0.18609082  1
  Zn  Zn108  1  0.18401592  0.18735941  0.69266784  1
  Zn  Zn109  1  0.19008169  0.68472656  0.18301928  1
  Zn  Zn110  1  0.18719001  0.68749388  0.69065692  1
  Zn  Zn111  1  0.69167168  0.18633304  0.18692115  1
  Zn  Zn112  1  0.72425149  0.16015568  0.66777298  1
  Zn  Zn113  1  0.69323406  0.68684154  0.19096689  1
  Zn  Zn114  1  0.69255512  0.68963892  0.68897062  1
  Zn  Zn115  1  0.31017060  0.31587349  0.31336914  1
  Zn  Zn116  1  0.31013779  0.30950603  0.81427812  1
  Zn  Zn117  1  0.30948262  0.81957984  0.30890173  1
  Zn  Zn118  1  0.30824069  0.81060820  0.81582995  1
  Zn  Zn119  1  0.81389130  0.32066647  0.31685384  1
  Zn  Zn120  1  0.81227156  0.30997263  0.81330697  1
  Zn  Zn121  1  0.81484282  0.81307373  0.31500230  1
  Zn  Zn122  1  0.81276121  0.81317253  0.81175357  1
  Zn  Zn123  1  0.18800884  0.43579157  0.43772361  1
  Zn  Zn124  1  0.18894713  0.43840640  0.94081056  1
  Zn  Zn125  1  0.18433772  0.93929466  0.43776443  1
  Zn  Zn126  1  0.18461480  0.93552150  0.93629647  1
  Zn  Zn127  1  0.68081159  0.43964821  0.43204291  1
  Zn  Zn128  1  0.69105367  0.43724883  0.93812733  1
  Zn  Zn129  1  0.69145787  0.93673538  0.43391633  1
  Zn  Zn130  1  0.68919702  0.93813407  0.93980955  1
  Zn  Zn131  1  0.30853274  0.06686923  0.06078396  1
  Zn  Zn132  1  0.30844612  0.06441635  0.56384665  1
  Zn  Zn133  1  0.31505452  0.56884385  0.06010536  1
  Zn  Zn134  1  0.30840419  0.56329478  0.56344573  1
  Zn  Zn135  1  0.81321625  0.05979143  0.05998296  1
  Zn  Zn136  1  0.81976169  0.06614060  0.55913686  1
  Zn  Zn137  1  0.81612940  0.56320669  0.06410126  1
  Zn  Zn138  1  0.81719569  0.56271046  0.56425529  1
  Zn  Zn139  1  0.44071947  0.43536224  0.18557255  1
  Zn  Zn140  1  0.43723962  0.43579028  0.68635840  1
  Zn  Zn141  1  0.43261883  0.93602855  0.18938196  1
  Zn  Zn142  1  0.43935675  0.93692686  0.68925850  1
  Zn  Zn143  1  0.94502963  0.43423183  0.18619528  1
  Zn  Zn144  1  0.93912000  0.42021607  0.68454155  1
  Zn  Zn145  1  0.94579134  0.93517879  0.18749791  1
  Zn  Zn146  1  0.94288938  0.93871115  0.68359689  1
  Zn  Zn147  1  -0.00087145  0.08279767  0.33567451  1
  Zn  Zn148  1  0.05748620  0.06691127  0.81030490  1
  Zn  Zn149  1  0.09486975  0.58359308  0.29384097  1
  Zn  Zn150  1  0.06034789  0.55495443  0.81074364  1
  Zn  Zn151  1  0.55969751  0.06034781  0.31015144  1
  Zn  Zn152  1  0.56229429  0.06063575  0.81342489  1
  Zn  Zn153  1  0.56406185  0.56179616  0.31682511  1
  Zn  Zn154  1  0.56366495  0.56287178  0.81201610  1
  Zn  Zn155  1  0.44134389  0.18710501  0.43814286  1
  Zn  Zn156  1  0.43260111  0.18783028  0.93864433  1
  Zn  Zn157  1  0.43469466  0.68468531  0.43588029  1
  Zn  Zn158  1  0.43506799  0.68635736  0.94181139  1
  Zn  Zn159  1  0.94022300  0.19984901  0.44361601  1
  Zn  Zn160  1  0.93874250  0.18620805  0.93376254  1
  Zn  Zn161  1  0.94237045  0.68295555  0.43836158  1
  Zn  Zn162  1  0.94008331  0.68900100  0.93951956  1
  Zn  Zn163  1  0.06084426  0.31383392  0.06221880  1
  Zn  Zn164  1  0.06056148  0.31389750  0.56246254  1
  Zn  Zn165  1  0.06011551  0.81503700  0.05999756  1
  Zn  Zn166  1  0.06612791  0.81681669  0.56451423  1
  Zn  Zn167  1  0.56132184  0.31343290  0.06277477  1
  Zn  Zn168  1  0.56514679  0.31124412  0.56198571  1
  Zn  Zn169  1  0.56003310  0.81116406  0.06313954  1
  Zn  Zn170  1  0.56185976  0.80999891  0.56271756  1
  O  O171  1  0.11457640  0.11445102  0.11980925  1
  O  O172  1  0.12715428  0.11417198  0.62118961  1
  O  O173  1  0.11357241  0.61148476  0.12434118  1
  O  O174  1  0.12636596  0.61641108  0.62052086  1
  O  O175  1  0.61917730  0.12163059  0.11665118  1
  O  O176  1  0.62584456  0.11392018  0.61506397  1
  O  O177  1  0.62673943  0.61708099  0.12524586  1
  O  O178  1  0.62246724  0.62130593  0.62107290  1
  O  O179  1  0.37906398  0.38675622  0.37632640  1
  O  O180  1  0.38409878  0.38069180  0.87455682  1
  O  O181  1  0.37970029  0.88529203  0.38043550  1
  O  O182  1  0.38195505  0.87489837  0.88147798  1
  O  O183  1  0.87940160  0.37507094  0.38579774  1
  O  O184  1  0.86547978  0.38510901  0.88546158  1
  O  O185  1  0.88481396  0.87316841  0.38718320  1
  O  O186  1  0.88039579  0.87926486  0.87984847  1
  O  O187  1  0.25590385  -0.00329714  0.36720072  1
  O  O188  1  0.24954066  0.01528791  0.88221280  1
  O  O189  1  0.26848076  0.49932869  0.38219973  1
  O  O190  1  0.25704515  0.49887112  0.86743909  1
  O  O191  1  0.75123602  0.00166636  0.36043433  1
  O  O192  1  0.76143348  0.00489805  0.88160299  1
  O  O193  1  0.74890637  0.51362517  0.37851011  1
  O  O194  1  0.75757333  0.50739488  0.86710288  1
  O  O195  1  0.23705560  0.50179577  0.11655553  1
  O  O196  1  0.24307375  0.49202743  0.63151873  1
  O  O197  1  0.23760740  1.00358416  0.12799431  1
  O  O198  1  0.23306598  0.99857895  0.62238460  1
  O  O199  1  0.74038441  0.49303116  0.12139152  1
  O  O200  1  0.74510186  0.50692749  0.63758575  1
  O  O201  1  0.74384808  0.99456086  0.13363310  1
  O  O202  1  0.74377681  0.98418027  0.61440065  1
  O  O203  1  0.01170111  0.36840714  0.24788180  1
  O  O204  1  0.00322005  0.35544196  0.75402635  1
  O  O205  1  0.01044851  0.88225415  0.26683674  1
  O  O206  1  0.00764178  0.87848166  0.76096194  1
  O  O207  1  0.51055128  0.36446671  0.24770768  1
  O  O208  1  0.50647189  0.37065028  0.75666648  1
  O  O209  1  0.50767700  0.86885326  0.25502686  1
  O  O210  1  0.50540376  0.87170837  0.76233242  1
  O  O211  1  0.49827065  0.13145914  0.24063292  1
  O  O212  1  0.49538713  0.12990280  0.74488519  1
  O  O213  1  0.50818232  0.64129156  0.25326114  1
  O  O214  1  0.49333622  0.62599926  0.74300707  1
  O  O215  1  1.00215480  0.13026481  0.23251887  1
  O  O216  1  1.00469425  0.15228316  0.76236107  1
  O  O217  1  0.99153645  0.62185929  0.24087922  1
  O  O218  1  0.98635996  0.62090832  0.74900879  1
  O  O219  1  0.36551473  0.25290004  0.00682690  1
  O  O220  1  0.37383001  0.24859428  0.50889450  1
  O  O221  1  0.37889645  0.75782364  0.01337053  1
  O  O222  1  0.37025936  0.75463738  0.50878937  1
  O  O223  1  0.87473377  0.25851112  0.00510477  1
  O  O224  1  0.85221097  0.24815513  0.50097469  1
  O  O225  1  0.87440134  0.76206368  0.00509063  1
  O  O226  1  0.87077768  0.75579446  0.50738311  1
  O  O227  1  0.12449217  0.24180105  0.49374233  1
  O  O228  1  0.13551607  0.25469512  0.99303552  1
  O  O229  1  0.13880491  0.74393891  0.51305295  1
  O  O230  1  0.12383784  0.75818675  0.98243679  1
  O  O231  1  0.62728102  0.24188568  0.48703856  1
  O  O232  1  0.62503809  0.24171437  0.99512679  1
  O  O233  1  0.63513751  0.74403200  0.50009430  1
  O  O234  1  0.62800368  0.74994077  0.98859654  1
  O  O235  1  0.49227562  0.24420733  0.12835363  1
  O  O236  1  0.49462206  0.24313002  0.62956691  1
  O  O237  1  0.49397053  0.74814681  0.13385886  1
  O  O238  1  0.48843860  0.74441272  0.62687299  1
  O  O239  1  0.99163798  0.24035686  0.11950580  1
  O  O240  1  0.99738558  0.24810728  0.63204142  1
  O  O241  1  0.99245411  0.73775061  0.11473586  1
  O  O242  1  0.98825161  0.75158671  0.62283068  1
  O  O243  1  0.01363520  0.25937591  0.37532866  1
  O  O244  1  0.01705572  0.25279881  0.88402126  1
  O  O245  1  0.00123940  0.76602826  0.38345839  1
  O  O246  1  0.00808588  0.75914999  0.87662721  1
  O  O247  1  0.50969994  0.25017594  0.36637656  1
  O  O248  1  0.50510893  0.25489066  0.87189580  1
  O  O249  1  0.49882332  0.75764658  0.36907743  1
  O  O250  1  0.50770036  0.75641632  0.87569959  1
  O  O251  1  0.23530862  0.12626224  0.50004637  1
  O  O252  1  0.25588560  0.13921904  0.98475177  1
  O  O253  1  0.24492216  0.63403621  0.49918118  1
  O  O254  1  0.25641512  0.63313953  0.99162301  1
  O  O255  1  0.73871685  0.12850961  0.48825659  1
  O  O256  1  0.73804045  0.12307577  0.99462952  1
  O  O257  1  0.75015985  0.63186241  0.49472285  1
  O  O258  1  0.75106718  0.62540215  0.98743177  1
  O  O259  1  0.25402107  0.35883489  -0.00427361  1
  O  O260  1  0.25462342  0.37217187  0.51271827  1
  O  O261  1  0.26229319  0.86979043  -0.00605914  1
  O  O262  1  0.25592022  0.86907792  0.50294388  1
  O  O263  1  0.75875735  0.37451154  0.01111857  1
  O  O264  1  0.74090068  0.36372504  0.49220175  1
  O  O265  1  0.75900227  0.87523624  0.00873524  1
  O  O266  1  0.75952658  0.86850592  0.50264155  1
  O  O267  1  0.11740568  0.48438438  0.23219309  1
  O  O268  1  0.13823523  0.50290896  0.74457951  1
  O  O269  1  0.12950353  0.99398277  0.23861828  1
  O  O270  1  0.11726739  0.99578304  0.73838189  1
  O  O271  1  0.61935424  0.48837275  0.24278032  1
  O  O272  1  0.63386904  0.49351382  0.74732722  1
  O  O273  1  0.62818119  0.98893576  0.24546614  1
  O  O274  1  0.61821315  0.98521062  0.74444391  1
  O  O275  1  0.36358167  -0.00075424  0.25768086  1
  O  O276  1  0.37933084  0.01410922  0.75022271  1
  O  O277  1  0.37791185  0.49899818  0.25734491  1
  O  O278  1  0.36774870  0.50660154  0.75164246  1
  O  O279  1  0.86299752  -0.00626280  0.24429801  1
  O  O280  1  0.87826821  -0.00571848  0.76078907  1
  O  O281  1  0.87648615  0.50998284  0.24539964  1
  O  O282  1  0.86978045  0.50297432  0.75623046  1
  O  O283  1  0.12441869  0.37406400  0.36103046  1
  O  O284  1  0.12790108  0.36770794  0.87371868  1
  O  O285  1  0.11760429  0.87452681  0.36616650  1
  O  O286  1  0.11724753  0.87002541  0.86691016  1
  O  O287  1  0.62250396  0.36661614  0.36272183  1
  O  O288  1  0.62015908  0.37188281  0.86792016  1
  O  O289  1  0.61913335  0.87243810  0.36733143  1
  O  O290  1  0.62060273  0.87016876  0.87047582  1
  O  O291  1  0.37996728  0.13503183  0.12609146  1
  O  O292  1  0.37812213  0.13332951  0.63159410  1
  O  O293  1  0.38110093  0.64071426  0.12613849  1
  O  O294  1  0.37776171  0.63081790  0.63547424  1
  O  O295  1  0.88159834  0.13387816  0.11588064  1
  O  O296  1  0.83275167  0.14311306  0.63540510  1
  O  O297  1  0.88004434  0.63114245  0.13670056  1
  O  O298  1  0.87544718  0.63514012  0.63439349  1
  O  O299  1  0.25329587  0.24048654  0.10997796  1
  O  O300  1  0.25685487  0.25475516  0.62650571  1
  O  O301  1  0.26337227  0.75067159  0.12473235  1
  O  O302  1  0.26243697  0.75130813  0.62156955  1
  O  O303  1  0.75654409  0.25602067  0.12012555  1
  O  O304  1  0.72410095  0.25825894  0.60346665  1
  O  O305  1  0.76042938  0.75679916  0.12364287  1
  O  O306  1  0.75635010  0.75890490  0.61474713  1
  O  O307  1  0.23446199  0.25457614  0.37642386  1
  O  O308  1  0.23939972  0.24488783  0.88251024  1
  O  O309  1  0.26101166  0.74906028  0.38765066  1
  O  O310  1  0.23286894  0.74741702  0.87453146  1
  O  O311  1  0.73835709  0.24371719  0.37610040  1
  O  O312  1  0.74248803  0.24044239  0.87912652  1
  O  O313  1  0.75218511  0.74578288  0.38744581  1
  O  O314  1  0.74354410  0.74276233  0.87648634  1
  O  O315  1  -0.00485406  0.11043840  0.00441649  1
  O  O316  1  0.00651666  0.11269918  0.50574201  1
  O  O317  1  -0.00947699  0.61147170  0.00883295  1
  O  O318  1  0.00756462  0.61673777  0.50932507  1
  O  O319  1  0.50452512  0.12013889  0.00617940  1
  O  O320  1  0.51134755  0.11994064  0.50673275  1
  O  O321  1  0.50459028  0.61234907  0.00079254  1
  O  O322  1  0.50636645  0.61994333  0.50603043  1
  O  O323  1  0.50029124  0.38389679  0.49810359  1
  O  O324  1  0.50116991  0.38596764  0.99350819  1
  O  O325  1  0.49408515  0.87959438  0.49545344  1
  O  O326  1  0.49484076  0.87844760  0.99044303  1
  O  O327  1  1.00805639  0.39516915  0.49691111  1
  O  O328  1  0.98639333  0.38617355  1.00658799  1
  O  O329  1  0.99747725  0.88048781  0.49441862  1
  O  O330  1  0.99282572  0.88267780  0.98830004  1
  O  O331  1  0.49042589  0.49904504  0.38300576  1
  O  O332  1  0.49708270  0.49507195  0.88093657  1
  O  O333  1  0.49302997  0.99262598  0.37975489  1
  O  O334  1  0.49631217  0.99061884  0.88227605  1
  O  O335  1  1.00951566  0.50634480  0.38517806  1
  O  O336  1  0.98781894  0.50261337  0.88209025  1
  O  O337  1  1.00649656  0.98601169  0.39652362  1
  O  O338  1  0.99356571  0.99490128  0.88011954  1
  O  O339  1  0.00430397  0.00623931  0.11674201  1
  O  O340  1  0.01480435  -0.00716526  0.61251059  1
  O  O341  1  0.00272375  0.50762634  0.11549706  1
  O  O342  1  0.01451755  0.49855084  0.63077771  1
  O  O343  1  0.50455272  0.00496652  0.12208085  1
  O  O344  1  0.50623110  0.00410758  0.61755880  1
  O  O345  1  0.51127469  0.50090557  0.11821339  1
  O  O346  1  0.50675790  0.50589983  0.62054261  1
  O  O347  1  0.23510141  0.37254174  0.24538967  1
  O  O348  1  0.25923021  0.38328103  0.73890368  1
  O  O349  1  0.23275927  0.88501185  0.25312889  1
  O  O350  1  0.23852235  0.87780706  0.75188767  1
  O  O351  1  0.74145787  0.36955555  0.23645422  1
  O  O352  1  0.74061193  0.38412907  0.75674913  1
  O  O353  1  0.74368117  0.88170987  0.24754418  1
  O  O354  1  0.74139964  0.87073903  0.73998555  1
  O  O355  1  0.24793026  0.11181897  0.24756133  1
  O  O356  1  0.25728678  0.13154995  0.76596255  1
  O  O357  1  0.20412364  0.61536090  0.26573766  1
  O  O358  1  0.25806213  0.61556637  0.75434895  1
  O  O359  1  0.74794291  0.10964406  0.25174060  1
  O  O360  1  0.72428060  0.11822627  0.77239600  1
  O  O361  1  0.76860446  0.63154241  0.25939735  1
  O  O362  1  0.75774533  0.61810757  0.75963785  1
  O  O363  1  0.38190663  0.11135864  0.37350987  1
  O  O364  1  0.36709827  0.12379503  0.86774178  1
  O  O365  1  0.37444359  0.60856040  0.37597717  1
  O  O366  1  0.38034718  0.61920804  0.86253103  1
  O  O367  1  0.89753717  0.12247306  0.37430982  1
  O  O368  1  0.86362739  0.11485251  0.88014926  1
  O  O369  1  0.87462410  0.62893897  0.36097343  1
  O  O370  1  0.86939270  0.62006288  0.86960675  1
  O  O371  1  0.12448690  0.38474842  0.12917587  1
  O  O372  1  0.13552272  0.38181260  0.62210237  1
  O  O373  1  0.11174669  0.88479239  0.13747363  1
  O  O374  1  0.12766771  0.88367065  0.63532762  1
  O  O375  1  0.63258715  0.38055819  0.12921194  1
  O  O376  1  0.61781066  0.38279546  0.63856451  1
  O  O377  1  0.63010499  0.87846133  0.13176425  1
  O  O378  1  0.63101318  0.87596095  0.63242243  1
  O  O379  1  0.12348178  0.25891411  0.25362522  1
  O  O380  1  0.12292458  0.25321055  0.76345884  1
  O  O381  1  0.12417436  0.76744902  0.23860553  1
  O  O382  1  0.12513154  0.75976052  0.75953067  1
  O  O383  1  0.62058495  0.25459826  0.25212271  1
  O  O384  1  0.61809835  0.25890580  0.75739082  1
  O  O385  1  0.62052869  0.76157429  0.25020705  1
  O  O386  1  0.62461143  0.75885915  0.76034296  1
  O  O387  1  0.37852966  0.24846902  0.24407599  1
  O  O388  1  0.38109449  0.24027722  0.74469038  1
  O  O389  1  0.38233330  0.76018758  0.23786309  1
  O  O390  1  0.37462469  0.74248786  0.74512294  1
  O  O391  1  0.87345753  0.25471970  0.23509214  1
  O  O392  1  0.88501738  0.25333251  0.74993073  1
  O  O393  1  0.87833772  0.75317754  0.23927899  1
  O  O394  1  0.86748939  0.74054073  0.74088350  1
  O  O395  1  0.38820222  0.49952411  0.50794397  1
  O  O396  1  0.38503783  0.49729861  0.99597365  1
  O  O397  1  0.37781904  0.99700865  0.49470618  1
  O  O398  1  0.37950310  0.99116306  1.00187393  1
  O  O399  1  0.89562816  0.50670982  0.50346218  1
  O  O400  1  0.87942642  0.49394451  0.99266851  1
  O  O401  1  0.88933793  0.99124945  0.50947191  1
  O  O402  1  0.88236265  0.98755153  0.99573088  1
  O  O403  1  0.11376209  -0.01109594  0.00873138  1
  O  O404  1  0.11829396  0.00648717  0.50836438  1
  O  O405  1  0.11504547  0.49284547  0.01008485  1
  O  O406  1  0.12054061  0.50808994  0.50861010  1
  O  O407  1  0.61760880  0.00545754  0.00687056  1
  O  O408  1  0.62059092  0.00421586  0.50023613  1
  O  O409  1  0.62059398  0.50101584  0.00805494  1
  O  O410  1  0.61545856  0.50579279  0.50460542  1
  O  O411  1  0.37950226  0.35992136  0.12376776  1
  O  O412  1  0.37165789  0.36044544  0.62549114  1
  O  O413  1  0.38178249  0.86357153  0.11566642  1
  O  O414  1  0.37427691  0.86817890  0.62151781  1
  O  O415  1  0.86850019  0.36965251  0.11933342  1
  O  O416  1  0.87189550  0.36780674  0.61345837  1
  O  O417  1  0.87622475  0.86877775  0.11829619  1
  O  O418  1  0.86983977  0.86970737  0.61888208  1
  O  O419  1  0.10920015  0.13307875  0.38467854  1
  O  O420  1  0.13634581  0.12833038  0.87451121  1
  O  O421  1  0.12071163  0.63002577  0.39743859  1
  O  O422  1  0.11850838  0.63835567  0.86821640  1
  O  O423  1  0.61881752  0.13090693  0.37987355  1
  O  O424  1  0.62382320  0.12631889  0.88896806  1
  O  O425  1  0.63623160  0.62806833  0.38120586  1
  O  O426  1  0.63347496  0.63329763  0.87413922  1
