# generated using pymatgen
data_V85Zn86O256
_symmetry_space_group_name_H-M   'P 1'
_cell_length_a   16.92741334
_cell_length_b   16.92798731
_cell_length_c   16.92462035
_cell_angle_alpha   90.08288993
_cell_angle_beta   90.01410354
_cell_angle_gamma   90.02707014
_symmetry_Int_Tables_number   1
_chemical_formula_structural   V85Zn86O256
_chemical_formula_sum   'V85 Zn86 O256'
_cell_volume   4849.69406909
_cell_formula_units_Z   1
loop_
 _symmetry_equiv_pos_site_id
 _symmetry_equiv_pos_as_xyz
  1  'x, y, z'
loop_
 _atom_site_type_symbol
 _atom_site_label
 _atom_site_symmetry_multiplicity
 _atom_site_fract_x
 _atom_site_fract_y
 _atom_site_fract_z
 _atom_site_occupancy
  V  V0  1  -0.00615315  0.49470678  0.00481006  1
  V  V1  1  0.62843417  0.74985498  0.87184393  1
  V  V2  1  0.25192036  0.86171077  0.12068072  1
  V  V3  1  0.36927027  -0.00254326  0.87205963  1
  V  V4  1  0.00114639  0.87629077  0.88251801  1
  V  V5  1  0.25301890  0.37695468  0.62146937  1
  V  V6  1  0.25608603  0.24965030  0.49801715  1
  V  V7  1  0.73641676  0.75621418  0.50293480  1
  V  V8  1  0.12606748  0.87644938  0.24977460  1
  V  V9  1  0.62716110  0.62358681  -0.00250800  1
  V  V10  1  0.61881143  0.12379503  0.49848798  1
  V  V11  1  0.00344395  0.74922204  0.75003552  1
  V  V12  1  0.87889938  0.00038259  0.88206172  1
  V  V13  1  -0.00444095  0.24940692  0.23729092  1
  V  V14  1  0.50050118  0.12742773  0.12445626  1
  V  V15  1  -0.00651498  0.74946654  0.25085969  1
  V  V16  1  0.73511880  0.62833152  0.38440409  1
  V  V17  1  0.00247951  0.12994977  0.62841583  1
  V  V18  1  0.75170095  0.49604397  0.74378388  1
  V  V19  1  0.87690798  0.62407848  0.74960820  1
  V  V20  1  0.87763957  0.12489436  0.23301309  1
  V  V21  1  0.62328671  0.49970746  0.61403780  1
  V  V22  1  0.13821397  0.50144138  0.12887314  1
  V  V23  1  0.12429946  0.25000488  0.37376801  1
  V  V24  1  0.74763826  -0.00299046  0.25693378  1
  V  V25  1  0.75273812  0.62313196  0.87344294  1
  V  V26  1  0.36938886  0.62252469  0.24647543  1
  V  V27  1  -0.00115094  0.62356680  0.61385389  1
  V  V28  1  -0.00907674  0.88357327  0.37817517  1
  V  V29  1  0.49897691  0.25377772  0.24832902  1
  V  V30  1  0.50802680  0.75448240  0.26009849  1
  V  V31  1  0.37398619  0.62331868  0.74768245  1
  V  V32  1  0.87168033  0.37722200  0.50392478  1
  V  V33  1  0.10941032  0.00138945  0.12117642  1
  V  V34  1  -0.00003517  0.62300572  0.12214430  1
  V  V35  1  0.12185466  0.25324845  0.87060293  1
  V  V36  1  0.24824629  0.74999201  0.50070504  1
  V  V37  1  0.74970327  0.12525619  0.87597075  1
  V  V38  1  0.25068936  -0.00041116  0.24436108  1
  V  V39  1  0.12589104  0.75033874  0.37431962  1
  V  V40  1  0.75572715  0.75196450  0.00052874  1
  V  V41  1  0.13698611  0.37652881  0.24664969  1
  V  V42  1  0.37632344  0.25309971  0.62523549  1
  V  V43  1  0.87318593  0.76094640  0.62245239  1
  V  V44  1  0.50230046  0.62066804  0.60783156  1
  V  V45  1  0.49973379  0.37354037  0.87384698  1
  V  V46  1  0.24722381  0.25513563  0.00499894  1
  V  V47  1  0.11976298  0.49940771  0.61682111  1
  V  V48  1  0.75194217  0.50229645  0.25175483  1
  V  V49  1  0.00009820  0.37808026  0.37845681  1
  V  V50  1  0.49875467  0.38276908  0.38658227  1
  V  V51  1  0.76366195  0.12601507  0.37950446  1
  V  V52  1  0.62490050  0.37499281  0.24642413  1
  V  V53  1  0.50285726  0.49988825  0.00005114  1
  V  V54  1  0.11953486  0.37297146  0.74854791  1
  V  V55  1  0.87941206  0.50648118  0.38399666  1
  V  V56  1  0.50173741  0.74793356  0.74752887  1
  V  V57  1  0.76220815  0.25378155  0.00356378  1
  V  V58  1  0.62814538  0.37412265  0.74432866  1
  V  V59  1  0.75319131  -0.00239282  0.74597270  1
  V  V60  1  -0.00369428  0.37349317  0.87707112  1
  V  V61  1  0.37109185  0.49966279  0.38601178  1
  V  V62  1  0.62515033  0.24920910  0.87677337  1
  V  V63  1  0.49898716  -0.00144235  0.00097086  1
  V  V64  1  0.76485709  0.37180258  0.12413300  1
  V  V65  1  0.87173376  0.25380618  0.62778947  1
  V  V66  1  0.37414011  0.75104863  0.62349560  1
  V  V67  1  0.62666822  0.24979441  0.37583597  1
  V  V68  1  0.37473221  0.12548516  0.24949536  1
  V  V69  1  0.37168600  0.37620050  0.00891139  1
  V  V70  1  0.12567307  0.12056616  0.49838404  1
  V  V71  1  0.13195621  0.88050283  0.75053296  1
  V  V72  1  0.50045011  0.63303740  0.12542086  1
  V  V73  1  0.12868772  0.74042306  0.88633321  1
  V  V74  1  0.74547943  0.87595025  0.12941308  1
  V  V75  1  0.88128244  0.13049836  0.75139941  1
  V  V76  1  0.63087201  0.87429677  0.74416406  1
  V  V77  1  0.11192533  0.12203027  0.00305843  1
  V  V78  1  0.37247128  0.49707054  0.87171326  1
  V  V79  1  0.37231711  0.12226549  0.74919730  1
  V  V80  1  0.38026480  0.88192487  0.49338312  1
  V  V81  1  0.50012518  0.87454470  0.87396294  1
  V  V82  1  0.37095728  0.85910129  0.00202353  1
  V  V83  1  0.61932684  0.00165554  0.62406167  1
  V  V84  1  0.24738973  0.12202083  0.87617860  1
  Zn  Zn85  1  0.87475890  0.49518461  0.87856695  1
  Zn  Zn86  1  0.49426511  0.12138995  0.61910028  1
  Zn  Zn87  1  0.24949198  0.12293368  0.37214238  1
  Zn  Zn88  1  0.74777012  0.25333729  0.50653313  1
  Zn  Zn89  1  0.51792987  0.88326042  0.37873542  1
  Zn  Zn90  1  0.62504994  0.12434089  0.00048325  1
  Zn  Zn91  1  0.36916254  0.25590488  0.12753820  1
  Zn  Zn92  1  0.62830354  0.49913636  0.12243349  1
  Zn  Zn93  1  0.86702587  0.88211885  0.49886813  1
  Zn  Zn94  1  0.12860748  0.00388221  0.63039619  1
  Zn  Zn95  1  0.24547327  0.61799538  0.37077578  1
  Zn  Zn96  1  0.49968125  0.24789340  0.74921068  1
  Zn  Zn97  1  0.87279750  0.62756243  0.25289130  1
  Zn  Zn98  1  0.24751528  0.50315229  0.74553970  1
  Zn  Zn99  1  0.12262575  0.62111009  0.49497483  1
  Zn  Zn100  1  0.25455080  0.63374977  0.88827570  1
  Zn  Zn101  1  0.62248023  -0.00435362  0.12906999  1
  Zn  Zn102  1  0.25376629  0.88344106  0.62699134  1
  Zn  Zn103  1  0.87948280  0.88161183  0.00650524  1
  Zn  Zn104  1  0.87571204  0.75089620  0.12562141  1
  Zn  Zn105  1  -0.01022851  0.00491296  0.49891631  1
  Zn  Zn106  1  0.37877381  0.00093427  0.37438148  1
  Zn  Zn107  1  0.18357937  0.18729960  0.18425561  1
  Zn  Zn108  1  0.19045219  0.18722880  0.68910676  1
  Zn  Zn109  1  0.18428093  0.68578672  0.18827942  1
  Zn  Zn110  1  0.18723590  0.68801883  0.68794931  1
  Zn  Zn111  1  0.68920023  0.18602908  0.18753711  1
  Zn  Zn112  1  0.68978418  0.18504176  0.68803478  1
  Zn  Zn113  1  0.68777167  0.68312885  0.18444658  1
  Zn  Zn114  1  0.68835521  0.68329592  0.68120942  1
  Zn  Zn115  1  0.31569486  0.31396695  0.31594740  1
  Zn  Zn116  1  0.30733808  0.31312460  0.81174182  1
  Zn  Zn117  1  0.31504883  0.80714504  0.30861628  1
  Zn  Zn118  1  0.31074551  0.80915991  0.81485489  1
  Zn  Zn119  1  0.81494780  0.31078922  0.31272103  1
  Zn  Zn120  1  0.81189467  0.31189133  0.81168258  1
  Zn  Zn121  1  0.68943011  0.81135934  0.31222542  1
  Zn  Zn122  1  0.81581716  0.81362434  0.81196162  1
  Zn  Zn123  1  0.18990295  0.43545548  0.43791161  1
  Zn  Zn124  1  0.20389682  0.47131770  0.95925186  1
  Zn  Zn125  1  0.19115830  0.93717448  0.43510944  1
  Zn  Zn126  1  0.18605506  0.93603377  0.93977580  1
  Zn  Zn127  1  0.69147430  0.43585134  0.43423847  1
  Zn  Zn128  1  0.69148521  0.43471422  0.93544277  1
  Zn  Zn129  1  0.69211046  0.94329030  0.44168132  1
  Zn  Zn130  1  0.68818924  0.93682802  0.93688473  1
  Zn  Zn131  1  0.30994607  0.06006199  0.06195131  1
  Zn  Zn132  1  0.30589916  0.06058130  0.56541003  1
  Zn  Zn133  1  0.31508105  0.56855685  0.06395739  1
  Zn  Zn134  1  0.31081380  0.56451293  0.56008239  1
  Zn  Zn135  1  0.80857485  0.06298652  0.06268037  1
  Zn  Zn136  1  0.81041900  0.06249542  0.56292116  1
  Zn  Zn137  1  0.81636842  0.56262115  0.06524910  1
  Zn  Zn138  1  0.81190335  0.56534566  0.56305207  1
  Zn  Zn139  1  0.43929522  0.44533611  0.18915421  1
  Zn  Zn140  1  0.44136793  0.43663145  0.68393658  1
  Zn  Zn141  1  0.43560432  0.93528535  0.18619391  1
  Zn  Zn142  1  0.43645754  0.93657612  0.68693853  1
  Zn  Zn143  1  0.93987702  0.43819167  0.19548870  1
  Zn  Zn144  1  0.93984172  0.43803581  0.68759135  1
  Zn  Zn145  1  0.92936085  0.93478415  0.19509832  1
  Zn  Zn146  1  0.94501845  0.94278043  0.68972620  1
  Zn  Zn147  1  0.06056922  0.06381583  0.30902620  1
  Zn  Zn148  1  0.06045589  0.06277684  0.81636109  1
  Zn  Zn149  1  0.06180568  0.56229425  0.31014031  1
  Zn  Zn150  1  0.06247612  0.55847273  0.80980308  1
  Zn  Zn151  1  0.56446210  0.05874324  0.31610929  1
  Zn  Zn152  1  0.55913676  0.06246455  0.81105909  1
  Zn  Zn153  1  0.56043194  0.56117175  0.31137472  1
  Zn  Zn154  1  0.56212413  0.56069329  0.80723417  1
  Zn  Zn155  1  0.43859693  0.18900323  0.43379306  1
  Zn  Zn156  1  0.43533476  0.18829429  0.93827722  1
  Zn  Zn157  1  0.43480770  0.69085436  0.43198555  1
  Zn  Zn158  1  0.44066994  0.68417367  0.93336172  1
  Zn  Zn159  1  0.94138957  0.19307795  0.44007106  1
  Zn  Zn160  1  0.93895811  0.19017582  0.93675413  1
  Zn  Zn161  1  0.93241157  0.69502593  0.43625011  1
  Zn  Zn162  1  0.94132797  0.68376615  0.93877221  1
  Zn  Zn163  1  0.06410397  0.31663756  0.06037046  1
  Zn  Zn164  1  0.06044057  0.30915846  0.56066458  1
  Zn  Zn165  1  0.06468371  0.81270735  0.06457067  1
  Zn  Zn166  1  0.06207375  0.81346913  0.56241989  1
  Zn  Zn167  1  0.56509007  0.31240066  0.06208242  1
  Zn  Zn168  1  0.56265701  0.31093547  0.56361543  1
  Zn  Zn169  1  0.56468966  0.81110959  0.06262525  1
  Zn  Zn170  1  0.55960266  0.81489394  0.56415556  1
  O  O171  1  0.12716650  0.11484545  0.11496724  1
  O  O172  1  0.11915220  0.12998951  0.61816011  1
  O  O173  1  0.11767602  0.60784397  0.13552051  1
  O  O174  1  0.11715511  0.61765026  0.62426887  1
  O  O175  1  0.61115772  0.12550068  0.12207073  1
  O  O176  1  0.62155798  0.12064453  0.61917559  1
  O  O177  1  0.61990527  0.62072018  0.11445715  1
  O  O178  1  0.61307199  0.61282848  0.63094648  1
  O  O179  1  0.38770054  0.38774284  0.36940030  1
  O  O180  1  0.38334101  0.37808480  0.87812661  1
  O  O181  1  0.37210402  0.87221251  0.38829173  1
  O  O182  1  0.37808253  0.88107224  0.87928434  1
  O  O183  1  0.88202979  0.38234611  0.38094274  1
  O  O184  1  0.89211908  0.37530268  0.86443090  1
  O  O185  1  0.89370164  0.87187053  0.37512743  1
  O  O186  1  0.88376849  0.88352012  0.87513846  1
  O  O187  1  0.25371621  0.00100349  0.35807873  1
  O  O188  1  0.25778587  0.00874116  0.88103934  1
  O  O189  1  0.26533398  0.49783794  0.37630454  1
  O  O190  1  0.26772190  0.48641038  0.86138698  1
  O  O191  1  0.75047292  0.01386076  0.36809598  1
  O  O192  1  0.75557290  0.00528686  0.86653907  1
  O  O193  1  0.75689844  0.50980923  0.37169631  1
  O  O194  1  0.75238310  0.50502279  0.86456669  1
  O  O195  1  0.23680905  0.49964782  0.12859652  1
  O  O196  1  0.24476113  0.49231395  0.62475986  1
  O  O197  1  0.24383809  0.99323005  0.13284536  1
  O  O198  1  0.24134271  0.99632521  0.62834951  1
  O  O199  1  0.75013034  0.49442409  0.13513355  1
  O  O200  1  0.74262849  0.50764285  0.63764774  1
  O  O201  1  0.74798185  0.99259389  0.13150415  1
  O  O202  1  0.73937110  1.00794135  0.64130768  1
  O  O203  1  0.00444154  0.36668035  0.26164490  1
  O  O204  1  0.01315795  0.37975635  0.75620812  1
  O  O205  1  0.00589128  0.86911103  0.25930654  1
  O  O206  1  0.00685788  0.86655943  0.76062619  1
  O  O207  1  0.50834123  0.37265826  0.25319018  1
  O  O208  1  0.50813360  0.37181960  0.75821534  1
  O  O209  1  0.49332928  0.85490391  0.24435732  1
  O  O210  1  0.50703253  0.86809629  0.75579646  1
  O  O211  1  0.49374941  0.13252198  0.24245349  1
  O  O212  1  0.48440335  0.12817720  0.75082589  1
  O  O213  1  0.49726747  0.63211810  0.24337193  1
  O  O214  1  0.48957421  0.63068963  0.74665251  1
  O  O215  1  0.98521420  0.13209415  0.25371982  1
  O  O216  1  0.99174695  0.12235189  0.74442408  1
  O  O217  1  0.99921079  0.63227631  0.24136378  1
  O  O218  1  0.99584150  0.63247382  0.74346932  1
  O  O219  1  0.36659093  0.25974342  -0.00025576  1
  O  O220  1  0.36346126  0.24390251  0.50547613  1
  O  O221  1  0.37726328  0.75972857  -0.00890594  1
  O  O222  1  0.36695698  0.75687839  0.50331198  1
  O  O223  1  0.86148429  0.24916209  -0.00553888  1
  O  O224  1  0.87409311  0.25852165  0.50969963  1
  O  O225  1  0.86377524  0.74961129  -0.00157347  1
  O  O226  1  0.86786445  0.75760590  0.50854725  1
  O  O227  1  0.13403900  0.24142844  0.49467994  1
  O  O228  1  0.13106629  0.24499396  0.99358442  1
  O  O229  1  0.13133464  0.74969023  0.49241939  1
  O  O230  1  0.11949782  0.74879030  0.98483335  1
  O  O231  1  0.62839808  0.24480838  0.49532445  1
  O  O232  1  0.62998130  0.25068521  0.98650127  1
  O  O233  1  0.63777282  0.74922154  0.51213258  1
  O  O234  1  0.63664685  0.74492284  0.99239748  1
  O  O235  1  0.49692143  0.24397982  0.12919311  1
  O  O236  1  0.48653913  0.24833003  0.62582869  1
  O  O237  1  0.50508728  0.73736484  0.12908601  1
  O  O238  1  0.49420735  0.74194706  0.63069349  1
  O  O239  1  1.00522058  0.25519700  0.13820875  1
  O  O240  1  0.99053848  0.23814341  0.62245700  1
  O  O241  1  1.00290134  0.74220561  0.13275190  1
  O  O242  1  0.99526455  0.74371594  0.63245732  1
  O  O243  1  0.00844446  0.25746363  0.36813870  1
  O  O244  1  0.01327536  0.25720501  0.87889462  1
  O  O245  1  0.01013490  0.75646691  0.37017398  1
  O  O246  1  0.00702321  0.75390498  0.86799855  1
  O  O247  1  0.50433680  0.26254214  0.36739580  1
  O  O248  1  0.50773770  0.25524186  0.87427550  1
  O  O249  1  0.50350883  0.75413921  0.36328533  1
  O  O250  1  0.50876505  0.75448588  0.86794298  1
  O  O251  1  0.24348881  0.13251533  0.49558860  1
  O  O252  1  0.24702928  0.13357314  0.98989480  1
  O  O253  1  0.24799516  0.63844658  0.49588496  1
  O  O254  1  0.23999080  0.58119293  0.98565975  1
  O  O255  1  0.74059090  0.12945315  0.49357237  1
  O  O256  1  0.74530437  0.13297705  0.99385696  1
  O  O257  1  0.75336926  0.63334713  0.48953613  1
  O  O258  1  0.74717418  0.63003647  0.99432942  1
  O  O259  1  0.26122443  0.37027672  -0.00680414  1
  O  O260  1  0.24377791  0.36472896  0.51307601  1
  O  O261  1  0.25970545  0.87862185  0.00762585  1
  O  O262  1  0.25671541  0.86457177  0.50122325  1
  O  O263  1  0.74638619  0.36792951  0.01157522  1
  O  O264  1  0.76688387  0.37198974  0.49443382  1
  O  O265  1  0.75321281  0.86679382  0.00402013  1
  O  O266  1  0.75027863  0.85971751  0.50048221  1
  O  O267  1  0.12068345  0.48560098  0.24318518  1
  O  O268  1  0.12786821  0.49199198  0.73791109  1
  O  O269  1  0.13163372  0.99694252  0.24211815  1
  O  O270  1  0.12091624  0.98292911  0.75672981  1
  O  O271  1  0.63670914  0.49274173  0.25117006  1
  O  O272  1  0.63229625  0.49148141  0.74502097  1
  O  O273  1  0.64413919  1.01462194  0.24473536  1
  O  O274  1  0.63230263  0.99352977  0.74850960  1
  O  O275  1  0.36660116  0.00921442  0.24428292  1
  O  O276  1  0.37845134  0.00506693  0.76334806  1
  O  O277  1  0.38266374  0.51596704  0.25984960  1
  O  O278  1  0.37788101  0.50752566  0.75423721  1
  O  O279  1  0.86522428  0.01644829  0.24791274  1
  O  O280  1  0.86919833  0.00774054  0.75647372  1
  O  O281  1  0.86360421  0.49988711  0.26291078  1
  O  O282  1  0.86760544  0.50547448  0.74990130  1
  O  O283  1  0.11926966  0.37234143  0.36702656  1
  O  O284  1  0.11897607  0.36804441  0.86556905  1
  O  O285  1  0.12236503  0.86792125  0.36742451  1
  O  O286  1  0.11996000  0.86615127  0.86819548  1
  O  O287  1  0.61700098  0.37301993  0.36598040  1
  O  O288  1  0.62010177  0.36870440  0.86595573  1
  O  O289  1  0.62996476  0.87914776  0.37620794  1
  O  O290  1  0.62083901  0.86993245  0.86492374  1
  O  O291  1  0.38380146  0.12675383  0.13195038  1
  O  O292  1  0.37330554  0.13066745  0.63329731  1
  O  O293  1  0.38406375  0.62013532  0.13660389  1
  O  O294  1  0.38095382  0.62912137  0.63062596  1
  O  O295  1  0.87292558  0.12728697  0.13441924  1
  O  O296  1  0.88237499  0.13096740  0.63346879  1
  O  O297  1  0.88349703  0.62960990  0.13204212  1
  O  O298  1  0.88260122  0.63231249  0.63117837  1
  O  O299  1  0.24967384  0.24803083  0.10948818  1
  O  O300  1  0.25870572  0.25438997  0.61848469  1
  O  O301  1  0.24239015  0.76194760  0.12609265  1
  O  O302  1  0.25552476  0.75337580  0.61727088  1
  O  O303  1  0.74315472  0.25907024  0.11519166  1
  O  O304  1  0.76617692  0.24592966  0.62634587  1
  O  O305  1  0.75115628  0.75484752  0.11699383  1
  O  O306  1  0.76015178  0.74115041  0.61243159  1
  O  O307  1  0.24441031  0.25063865  0.38303741  1
  O  O308  1  0.24086024  0.24500879  0.88373982  1
  O  O309  1  0.23844042  0.74937602  0.37926076  1
  O  O310  1  0.23444666  0.74839012  0.87502273  1
  O  O311  1  0.74214186  0.24381415  0.37567640  1
  O  O312  1  0.74303460  0.24620238  0.88058921  1
  O  O313  1  0.74684243  0.73707207  0.38736987  1
  O  O314  1  0.74706077  0.74472046  0.87980200  1
  O  O315  1  0.01267503  0.12643362  -0.00485010  1
  O  O316  1  0.00894808  0.12587805  0.50705478  1
  O  O317  1  -0.00078348  0.61706599  0.01456485  1
  O  O318  1  0.00018583  0.63285501  0.51103501  1
  O  O319  1  0.49802643  0.11737397  0.00699906  1
  O  O320  1  0.51327198  0.12938386  0.49873971  1
  O  O321  1  0.50547286  0.62044623  0.00500275  1
  O  O322  1  0.49594856  0.63109381  0.50933285  1
  O  O323  1  0.50318082  0.37159297  0.48450253  1
  O  O324  1  0.49635563  0.37973443  0.99233786  1
  O  O325  1  0.48393167  0.86903517  0.49752973  1
  O  O326  1  0.49329260  0.87983244  0.99524583  1
  O  O327  1  0.99250714  0.36900118  0.48598133  1
  O  O328  1  1.00081422  0.38058428  0.98995274  1
  O  O329  1  1.00374511  0.87711337  0.48669311  1
  O  O330  1  0.99795101  0.86897061  0.98729831  1
  O  O331  1  0.49425703  0.48887238  0.37305871  1
  O  O332  1  0.49248275  0.49416282  0.87778537  1
  O  O333  1  0.49068689  0.99286169  0.36252481  1
  O  O334  1  0.49258262  0.99358506  0.88104282  1
  O  O335  1  0.99013279  0.49275424  0.36990436  1
  O  O336  1  1.00385156  0.49232881  0.88611079  1
  O  O337  1  1.00503361  0.98710494  0.37483148  1
  O  O338  1  0.99045581  0.98979943  0.87123417  1
  O  O339  1  0.01064203  -0.01015567  0.13087114  1
  O  O340  1  0.00844304  0.01448810  0.62402302  1
  O  O341  1  0.00018117  0.50549760  0.12393272  1
  O  O342  1  0.00758118  0.51119641  0.62814278  1
  O  O343  1  0.50059255  0.00647130  0.11796468  1
  O  O344  1  0.51390797  0.00375713  0.63349333  1
  O  O345  1  0.50530174  0.51088322  0.11750519  1
  O  O346  1  0.50940749  0.50829438  0.62654722  1
  O  O347  1  0.23550833  0.36902646  0.25298650  1
  O  O348  1  0.23876191  0.37315841  0.73630771  1
  O  O349  1  0.24808430  0.88040381  0.24206397  1
  O  O350  1  0.23461941  0.86789592  0.75035539  1
  O  O351  1  0.74338036  0.38096938  0.24759927  1
  O  O352  1  0.74144389  0.38418500  0.75432296  1
  O  O353  1  0.75208049  0.88500976  0.24355381  1
  O  O354  1  0.74235635  0.88349594  0.75509416  1
  O  O355  1  0.25769324  0.11932391  0.24599474  1
  O  O356  1  0.25983845  0.13007932  0.76480489  1
  O  O357  1  0.26573490  0.63049396  0.25080640  1
  O  O358  1  0.26368363  0.62495015  0.75158235  1
  O  O359  1  0.76266545  0.12474889  0.25680339  1
  O  O360  1  0.75859888  0.11838994  0.75814327  1
  O  O361  1  0.75014833  0.61874129  0.26121045  1
  O  O362  1  0.75642079  0.61922678  0.75523861  1
  O  O363  1  0.37287743  0.12659048  0.36000961  1
  O  O364  1  0.36768730  0.11812579  0.87101289  1
  O  O365  1  0.37494218  0.61363888  0.36757840  1
  O  O366  1  0.37446203  0.61548591  0.86687459  1
  O  O367  1  0.86519633  0.13303453  0.37634783  1
  O  O368  1  0.87284596  0.11955618  0.86824771  1
  O  O369  1  0.86911225  0.61887654  0.37438396  1
  O  O370  1  0.87186509  0.62180792  0.86670580  1
  O  O371  1  0.12129254  0.38260223  0.14062803  1
  O  O372  1  0.12682437  0.37934597  0.62882867  1
  O  O373  1  0.13197109  0.88175874  0.12977266  1
  O  O374  1  0.12037648  0.87394657  0.64245632  1
  O  O375  1  0.62952097  0.37718895  0.13688670  1
  O  O376  1  0.61882651  0.37949209  0.63810476  1
  O  O377  1  0.63917960  0.87685848  0.11918929  1
  O  O378  1  0.62112574  0.88315085  0.63732359  1
  O  O379  1  0.11960949  0.25842830  0.25402088  1
  O  O380  1  0.13019882  0.25729001  0.75952108  1
  O  O381  1  0.11771578  0.75568972  0.25703003  1
  O  O382  1  0.11522164  0.75648030  0.75511459  1
  O  O383  1  0.62075079  0.25742997  0.25516520  1
  O  O384  1  0.62629535  0.25609802  0.75901709  1
  O  O385  1  0.61411400  0.74508394  0.24866867  1
  O  O386  1  0.62462160  0.75684956  0.75071825  1
  O  O387  1  0.37930422  0.24501214  0.24659288  1
  O  O388  1  0.37324601  0.24253101  0.74258077  1
  O  O389  1  0.38894736  0.73208936  0.25708841  1
  O  O390  1  0.37972299  0.74380447  0.74502176  1
  O  O391  1  0.88255966  0.23764744  0.25350604  1
  O  O392  1  0.87282306  0.23850310  0.74584276  1
  O  O393  1  0.89136817  0.75031371  0.25122976  1
  O  O394  1  0.88525416  0.74473537  0.74611884  1
  O  O395  1  0.37678152  0.50442908  0.48543874  1
  O  O396  1  0.38430646  0.49265565  0.99081684  1
  O  O397  1  0.36781955  0.98501649  0.49824461  1
  O  O398  1  0.38422013  0.99599363  0.99056412  1
  O  O399  1  0.87266128  0.49484493  0.49204327  1
  O  O400  1  0.88800567  0.50113190  0.99867177  1
  O  O401  1  0.87631515  0.99396510  0.50741201  1
  O  O402  1  0.86848239  1.00102747  0.98575269  1
  O  O403  1  0.12825113  0.00941038  0.00820973  1
  O  O404  1  0.12599184  0.01419300  0.49649732  1
  O  O405  1  0.11024283  0.48630412  0.02482963  1
  O  O406  1  0.12841509  0.50101178  0.51169067  1
  O  O407  1  0.61009291  0.00072313  -0.00212041  1
  O  O408  1  0.63237672  0.01026948  0.51414621  1
  O  O409  1  0.61932762  0.50485173  -0.00365606  1
  O  O410  1  0.63309130  0.49006788  0.51531127  1
  O  O411  1  0.38188053  0.37768596  0.11246705  1
  O  O412  1  0.36589304  0.36645287  0.63049734  1
  O  O413  1  0.36542234  0.87704821  0.11304047  1
  O  O414  1  0.37543543  0.86813196  0.61564529  1
  O  O415  1  0.86355531  0.37556915  0.13510377  1
  O  O416  1  0.88449905  0.36702275  0.61689892  1
  O  O417  1  0.86349790  0.87120183  0.12304932  1
  O  O418  1  0.88286536  0.86264305  0.63137308  1
  O  O419  1  0.12586612  0.13299360  0.37966157  1
  O  O420  1  0.13111660  0.13117898  0.87914410  1
  O  O421  1  0.12624544  0.63271722  0.37493729  1
  O  O422  1  0.12468058  0.63827908  0.86666168  1
  O  O423  1  0.63195292  0.13159211  0.38160356  1
  O  O424  1  0.62927095  0.13330869  0.87390121  1
  O  O425  1  0.63700616  0.61673959  0.37834992  1
  O  O426  1  0.63077258  0.63021262  0.87703269  1
