# generated using pymatgen
data_V85Zn86O256
_symmetry_space_group_name_H-M   'P 1'
_cell_length_a   16.92127220
_cell_length_b   16.92399290
_cell_length_c   16.92832213
_cell_angle_alpha   89.92027145
_cell_angle_beta   89.97812068
_cell_angle_gamma   89.98546116
_symmetry_Int_Tables_number   1
_chemical_formula_structural   V85Zn86O256
_chemical_formula_sum   'V85 Zn86 O256'
_cell_volume   4847.85135376
_cell_formula_units_Z   1
loop_
 _symmetry_equiv_pos_site_id
 _symmetry_equiv_pos_as_xyz
  1  'x, y, z'
loop_
 _atom_site_type_symbol
 _atom_site_label
 _atom_site_symmetry_multiplicity
 _atom_site_fract_x
 _atom_site_fract_y
 _atom_site_fract_z
 _atom_site_occupancy
  V  V0  1  0.50428700  0.62576265  0.12244849  1
  V  V1  1  0.50126726  0.62309155  0.61809025  1
  V  V2  1  0.37472072  0.87741308  -0.00045165  1
  V  V3  1  0.87561429  0.86715230  0.50473286  1
  V  V4  1  -0.00452122  0.75039427  0.73372068  1
  V  V5  1  0.25190687  0.87639026  0.62450268  1
  V  V6  1  0.12419121  0.88102394  0.74741006  1
  V  V7  1  0.63028865  0.50670707  0.61881525  1
  V  V8  1  0.24979585  0.37808174  0.13459099  1
  V  V9  1  0.58388275  0.17984901  0.44491849  1
  V  V10  1  0.76194144  0.24856768  0.00011429  1
  V  V11  1  0.37561466  0.00984196  0.86881501  1
  V  V12  1  0.75708719  0.87215668  0.12669128  1
  V  V13  1  0.49848386  0.24629069  0.75289716  1
  V  V14  1  0.12439270  0.73952648  0.37979978  1
  V  V15  1  0.50233009  0.12169349  0.62834027  1
  V  V16  1  0.75521717  0.74189002  0.00558234  1
  V  V17  1  0.49987813  0.00156346  -0.00020094  1
  V  V18  1  0.37284259  0.74421403  0.62682489  1
  V  V19  1  0.74832470  0.49805533  0.25217849  1
  V  V20  1  0.37858208  0.49259787  0.36992987  1
  V  V21  1  0.87016827  0.62927205  0.24824038  1
  V  V22  1  0.75559020  0.87295464  0.63199095  1
  V  V23  1  0.24742528  0.12469636  0.37194612  1
  V  V24  1  0.11790937  0.75275850  0.87812462  1
  V  V25  1  0.62880628  0.87677548  0.75295684  1
  V  V26  1  0.62678899  0.73999598  0.88148780  1
  V  V27  1  0.12350550  0.37394253  0.74582967  1
  V  V28  1  -0.00030847  0.39823594  0.87355851  1
  V  V29  1  0.11047732  0.25183890  0.37164009  1
  V  V30  1  -0.00531332  0.75015030  0.24390162  1
  V  V31  1  -0.00507324  0.62198232  0.12175015  1
  V  V32  1  0.87623109  0.00011880  0.37267208  1
  V  V33  1  0.62778231  -0.00282766  0.12488775  1
  V  V34  1  0.00332096  -0.00243042  0.50352573  1
  V  V35  1  0.12013318  0.61803569  0.00077442  1
  V  V36  1  0.24667209  0.24906723  0.49914800  1
  V  V37  1  0.37585240  0.74982543  0.12621363  1
  V  V38  1  0.75540497  0.36839455  0.12620696  1
  V  V39  1  0.12333399  0.87332419  0.24928642  1
  V  V40  1  0.25062088  0.00738642  0.74667392  1
  V  V41  1  0.24782478  0.37712839  0.62142609  1
  V  V42  1  0.24816007  0.87614438  0.12353285  1
  V  V43  1  0.37564231  0.25165688  0.12607119  1
  V  V44  1  0.00010116  0.51682287  0.49362062  1
  V  V45  1  0.61986093  0.36792491  0.26076877  1
  V  V46  1  0.74820126  0.11928772  0.87239851  1
  V  V47  1  0.00472379  0.11915019  0.62760168  1
  V  V48  1  -0.00269379  0.24890596  0.75590477  1
  V  V49  1  0.75240579  0.24835359  0.49982683  1
  V  V50  1  0.24757701  0.61490230  0.38235741  1
  V  V51  1  0.12528028  0.12953485  -0.00149171  1
  V  V52  1  0.10849417  0.37537303  0.25448622  1
  V  V53  1  0.74014797  0.62536129  0.38025872  1
  V  V54  1  0.75579680  0.50170372  0.75629613  1
  V  V55  1  0.49487699  0.74136998  0.75344686  1
  V  V56  1  0.12037223  0.00773449  0.12618801  1
  V  V57  1  0.36667331  0.61721085  0.24750315  1
  V  V58  1  0.00270371  0.87251348  0.37608529  1
  V  V59  1  0.62890453  0.37564086  0.75032507  1
  V  V60  1  0.37376803  0.24676937  0.63162887  1
  V  V61  1  0.37576356  0.38388461  -0.00250796  1
  V  V62  1  0.12458602  0.49787722  0.12676377  1
  V  V63  1  0.62893212  0.00002460  0.62384393  1
  V  V64  1  0.87004946  0.11903436  0.74740346  1
  V  V65  1  0.88528174  0.61933019  0.74568473  1
  V  V66  1  0.62146133  0.87153240  0.25997790  1
  V  V67  1  0.50025897  0.87452418  0.87398815  1
  V  V68  1  0.93466595  0.18665549  0.18999145  1
  V  V69  1  0.49727509  -0.00906465  0.49046184  1
  V  V70  1  -0.00312617  0.00437484  0.00290122  1
  V  V71  1  0.37547862  0.12141015  0.25217495  1
  V  V72  1  0.62579742  0.49997031  0.11749412  1
  V  V73  1  0.24572723  0.74979030  -0.00041569  1
  V  V74  1  0.38604413  0.37402315  0.49604353  1
  V  V75  1  0.12028853  0.51352945  0.61432549  1
  V  V76  1  0.87207001  -0.00244342  0.87497016  1
  V  V77  1  0.25203200  0.00003934  0.24940192  1
  V  V78  1  0.62636351  0.24924878  0.87633822  1
  V  V79  1  0.12681290  0.11270193  0.50175078  1
  V  V80  1  0.74354564  0.74634079  0.50526425  1
  V  V81  1  0.75549166  0.12607818  0.37430408  1
  V  V82  1  0.88786718  0.37165284  0.49631876  1
  V  V83  1  0.50416636  0.12926077  0.12674190  1
  V  V84  1  0.88037536  0.39252945  -0.00464421  1
  Zn  Zn85  1  0.62768732  0.12864261  0.00269070  1
  Zn  Zn86  1  0.49890118  0.37915078  0.87508407  1
  Zn  Zn87  1  0.24673101  0.74272303  0.50375079  1
  Zn  Zn88  1  0.87483638  0.24940456  0.62641618  1
  Zn  Zn89  1  0.25235853  0.13219100  0.87099723  1
  Zn  Zn90  1  0.75583130  0.37588002  0.62478426  1
  Zn  Zn91  1  0.38719768  0.86313044  0.47746973  1
  Zn  Zn92  1  0.50370949  0.24934204  0.26947044  1
  Zn  Zn93  1  0.75517330  0.00390787  0.24866873  1
  Zn  Zn94  1  0.25461881  0.62391659  0.87140731  1
  Zn  Zn95  1  0.25335607  0.50501651  0.74994397  1
  Zn  Zn96  1  0.38425940  0.52272144  0.85133058  1
  Zn  Zn97  1  0.49451922  0.75326865  0.26025064  1
  Zn  Zn98  1  0.75714431  0.62040586  0.87899033  1
  Zn  Zn99  1  0.87687447  0.87113778  0.00421917  1
  Zn  Zn100  1  0.87849566  0.49591606  0.37192848  1
  Zn  Zn101  1  0.61066625  0.74735608  0.38588132  1
  Zn  Zn102  1  0.12707918  0.25466452  0.87769342  1
  Zn  Zn103  1  0.25002368  0.25222165  -0.00214692  1
  Zn  Zn104  1  -0.00317243  0.87627081  0.87530071  1
  Zn  Zn105  1  0.50978574  0.50014266  0.49075962  1
  Zn  Zn106  1  0.50399621  0.50680269  -0.00632270  1
  Zn  Zn107  1  0.18295255  0.19292433  0.18614491  1
  Zn  Zn108  1  0.18507002  0.18777685  0.68707233  1
  Zn  Zn109  1  0.18619866  0.68566459  0.19011173  1
  Zn  Zn110  1  0.18426155  0.68947830  0.69048699  1
  Zn  Zn111  1  0.69392979  0.18868702  0.19063382  1
  Zn  Zn112  1  0.68821114  0.18663884  0.68560247  1
  Zn  Zn113  1  0.68496884  0.68870379  0.18835420  1
  Zn  Zn114  1  0.69035212  0.68740847  0.69066882  1
  Zn  Zn115  1  0.31012674  0.30976180  0.31161127  1
  Zn  Zn116  1  0.30987089  0.31831708  0.81257106  1
  Zn  Zn117  1  0.31008216  0.80627809  0.31217973  1
  Zn  Zn118  1  0.31103372  0.81140090  0.81379079  1
  Zn  Zn119  1  0.81512478  0.30978349  0.31626922  1
  Zn  Zn120  1  0.81573615  0.31249724  0.81603092  1
  Zn  Zn121  1  0.80878496  0.81233903  0.31623749  1
  Zn  Zn122  1  0.81323016  0.80758997  0.81437874  1
  Zn  Zn123  1  0.18804915  0.43750997  0.43458394  1
  Zn  Zn124  1  0.19221312  0.44076170  0.93599968  1
  Zn  Zn125  1  0.21878481  0.91970287  0.42041302  1
  Zn  Zn126  1  0.18692400  0.94099767  0.93450831  1
  Zn  Zn127  1  0.69469534  0.43337633  0.43882373  1
  Zn  Zn128  1  0.68981689  0.43503404  0.93680697  1
  Zn  Zn129  1  0.68873127  0.94042329  0.44357316  1
  Zn  Zn130  1  0.68867029  0.93343771  0.94121306  1
  Zn  Zn131  1  0.31095636  0.06517043  0.06147856  1
  Zn  Zn132  1  0.31624628  0.06024115  0.56392111  1
  Zn  Zn133  1  0.30677393  0.56256692  0.06103650  1
  Zn  Zn134  1  0.31685468  0.55944655  0.56338304  1
  Zn  Zn135  1  0.81404391  0.06480232  0.06391853  1
  Zn  Zn136  1  0.81176210  0.06002170  0.55915543  1
  Zn  Zn137  1  0.81073120  0.56254332  0.06623192  1
  Zn  Zn138  1  0.81852998  0.56485416  0.56759484  1
  Zn  Zn139  1  0.44205148  0.43725016  0.18855194  1
  Zn  Zn140  1  0.44092289  0.43559629  0.68482424  1
  Zn  Zn141  1  0.43939650  0.93863195  0.18871014  1
  Zn  Zn142  1  0.43598999  0.93276519  0.68609361  1
  Zn  Zn143  1  0.93440009  0.43774738  0.18306125  1
  Zn  Zn144  1  0.93981923  0.43886466  0.68133279  1
  Zn  Zn145  1  0.93799280  0.94235730  0.18771180  1
  Zn  Zn146  1  0.93782703  0.93835771  0.68858425  1
  Zn  Zn147  1  0.05987300  0.06375616  0.31245559  1
  Zn  Zn148  1  0.06316137  0.06178757  0.81675473  1
  Zn  Zn149  1  0.06148114  0.55860287  0.30913793  1
  Zn  Zn150  1  0.08523671  0.57299465  0.79846872  1
  Zn  Zn151  1  0.56215983  0.05530458  0.30725537  1
  Zn  Zn152  1  0.56433639  0.06167405  0.80953652  1
  Zn  Zn153  1  0.55891360  0.56250305  0.30586628  1
  Zn  Zn154  1  0.56425092  0.56108840  0.80969745  1
  Zn  Zn155  1  0.42111355  0.17729573  0.44540982  1
  Zn  Zn156  1  0.43850781  0.19044891  0.94137081  1
  Zn  Zn157  1  0.43392051  0.68399049  0.43777573  1
  Zn  Zn158  1  0.43651214  0.68687579  0.94073789  1
  Zn  Zn159  1  0.93708227  0.18481237  0.43688307  1
  Zn  Zn160  1  0.93941599  0.18708862  0.93887642  1
  Zn  Zn161  1  0.92930051  0.68847688  0.43145879  1
  Zn  Zn162  1  0.93565278  0.68318195  0.93313680  1
  Zn  Zn163  1  0.05382470  0.31196178  0.06497159  1
  Zn  Zn164  1  0.06105717  0.30492981  0.56240720  1
  Zn  Zn165  1  0.05843496  0.81578308  0.06307401  1
  Zn  Zn166  1  0.06954914  0.81356595  0.56155215  1
  Zn  Zn167  1  0.56586119  0.31481235  0.06368059  1
  Zn  Zn168  1  0.56325773  0.31810170  0.57129315  1
  Zn  Zn169  1  0.56526717  0.81154669  0.06399566  1
  Zn  Zn170  1  0.56317561  0.81269545  0.56668489  1
  O  O171  1  0.13144431  0.11385974  0.11795864  1
  O  O172  1  0.11703941  0.12870547  0.61438561  1
  O  O173  1  0.11752600  0.61821115  0.12188482  1
  O  O174  1  0.12683567  0.61148053  0.61817036  1
  O  O175  1  0.62043207  0.11756324  0.12769880  1
  O  O176  1  0.61417487  0.11456868  0.63269465  1
  O  O177  1  0.61605416  0.61414690  0.13444252  1
  O  O178  1  0.61846059  0.61635000  0.63078576  1
  O  O179  1  0.36913995  0.37869507  0.38299485  1
  O  O180  1  0.37695499  0.37048525  0.89315695  1
  O  O181  1  0.32703596  0.88658598  0.38619286  1
  O  O182  1  0.38099310  0.88139388  0.88178337  1
  O  O183  1  0.87006916  0.37858906  0.39197414  1
  O  O184  1  0.88392181  0.37635595  0.88522720  1
  O  O185  1  0.88234351  0.87809425  0.38445305  1
  O  O186  1  0.87098294  0.88899040  0.87549492  1
  O  O187  1  0.23404977  0.01868010  0.36222163  1
  O  O188  1  0.25992460  0.00142537  0.86638048  1
  O  O189  1  0.26154602  0.50421299  0.37624349  1
  O  O190  1  0.26018068  0.50253937  0.87211929  1
  O  O191  1  0.75974807  0.00606596  0.37968764  1
  O  O192  1  0.75446011  0.01164477  0.88297368  1
  O  O193  1  0.75216925  0.50639868  0.36791122  1
  O  O194  1  0.74439013  0.50123810  0.86078788  1
  O  O195  1  0.23495173  0.49331131  0.12260470  1
  O  O196  1  0.23652737  0.49185797  0.61887015  1
  O  O197  1  0.24309775  0.99571091  0.12983895  1
  O  O198  1  0.25863074  0.99088094  0.63471088  1
  O  O199  1  0.74437949  0.49154170  0.13230333  1
  O  O200  1  0.74579345  0.50024602  0.63547390  1
  O  O201  1  0.74230928  0.99298126  0.12601115  1
  O  O202  1  0.73992856  0.98928667  0.61920081  1
  O  O203  1  0.00960879  0.37716331  0.24795564  1
  O  O204  1  0.00174339  0.36719460  0.75485426  1
  O  O205  1  0.00352404  0.86747964  0.25394418  1
  O  O206  1  0.00551110  0.86737343  0.75140372  1
  O  O207  1  0.51471112  0.36938230  0.24859541  1
  O  O208  1  0.51067238  0.36258076  0.74844196  1
  O  O209  1  0.51633780  0.87573008  0.24526084  1
  O  O210  1  0.50748250  0.86472043  0.75461700  1
  O  O211  1  0.49367459  0.12677467  0.24473965  1
  O  O212  1  0.50228168  0.13747327  0.74428096  1
  O  O213  1  0.48606990  0.62765094  0.23905577  1
  O  O214  1  0.50664131  0.63762820  0.74118356  1
  O  O215  1  0.99579625  0.13234706  0.25236002  1
  O  O216  1  0.99590377  0.12911798  0.74568246  1
  O  O217  1  0.99115687  0.63035448  0.24345955  1
  O  O218  1  0.99653506  0.63887223  0.75021513  1
  O  O219  1  0.37634506  0.25858232  0.01396278  1
  O  O220  1  0.36655595  0.25531827  0.50954427  1
  O  O221  1  0.36888720  0.75708924  0.01160469  1
  O  O222  1  0.36857435  0.75077014  0.51076973  1
  O  O223  1  0.86498100  0.25717890  -0.00717432  1
  O  O224  1  0.87227857  0.25794891  0.50178483  1
  O  O225  1  0.85963339  0.75251220  -0.00480898  1
  O  O226  1  0.86698009  0.76192399  0.49638681  1
  O  O227  1  0.13048029  0.24139473  0.49236247  1
  O  O228  1  0.12316443  0.24040061  1.00199280  1
  O  O229  1  0.12308868  0.74831593  0.48378846  1
  O  O230  1  0.12616083  0.74689320  0.99629334  1
  O  O231  1  0.63263631  0.25282289  0.50397115  1
  O  O232  1  0.63629242  0.25238937  0.99205859  1
  O  O233  1  0.63842114  0.75517547  0.50104399  1
  O  O234  1  0.63669792  0.75628042  0.99117292  1
  O  O235  1  0.49725467  0.23887604  0.12521880  1
  O  O236  1  0.49502540  0.24314278  0.63188888  1
  O  O237  1  0.49143179  0.74534515  0.12807455  1
  O  O238  1  0.49412746  0.74377161  0.63214017  1
  O  O239  1  0.99271082  0.23955471  0.12434269  1
  O  O240  1  0.99769893  0.23748379  0.63698867  1
  O  O241  1  1.00430545  0.74350836  0.13796543  1
  O  O242  1  1.00324239  0.75324925  0.63563012  1
  O  O243  1  0.01135253  0.25037685  0.38112233  1
  O  O244  1  0.00213452  0.25254153  0.86341006  1
  O  O245  1  0.00464368  0.75204373  0.36495244  1
  O  O246  1  0.00844893  0.75661485  0.87511298  1
  O  O247  1  0.51053002  0.22947853  0.38731117  1
  O  O248  1  0.50594830  0.25153288  0.86835784  1
  O  O249  1  0.49761027  0.74978093  0.37430378  1
  O  O250  1  0.50760807  0.75516680  0.87115420  1
  O  O251  1  0.24524512  0.12647332  0.49312059  1
  O  O252  1  0.23933702  0.12751775  0.99731242  1
  O  O253  1  0.25355216  0.62277399  0.48657092  1
  O  O254  1  0.23652622  0.63391113  1.00116749  1
  O  O255  1  0.75037253  0.13333982  0.49170843  1
  O  O256  1  0.74921605  0.13281200  0.99345451  1
  O  O257  1  0.75965670  0.63355571  0.49268339  1
  O  O258  1  0.75165993  0.63701561  1.00032571  1
  O  O259  1  0.26076085  0.37434936  0.01213171  1
  O  O260  1  0.25374118  0.36878803  0.50808869  1
  O  O261  1  0.25377484  0.87140324  0.00465978  1
  O  O262  1  0.23426060  0.86751329  0.52184292  1
  O  O263  1  0.76125112  0.36988134  0.00363972  1
  O  O264  1  0.76113542  0.36570237  0.50393303  1
  O  O265  1  0.75254086  0.86621926  0.01043896  1
  O  O266  1  0.75788718  0.86818902  0.50822302  1
  O  O267  1  0.12413616  0.48478412  0.24365583  1
  O  O268  1  0.11642472  0.48307457  0.72678314  1
  O  O269  1  0.12759885  0.99611773  0.24181077  1
  O  O270  1  0.13391067  0.99090909  0.75712149  1
  O  O271  1  0.63348607  0.49102972  0.24259599  1
  O  O272  1  0.63350255  0.49220908  0.74278435  1
  O  O273  1  0.62838821  0.98975287  0.23967736  1
  O  O274  1  0.61908185  0.98533194  0.74125500  1
  O  O275  1  0.36889720  0.01345780  0.24205486  1
  O  O276  1  0.36722710  -0.00657867  0.75941727  1
  O  O277  1  0.37648607  0.50490286  0.25528909  1
  O  O278  1  0.36613545  0.49066207  0.74296858  1
  O  O279  1  0.87346744  -0.00872733  0.26809574  1
  O  O280  1  0.87928903  0.01149598  0.75863710  1
  O  O281  1  0.86245541  0.50354029  0.25010375  1
  O  O282  1  0.87270860  0.50973308  0.74515283  1
  O  O283  1  0.12929411  0.36876760  0.36139821  1
  O  O284  1  0.11760115  0.37645110  0.86454477  1
  O  O285  1  0.12196835  0.86517446  0.36726695  1
  O  O286  1  0.12312302  0.86982195  0.86640155  1
  O  O287  1  0.63035968  0.37974330  0.35901920  1
  O  O288  1  0.62436551  0.36936515  0.86441564  1
  O  O289  1  0.63267275  0.87734041  0.36152677  1
  O  O290  1  0.62003036  0.87088316  0.86949220  1
  O  O291  1  0.38221990  0.13279337  0.12968737  1
  O  O292  1  0.38944834  0.13503580  0.61878847  1
  O  O293  1  0.37621029  0.63135591  0.12906265  1
  O  O294  1  0.38185894  0.63502355  0.62544256  1
  O  O295  1  0.87307369  0.12195113  0.13878673  1
  O  O296  1  0.88158381  0.12285375  0.63256272  1
  O  O297  1  0.88071190  0.61977474  0.13780781  1
  O  O298  1  0.87264530  0.63077630  0.64514938  1
  O  O299  1  0.26005233  0.25717065  0.12313029  1
  O  O300  1  0.25738244  0.25400018  0.62152724  1
  O  O301  1  0.25459909  0.75535648  0.11997427  1
  O  O302  1  0.25659576  0.75299950  0.62973698  1
  O  O303  1  0.74580176  0.26070974  0.11550332  1
  O  O304  1  0.75357005  0.24812688  0.61351272  1
  O  O305  1  0.74379392  0.75565051  0.11308574  1
  O  O306  1  0.74656545  0.76167400  0.61963162  1
  O  O307  1  0.24188431  0.23994160  0.37881975  1
  O  O308  1  0.24648699  0.24981488  0.87829256  1
  O  O309  1  0.23948378  0.73453509  0.37451904  1
  O  O310  1  0.23440426  0.75156738  0.88082763  1
  O  O311  1  0.75302109  0.24185809  0.38853970  1
  O  O312  1  0.74692018  0.23969721  0.88040977  1
  O  O313  1  0.74550623  0.74196664  0.38526994  1
  O  O314  1  0.74261651  0.75043389  0.88763100  1
  O  O315  1  0.00870883  0.11301142  -0.00529300  1
  O  O316  1  0.00689329  0.11971794  0.50844072  1
  O  O317  1  0.00217068  0.63324572  0.01551076  1
  O  O318  1  -0.00837715  0.61529971  0.49766074  1
  O  O319  1  0.50449060  0.11991512  0.00910639  1
  O  O320  1  0.50996156  0.12171347  0.50639161  1
  O  O321  1  0.49701973  0.62528211  0.01684431  1
  O  O322  1  0.49817817  0.62129602  0.51428706  1
  O  O323  1  0.48898162  0.37494644  0.50411172  1
  O  O324  1  0.48739795  0.37713511  1.00322157  1
  O  O325  1  0.49897112  0.88537768  0.50326027  1
  O  O326  1  0.49556673  0.88156108  0.99593264  1
  O  O327  1  0.98993849  0.37499471  0.50173953  1
  O  O328  1  0.98828068  0.37621125  0.99060395  1
  O  O329  1  0.99533343  0.87750355  0.49790458  1
  O  O330  1  0.99570762  0.88795612  0.99864844  1
  O  O331  1  0.48560055  0.50577555  0.37565616  1
  O  O332  1  0.49755168  0.49787265  0.87679177  1
  O  O333  1  0.50512365  1.00276501  0.39155679  1
  O  O334  1  0.49431147  0.99528691  0.87793829  1
  O  O335  1  0.99822339  0.50225867  0.38849155  1
  O  O336  1  1.01051948  0.49565639  0.86202635  1
  O  O337  1  0.99638961  0.99188449  0.38245476  1
  O  O338  1  0.98981417  0.99823519  0.88253094  1
  O  O339  1  0.00905318  -0.00190487  0.11728973  1
  O  O340  1  -0.00060799  0.01091051  0.62081933  1
  O  O341  1  0.01098735  0.50974542  0.13000609  1
  O  O342  1  0.01233762  0.49704126  0.60967973  1
  O  O343  1  0.50657180  0.01087462  0.12209808  1
  O  O344  1  0.50469484  0.00690158  0.62235917  1
  O  O345  1  0.50992798  0.50722059  0.12479107  1
  O  O346  1  0.51136615  0.50760755  0.62458258  1
  O  O347  1  0.24449303  0.37111565  0.23726768  1
  O  O348  1  0.23919117  0.37347277  0.73620368  1
  O  O349  1  0.24163707  0.87894802  0.24044572  1
  O  O350  1  0.24290715  0.88152750  0.74411817  1
  O  O351  1  0.74652422  0.37963190  0.24315488  1
  O  O352  1  0.74707582  0.37988215  0.74879790  1
  O  O353  1  0.74050241  0.87533056  0.24300695  1
  O  O354  1  0.74288801  0.86907368  0.74350454  1
  O  O355  1  0.25596228  0.12452583  0.25353129  1
  O  O356  1  0.24557471  0.11187192  0.74915326  1
  O  O357  1  0.26146070  0.62644356  0.25502228  1
  O  O358  1  0.20114660  0.60988601  0.76657914  1
  O  O359  1  0.74461060  0.12246525  0.26836599  1
  O  O360  1  0.75839529  0.12781690  0.75915328  1
  O  O361  1  0.75382054  0.61848540  0.25363014  1
  O  O362  1  0.76026995  0.61790302  0.75309714  1
  O  O363  1  0.36201137  0.12684093  0.36369698  1
  O  O364  1  0.37576686  0.11315144  0.88067999  1
  O  O365  1  0.36577114  0.61565387  0.36638776  1
  O  O366  1  0.36887256  0.63456081  0.87255211  1
  O  O367  1  0.86830770  0.11256101  0.38301825  1
  O  O368  1  0.86850684  0.11623190  0.86947964  1
  O  O369  1  0.86392172  0.62064156  0.36231573  1
  O  O370  1  0.87254138  0.63051215  0.85553653  1
  O  O371  1  0.12769975  0.37926728  0.13150087  1
  O  O372  1  0.13280707  0.37225239  0.62602357  1
  O  O373  1  0.12844773  0.88546411  0.12903476  1
  O  O374  1  0.13199192  0.86974429  0.64114521  1
  O  O375  1  0.63499073  0.38141582  0.13286584  1
  O  O376  1  0.63093563  0.38177003  0.63823806  1
  O  O377  1  0.63341636  0.88122908  0.13196589  1
  O  O378  1  0.63203043  0.87993254  0.63482597  1
  O  O379  1  0.12711607  0.26395455  0.25704204  1
  O  O380  1  0.11635512  0.26015974  0.74880316  1
  O  O381  1  0.11618785  0.75305879  0.25711297  1
  O  O382  1  0.11226223  0.75743906  0.75889504  1
  O  O383  1  0.62518275  0.26355039  0.24880615  1
  O  O384  1  0.62065756  0.25604165  0.75484033  1
  O  O385  1  0.62297395  0.76340151  0.25210729  1
  O  O386  1  0.61944985  0.75971115  0.75873772  1
  O  O387  1  0.38106850  0.24245417  0.24195325  1
  O  O388  1  0.38272456  0.25820008  0.73943487  1
  O  O389  1  0.37266334  0.74429457  0.23807859  1
  O  O390  1  0.38573447  0.75744526  0.74323968  1
  O  O391  1  0.87573111  0.25149866  0.24356613  1
  O  O392  1  0.88109753  0.23771119  0.75077212  1
  O  O393  1  0.88167106  0.74191083  0.25544143  1
  O  O394  1  0.89148864  0.74782980  0.75285411  1
  O  O395  1  0.37816511  0.48842496  0.49268719  1
  O  O396  1  0.37795643  0.48788194  1.00767933  1
  O  O397  1  0.39487974  1.00106871  0.50469003  1
  O  O398  1  0.38044797  0.99565244  0.99464165  1
  O  O399  1  0.88800776  0.49129216  0.50243847  1
  O  O400  1  0.87044874  0.49132768  0.99647900  1
  O  O401  1  0.88251558  0.98820426  0.49374515  1
  O  O402  1  0.88152857  1.00081722  0.99330915  1
  O  O403  1  0.11860624  0.00699202  0.00594397  1
  O  O404  1  0.12210357  0.01036952  0.49279037  1
  O  O405  1  0.12550902  0.51017010  0.00798738  1
  O  O406  1  0.11222756  0.49471202  0.50491180  1
  O  O407  1  0.61953245  0.00000973  0.01182813  1
  O  O408  1  0.61338101  -0.00670516  0.51544603  1
  O  O409  1  0.62585166  0.49344423  0.01305436  1
  O  O410  1  0.62729453  0.49008678  0.51463902  1
  O  O411  1  0.36983645  0.36993429  0.12263256  1
  O  O412  1  0.36737806  0.36626622  0.61515213  1
  O  O413  1  0.37048311  0.86881506  0.12154771  1
  O  O414  1  0.36680423  0.86248458  0.62321152  1
  O  O415  1  0.86737408  0.38031359  0.10935867  1
  O  O416  1  0.87555023  0.37092653  0.61286468  1
  O  O417  1  0.86109724  0.87992254  0.12714144  1
  O  O418  1  0.86566218  0.88160885  0.61913344  1
  O  O419  1  0.12791380  0.13386485  0.38087594  1
  O  O420  1  0.12798806  0.12774844  0.88568855  1
  O  O421  1  0.13462420  0.62779385  0.36450022  1
  O  O422  1  0.11354353  0.63625379  0.89317335  1
  O  O423  1  0.63342785  0.11583525  0.37926175  1
  O  O424  1  0.63282027  0.12859106  0.87603470  1
  O  O425  1  0.63660965  0.62468673  0.36772360  1
  O  O426  1  0.62911592  0.63771775  0.87003261  1
