# generated using pymatgen
data_V85Zn86O256
_symmetry_space_group_name_H-M   'P 1'
_cell_length_a   16.90935814
_cell_length_b   16.90676617
_cell_length_c   16.90789378
_cell_angle_alpha   90.02656177
_cell_angle_beta   90.04894674
_cell_angle_gamma   89.98234033
_symmetry_Int_Tables_number   1
_chemical_formula_structural   V85Zn86O256
_chemical_formula_sum   'V85 Zn86 O256'
_cell_volume   4833.66951908
_cell_formula_units_Z   1
loop_
 _symmetry_equiv_pos_site_id
 _symmetry_equiv_pos_as_xyz
  1  'x, y, z'
loop_
 _atom_site_type_symbol
 _atom_site_label
 _atom_site_symmetry_multiplicity
 _atom_site_fract_x
 _atom_site_fract_y
 _atom_site_fract_z
 _atom_site_occupancy
  V  V0  1  0.49968758  0.74308025  0.24212845  1
  V  V1  1  0.63120252  0.12178500  -0.00236597  1
  V  V2  1  0.37736805  0.25161606  0.12022338  1
  V  V3  1  0.50335471  -0.00502445  0.00603216  1
  V  V4  1  0.37493948  0.24866160  0.62694913  1
  V  V5  1  0.12243470  0.12108537  0.50202304  1
  V  V6  1  0.24950614  0.37813183  0.62564770  1
  V  V7  1  0.62492957  0.39028043  0.74800266  1
  V  V8  1  0.50014689  0.37799574  0.88863003  1
  V  V9  1  0.13218059  0.12283065  -0.00767645  1
  V  V10  1  0.49008682  0.87387069  0.37149168  1
  V  V11  1  0.50777694  0.12153879  0.12694549  1
  V  V12  1  0.75334597  0.25277625  0.50154357  1
  V  V13  1  0.25314919  0.24802589  -0.00818633  1
  V  V14  1  0.49193704  0.62339709  0.63011895  1
  V  V15  1  0.74913860  0.37181459  0.12180181  1
  V  V16  1  0.26193986  0.50563834  0.75006960  1
  V  V17  1  0.75256962  0.63249044  0.86993890  1
  V  V18  1  0.36602340  0.00452040  0.87788554  1
  V  V19  1  0.88440979  0.75414379  0.62978229  1
  V  V20  1  0.62183255  -0.00188629  0.62416177  1
  V  V21  1  0.25310521  0.00534435  0.25066538  1
  V  V22  1  0.62257772  0.87210163  0.75029346  1
  V  V23  1  0.87493122  0.13112472  0.75411003  1
  V  V24  1  0.75762743  0.49618779  0.25341885  1
  V  V25  1  0.50744139  0.49945286  0.50514966  1
  V  V26  1  -0.00608839  0.74511693  0.24584780  1
  V  V27  1  0.25063174  0.87788243  0.61961429  1
  V  V28  1  0.74472965  0.87356473  0.11538051  1
  V  V29  1  0.25228540  0.37545034  0.11775294  1
  V  V30  1  -0.01654183  0.37809554  0.37654549  1
  V  V31  1  0.12091461  0.37176277  0.74990353  1
  V  V32  1  0.48655602  -0.00331918  0.49471832  1
  V  V33  1  0.49649097  0.12238966  0.62848225  1
  V  V34  1  0.13117948  -0.00486482  0.12516729  1
  V  V35  1  0.37874474  0.49979560  0.89155391  1
  V  V36  1  0.00038555  0.12362752  0.12501187  1
  V  V37  1  0.15475249  0.85615433  0.23468127  1
  V  V38  1  0.62542757  0.74982215  0.37292812  1
  V  V39  1  0.75456954  0.11673301  0.37816644  1
  V  V40  1  0.36085064  0.86184920  0.01396837  1
  V  V41  1  0.74974427  0.38745802  0.62702696  1
  V  V42  1  0.75058726  0.75145814  0.50047996  1
  V  V43  1  0.88010683  0.62609969  0.74901878  1
  V  V44  1  0.62427309  0.37382739  0.25227509  1
  V  V45  1  0.48785181  0.74810797  0.75023247  1
  V  V46  1  0.12186083  0.63324911  0.00424082  1
  V  V47  1  0.74486743  -0.00409040  0.24870619  1
  V  V48  1  0.24830814  0.25182125  0.50049337  1
  V  V49  1  0.74937092  0.87570109  0.62413709  1
  V  V50  1  0.12301610  0.37400218  0.24941483  1
  V  V51  1  0.74668171  0.00661890  0.75368374  1
  V  V52  1  -0.01029148  0.49886689  0.49729363  1
  V  V53  1  0.12769473  0.62582416  0.50148236  1
  V  V54  1  0.00156123  0.12571757  0.62955503  1
  V  V55  1  0.63777044  0.62346712  0.00258238  1
  V  V56  1  0.12330402  0.25193411  0.37439714  1
  V  V57  1  0.62642997  0.62384732  0.50878642  1
  V  V58  1  0.63043278  0.24621348  0.87149478  1
  V  V59  1  0.37650484  0.37682151  0.50112965  1
  V  V60  1  0.49081818  0.61855139  0.11184500  1
  V  V61  1  0.12430730  0.50179572  0.62642879  1
  V  V62  1  0.25204953  0.63154030  0.37682627  1
  V  V63  1  0.25519717  0.63355817  0.87536828  1
  V  V64  1  0.37840753  0.50015449  0.37506014  1
  V  V65  1  0.49558493  0.87298763  0.87808070  1
  V  V66  1  0.11847924  0.88242015  0.74253565  1
  V  V67  1  0.37996857  0.12307460  0.25348610  1
  V  V68  1  0.87194263  0.74190028  0.11654155  1
  V  V69  1  0.00022779  0.36818539  0.87239122  1
  V  V70  1  0.62479842  0.12274153  0.50067321  1
  V  V71  1  -0.00280767  0.88093116  0.36683102  1
  V  V72  1  0.87723436  0.11677193  0.25418124  1
  V  V73  1  0.87657260  0.25483221  0.62664556  1
  V  V74  1  0.87474049  0.87872695  0.49431984  1
  V  V75  1  0.25427656  0.12453830  0.37807669  1
  V  V76  1  0.87685036  0.37318638  0.00035337  1
  V  V77  1  0.11812389  0.74893088  0.86508500  1
  V  V78  1  -0.00540939  0.00193433  0.49988930  1
  V  V79  1  -0.00021200  -0.00499275  -0.00180151  1
  V  V80  1  0.87031138  0.00308248  0.87643211  1
  V  V81  1  0.75940855  0.62059955  0.37518395  1
  V  V82  1  0.87086445  0.49798135  0.86861037  1
  V  V83  1  0.25008192  0.49912119  0.24945665  1
  V  V84  1  0.12433046  0.75231822  0.37955577  1
  Zn  Zn85  1  0.62851945  0.75082062  0.87810188  1
  Zn  Zn86  1  0.36586577  0.13068271  0.76090608  1
  Zn  Zn87  1  0.87171195  0.86970359  -0.00477875  1
  Zn  Zn88  1  0.00453997  0.62958714  0.63011618  1
  Zn  Zn89  1  0.12747737  0.24564397  0.86861869  1
  Zn  Zn90  1  0.24271800  0.00768087  0.74903916  1
  Zn  Zn91  1  -0.00271643  0.24876332  0.25028964  1
  Zn  Zn92  1  0.37668375  0.62305924  0.24296756  1
  Zn  Zn93  1  0.36627695  0.74735645  0.61793681  1
  Zn  Zn94  1  0.62311821  0.87631354  0.24427711  1
  Zn  Zn95  1  0.50079962  0.25202677  0.75138898  1
  Zn  Zn96  1  0.00079663  0.50298745  0.00609284  1
  Zn  Zn97  1  0.75278925  0.24361987  -0.00447651  1
  Zn  Zn98  1  0.62396969  0.24920523  0.37647153  1
  Zn  Zn99  1  -0.00515038  0.87148492  0.86659427  1
  Zn  Zn100  1  0.87479215  0.24574627  0.12372263  1
  Zn  Zn101  1  0.62132568  0.49565268  0.11849738  1
  Zn  Zn102  1  0.88032124  0.61732119  0.24714031  1
  Zn  Zn103  1  0.50113305  0.25185721  0.25306073  1
  Zn  Zn104  1  0.50330703  0.37374488  0.37578544  1
  Zn  Zn105  1  0.36133483  0.86661957  0.48910324  1
  Zn  Zn106  1  0.12032470  0.50801329  0.12490399  1
  Zn  Zn107  1  0.18724506  0.18807533  0.18317145  1
  Zn  Zn108  1  0.18852520  0.18573847  0.68878110  1
  Zn  Zn109  1  0.19060398  0.68889355  0.18970623  1
  Zn  Zn110  1  0.19031097  0.69131117  0.69072440  1
  Zn  Zn111  1  0.68924096  0.18772642  0.18783928  1
  Zn  Zn112  1  0.68684653  0.19025908  0.68821448  1
  Zn  Zn113  1  0.68940927  0.68600384  0.18605690  1
  Zn  Zn114  1  0.68933695  0.68762335  0.69098650  1
  Zn  Zn115  1  0.31410197  0.31173947  0.30981129  1
  Zn  Zn116  1  0.31495499  0.31946431  0.81156961  1
  Zn  Zn117  1  0.31236497  0.80584444  0.29343737  1
  Zn  Zn118  1  0.30717449  0.81893258  0.81281173  1
  Zn  Zn119  1  0.81030290  0.30314473  0.30919942  1
  Zn  Zn120  1  0.80811349  0.31425349  0.81040105  1
  Zn  Zn121  1  0.81337278  0.81151467  0.30971532  1
  Zn  Zn122  1  0.81264822  0.81445613  0.81015109  1
  Zn  Zn123  1  0.18482840  0.44100756  0.43651271  1
  Zn  Zn124  1  0.18684812  0.44262891  0.93658574  1
  Zn  Zn125  1  0.18301006  0.93916993  0.43424515  1
  Zn  Zn126  1  0.18715695  0.92864723  0.93762865  1
  Zn  Zn127  1  0.69115430  0.43701215  0.43880558  1
  Zn  Zn128  1  0.68822668  0.44126528  0.93520974  1
  Zn  Zn129  1  0.68249207  0.93746103  0.43506560  1
  Zn  Zn130  1  0.68487865  0.93809161  0.93575224  1
  Zn  Zn131  1  0.31672808  0.06055658  0.06288343  1
  Zn  Zn132  1  0.30888219  0.05841567  0.56704086  1
  Zn  Zn133  1  0.30449906  0.56631365  0.05879431  1
  Zn  Zn134  1  0.31346660  0.56498472  0.56043921  1
  Zn  Zn135  1  0.81224510  0.05658684  0.06626675  1
  Zn  Zn136  1  0.81456189  0.06299700  0.56541172  1
  Zn  Zn137  1  0.81199990  0.55633394  0.06128405  1
  Zn  Zn138  1  0.81389408  0.56648686  0.56515275  1
  Zn  Zn139  1  0.43822994  0.43783258  0.18392675  1
  Zn  Zn140  1  0.44206804  0.43777701  0.68935231  1
  Zn  Zn141  1  0.43852628  0.93745859  0.18810253  1
  Zn  Zn142  1  0.43097758  0.93665174  0.68973490  1
  Zn  Zn143  1  0.94005180  0.43788163  0.18351613  1
  Zn  Zn144  1  0.93743266  0.44073986  0.68703878  1
  Zn  Zn145  1  0.93354269  0.93361385  0.18430735  1
  Zn  Zn146  1  0.93807581  0.94253826  0.68559972  1
  Zn  Zn147  1  0.06676773  0.05896735  0.31170779  1
  Zn  Zn148  1  0.05767723  0.06259048  0.81335845  1
  Zn  Zn149  1  0.06154739  0.56118753  0.31359147  1
  Zn  Zn150  1  0.06036215  0.55786565  0.81524604  1
  Zn  Zn151  1  0.56504983  0.06073240  0.31505353  1
  Zn  Zn152  1  0.55656561  0.06132143  0.81485043  1
  Zn  Zn153  1  0.56828993  0.56153094  0.31145153  1
  Zn  Zn154  1  0.56023888  0.56532281  0.81724324  1
  Zn  Zn155  1  0.43952821  0.18881476  0.43890220  1
  Zn  Zn156  1  0.44447554  0.18861821  0.94042709  1
  Zn  Zn157  1  0.43798538  0.68881145  0.43835584  1
  Zn  Zn158  1  0.43604634  0.68761685  0.93903778  1
  Zn  Zn159  1  0.93479273  0.19174416  0.43692598  1
  Zn  Zn160  1  0.94061241  0.18680136  0.93732471  1
  Zn  Zn161  1  0.94035771  0.69047087  0.44013055  1
  Zn  Zn162  1  0.94031811  0.68632796  0.93575452  1
  Zn  Zn163  1  0.06425783  0.31146301  0.06131840  1
  Zn  Zn164  1  0.05919546  0.31404859  0.56160896  1
  Zn  Zn165  1  0.06048681  0.80730664  0.06012318  1
  Zn  Zn166  1  0.06498976  0.81617483  0.56106216  1
  Zn  Zn167  1  0.56559881  0.30754152  0.06322251  1
  Zn  Zn168  1  0.56600996  0.31223151  0.56473436  1
  Zn  Zn169  1  0.56291255  0.80447438  0.06007188  1
  Zn  Zn170  1  0.55557855  0.81026288  0.56107469  1
  O  O171  1  0.11929873  0.11428851  0.11810736  1
  O  O172  1  0.11035381  0.13744758  0.61570728  1
  O  O173  1  0.13741741  0.63160548  0.10844656  1
  O  O174  1  0.12578132  0.62333722  0.61793616  1
  O  O175  1  0.61369047  0.13093280  0.11925369  1
  O  O176  1  0.61598665  0.11906358  0.62137449  1
  O  O177  1  0.62441535  0.62068718  0.11336299  1
  O  O178  1  0.62053456  0.63097799  0.61308106  1
  O  O179  1  0.37409004  0.38604956  0.38059172  1
  O  O180  1  0.38552903  0.38884137  0.87165390  1
  O  O181  1  0.38736183  0.86840920  0.36961229  1
  O  O182  1  0.37984184  0.88261381  0.88524126  1
  O  O183  1  0.88457957  0.36798813  0.37049129  1
  O  O184  1  0.87891265  0.37907861  0.87767928  1
  O  O185  1  0.88458456  0.86965060  0.38245503  1
  O  O186  1  0.87577590  0.88652867  0.87537858  1
  O  O187  1  0.24137320  0.02054088  0.37359739  1
  O  O188  1  0.26394834  -0.00285783  0.88076831  1
  O  O189  1  0.25615334  0.50821192  0.36913349  1
  O  O190  1  0.26176622  0.50443917  0.86842709  1
  O  O191  1  0.74827225  0.00968401  0.36985773  1
  O  O192  1  0.75633593  -0.00186379  0.86551682  1
  O  O193  1  0.74749867  0.50868007  0.36864272  1
  O  O194  1  0.76462034  0.50964184  0.87866845  1
  O  O195  1  0.24680857  0.49322910  0.13234221  1
  O  O196  1  0.24540363  0.49838859  0.63088757  1
  O  O197  1  0.24144943  1.00593694  0.13533804  1
  O  O198  1  0.24862198  0.98601747  0.63018832  1
  O  O199  1  0.74818469  0.48636034  0.13153117  1
  O  O200  1  0.75171739  0.48612686  0.61914274  1
  O  O201  1  0.75281313  0.98282404  0.13270207  1
  O  O202  1  0.74354907  0.99464025  0.63093038  1
  O  O203  1  0.00769291  0.37264171  0.25751997  1
  O  O204  1  0.00911181  0.38128281  0.75750944  1
  O  O205  1  -0.00091808  0.86563217  0.25516144  1
  O  O206  1  0.01226360  0.87864299  0.74690071  1
  O  O207  1  0.51026919  0.37559827  0.25107123  1
  O  O208  1  0.51345899  0.37434216  0.75465197  1
  O  O209  1  0.50434894  0.86661017  0.25365026  1
  O  O210  1  0.50343572  0.87008656  0.75713733  1
  O  O211  1  0.49575199  0.12493164  0.24555746  1
  O  O212  1  0.49384368  0.12479867  0.73747258  1
  O  O213  1  0.50303841  0.62714414  0.23914187  1
  O  O214  1  0.50796900  0.63503003  0.74128620  1
  O  O215  1  0.99489495  0.12088840  0.24364853  1
  O  O216  1  0.98990150  0.12195841  0.74064186  1
  O  O217  1  0.99710541  0.63913354  0.25936561  1
  O  O218  1  0.98716021  0.62119713  0.74918743  1
  O  O219  1  0.36925658  0.24324301  0.01180886  1
  O  O220  1  0.36980085  0.25587796  0.50937164  1
  O  O221  1  0.37547659  0.76265986  -0.00069430  1
  O  O222  1  0.37960699  0.75503763  0.50398574  1
  O  O223  1  0.87262746  0.25887959  -0.00118524  1
  O  O224  1  0.86149009  0.24593906  0.50981674  1
  O  O225  1  0.88060645  0.75051043  0.01213431  1
  O  O226  1  0.86876699  0.75725081  0.50678117  1
  O  O227  1  0.12932624  0.24286436  0.49502464  1
  O  O228  1  0.13510462  0.23954018  1.00006795  1
  O  O229  1  0.12020536  0.74424097  0.48704412  1
  O  O230  1  0.12432472  0.74228485  0.98693267  1
  O  O231  1  0.63650411  0.24069698  0.50382073  1
  O  O232  1  0.62660522  0.23930104  0.99149712  1
  O  O233  1  0.62982567  0.74378349  0.49395070  1
  O  O234  1  0.62113197  0.72992571  0.99411906  1
  O  O235  1  0.49267902  0.24268848  0.12779364  1
  O  O236  1  0.49193413  0.24100470  0.62362898  1
  O  O237  1  0.50773236  0.73134647  0.13097398  1
  O  O238  1  0.49868511  0.74211440  0.63433342  1
  O  O239  1  1.00202860  0.23398700  0.12530976  1
  O  O240  1  0.98372509  0.24589190  0.61802491  1
  O  O241  1  0.98519001  0.75420647  0.13339576  1
  O  O242  1  0.98806699  0.74985943  0.61633421  1
  O  O243  1  0.00721472  0.25926281  0.37525472  1
  O  O244  1  0.00388027  0.26326756  0.87710990  1
  O  O245  1  0.00542838  0.76123184  0.37101256  1
  O  O246  1  0.01295064  0.75299784  0.87451771  1
  O  O247  1  0.50406020  0.25421006  0.37306003  1
  O  O248  1  0.50755121  0.26023018  0.87359269  1
  O  O249  1  0.50946735  0.75322808  0.36783317  1
  O  O250  1  0.49948132  0.75915835  0.86889368  1
  O  O251  1  0.24229418  0.12954177  0.49698238  1
  O  O252  1  0.24283508  0.13322229  1.00679557  1
  O  O253  1  0.23785970  0.61994504  0.49088816  1
  O  O254  1  0.23930043  0.62493209  0.98380003  1
  O  O255  1  0.74697446  0.12771816  0.49521163  1
  O  O256  1  0.73528525  0.12067117  1.00796835  1
  O  O257  1  0.74398782  0.62951583  0.49519467  1
  O  O258  1  0.74359046  0.62322094  0.99283259  1
  O  O259  1  0.24135420  0.36866710  0.01277909  1
  O  O260  1  0.25465941  0.37299388  0.50574758  1
  O  O261  1  0.26104786  0.87556573  0.00517110  1
  O  O262  1  0.24381714  0.88190350  0.51225940  1
  O  O263  1  0.75651831  0.37366330  0.00594031  1
  O  O264  1  0.74219596  0.36577283  0.51551978  1
  O  O265  1  0.75064177  0.87875434  0.01126112  1
  O  O266  1  0.75471602  0.87287412  0.50322102  1
  O  O267  1  0.13598380  0.49368642  0.25087548  1
  O  O268  1  0.13266404  0.49284381  0.74462654  1
  O  O269  1  0.13395436  0.99257674  0.24068042  1
  O  O270  1  0.12392987  0.98561156  0.75902551  1
  O  O271  1  0.63666513  0.48822042  0.24831911  1
  O  O272  1  0.62401862  0.48877502  0.75408191  1
  O  O273  1  0.63966321  0.99833373  0.25223115  1
  O  O274  1  0.62905796  0.99493977  0.74610853  1
  O  O275  1  0.36985596  0.01491324  0.24551512  1
  O  O276  1  0.37507822  -0.00125761  0.76950355  1
  O  O277  1  0.36585461  0.49919806  0.25722250  1
  O  O278  1  0.36421818  0.49756149  0.75150516  1
  O  O279  1  0.86485493  0.00921328  0.24552003  1
  O  O280  1  0.86674381  0.00852985  0.75529291  1
  O  O281  1  0.86260758  0.49875267  0.24713635  1
  O  O282  1  0.87589569  0.50869289  0.75775990  1
  O  O283  1  0.12545215  0.37006440  0.36357863  1
  O  O284  1  0.11747811  0.37701989  0.86764015  1
  O  O285  1  0.12145762  0.86657184  0.36212445  1
  O  O286  1  0.12307784  0.86419543  0.86576322  1
  O  O287  1  0.62650436  0.37229957  0.36683125  1
  O  O288  1  0.62138255  0.37147583  0.86467160  1
  O  O289  1  0.61940073  0.86101515  0.37293849  1
  O  O290  1  0.61517653  0.87320286  0.86872048  1
  O  O291  1  0.38624916  0.13058434  0.13171303  1
  O  O292  1  0.38061348  0.13328931  0.62253446  1
  O  O293  1  0.38609916  0.62099195  0.12127222  1
  O  O294  1  0.38739987  0.62639991  0.62359298  1
  O  O295  1  0.88426408  0.12279749  0.13009645  1
  O  O296  1  0.88186871  0.13269278  0.63256998  1
  O  O297  1  0.86537692  0.63761787  0.12630816  1
  O  O298  1  0.87643561  0.63596492  0.63223121  1
  O  O299  1  0.25719201  0.25586812  0.11757885  1
  O  O300  1  0.25705550  0.25685788  0.61852454  1
  O  O301  1  0.23508682  0.79221066  0.19542468  1
  O  O302  1  0.24938953  0.76921203  0.63235310  1
  O  O303  1  0.75198581  0.26025644  0.12135690  1
  O  O304  1  0.75851855  0.25432425  0.62009115  1
  O  O305  1  0.76191249  0.76051366  0.13012003  1
  O  O306  1  0.75708814  0.75746810  0.61908039  1
  O  O307  1  0.24505697  0.24382159  0.38046797  1
  O  O308  1  0.25193741  0.25905802  0.88872096  1
  O  O309  1  0.24259677  0.73751236  0.36673018  1
  O  O310  1  0.23838964  0.74232681  0.86698209  1
  O  O311  1  0.74907898  0.23822013  0.38509733  1
  O  O312  1  0.73551493  0.25256183  0.87644312  1
  O  O313  1  0.74331065  0.74479731  0.37995978  1
  O  O314  1  0.75186745  0.73797267  0.87253085  1
  O  O315  1  0.00669319  0.11394731  0.00674238  1
  O  O316  1  0.00344828  0.12114062  0.50351193  1
  O  O317  1  0.01752160  0.62452584  -0.00528855  1
  O  O318  1  0.01291758  0.61843079  0.49838704  1
  O  O319  1  0.50776566  0.11609173  0.00911872  1
  O  O320  1  0.50246363  0.11639373  0.50868419  1
  O  O321  1  0.50719053  0.62465297  0.00933050  1
  O  O322  1  0.50814398  0.61851398  0.50734821  1
  O  O323  1  0.49691089  0.38337816  0.50141331  1
  O  O324  1  0.50961409  0.37547760  0.98812443  1
  O  O325  1  0.50024031  0.88243681  0.48962377  1
  O  O326  1  0.49860841  0.87888566  0.99439914  1
  O  O327  1  1.00529282  0.38592642  0.48888270  1
  O  O328  1  0.99324128  0.37425141  0.99326734  1
  O  O329  1  0.99767142  0.88511872  0.49291217  1
  O  O330  1  0.99869370  0.88689881  0.99942594  1
  O  O331  1  0.49292932  0.50034510  0.38239853  1
  O  O332  1  0.48559801  0.49657247  0.87249604  1
  O  O333  1  0.50584116  0.98784213  0.38275511  1
  O  O334  1  0.49271566  0.98755031  0.88208186  1
  O  O335  1  1.00465432  0.48980292  0.38346877  1
  O  O336  1  0.98866976  0.48942999  0.88032603  1
  O  O337  1  1.00540838  0.98768376  0.37938016  1
  O  O338  1  0.99075663  0.99677661  0.88282476  1
  O  O339  1  0.00688457  0.00624970  0.11994783  1
  O  O340  1  -0.00333634  0.01380396  0.61425585  1
  O  O341  1  0.00725898  0.49928793  0.12121156  1
  O  O342  1  0.00852821  0.50230764  0.61662227  1
  O  O343  1  0.49919583  0.00783785  0.11792278  1
  O  O344  1  0.50034905  0.00452925  0.61893846  1
  O  O345  1  0.50354321  0.51425023  0.12772556  1
  O  O346  1  0.49855968  0.50832656  0.61641266  1
  O  O347  1  0.24428189  0.38037687  0.24324397  1
  O  O348  1  0.24448021  0.38500957  0.74323509  1
  O  O349  1  0.25119353  0.90394999  0.28056426  1
  O  O350  1  0.23705358  0.88236472  0.74379369  1
  O  O351  1  0.74622101  0.37728167  0.24382982  1
  O  O352  1  0.73740711  0.37343957  0.73910725  1
  O  O353  1  0.74873592  0.88117516  0.24325912  1
  O  O354  1  0.74305045  0.88549579  0.74416727  1
  O  O355  1  0.25534275  0.12190060  0.25709614  1
  O  O356  1  0.25342032  0.12070735  0.74859291  1
  O  O357  1  0.25321923  0.61496313  0.25644505  1
  O  O358  1  0.24421542  0.61636086  0.76188259  1
  O  O359  1  0.75593235  0.11786682  0.25639542  1
  O  O360  1  0.75653371  0.11310564  0.74266353  1
  O  O361  1  0.74915528  0.61445786  0.25874063  1
  O  O362  1  0.76236185  0.62611274  0.75702847  1
  O  O363  1  0.36649446  0.13209700  0.36710971  1
  O  O364  1  0.38538001  0.10881935  0.87898663  1
  O  O365  1  0.36865449  0.61376409  0.37532844  1
  O  O366  1  0.36836135  0.61366126  0.87923267  1
  O  O367  1  0.86778910  0.12627761  0.36750740  1
  O  O368  1  0.88021385  0.11554855  0.86693491  1
  O  O369  1  0.86184896  0.63296444  0.37483151  1
  O  O370  1  0.87180101  0.61948626  0.86957374  1
  O  O371  1  0.13242674  0.37188437  0.13753891  1
  O  O372  1  0.12947038  0.38081673  0.62989947  1
  O  O373  1  0.11746059  0.88308373  0.13250750  1
  O  O374  1  0.13024273  0.87306911  0.63633375  1
  O  O375  1  0.63219330  0.37534903  0.13065346  1
  O  O376  1  0.63408845  0.37194820  0.63847137  1
  O  O377  1  0.64025083  0.86415615  0.12537950  1
  O  O378  1  0.62709102  0.87962487  0.62988997  1
  O  O379  1  0.12352513  0.25609987  0.25520829  1
  O  O380  1  0.13173524  0.26691123  0.75043346  1
  O  O381  1  0.11124617  0.75047346  0.26073710  1
  O  O382  1  0.12289732  0.76005943  0.75920861  1
  O  O383  1  0.62674235  0.26212454  0.25148825  1
  O  O384  1  0.62145276  0.25471147  0.75704564  1
  O  O385  1  0.61820469  0.74738970  0.25755886  1
  O  O386  1  0.61827777  0.75950321  0.75240003  1
  O  O387  1  0.37456478  0.23904139  0.23984333  1
  O  O388  1  0.37760210  0.25182978  0.73863074  1
  O  O389  1  0.39487435  0.73963735  0.25333573  1
  O  O390  1  0.38557870  0.75671900  0.74881948  1
  O  O391  1  0.87728469  0.23277628  0.24516734  1
  O  O392  1  0.86719750  0.23793342  0.74455774  1
  O  O393  1  0.87925395  0.74585817  0.23989939  1
  O  O394  1  0.87272524  0.74530467  0.73923893  1
  O  O395  1  0.38422876  0.49668329  0.49383124  1
  O  O396  1  0.36948593  0.49693666  0.98985951  1
  O  O397  1  0.38398540  0.99544409  0.49957377  1
  O  O398  1  0.38517013  0.99347416  0.99382390  1
  O  O399  1  0.89037646  0.50739907  0.50354492  1
  O  O400  1  0.87659417  0.48676642  0.99341495  1
  O  O401  1  0.88615985  0.99645658  0.50106745  1
  O  O402  1  0.88197887  1.00023873  0.99193065  1
  O  O403  1  0.12110755  0.00284460  0.00534110  1
  O  O404  1  0.11340972  0.01456549  0.49492669  1
  O  O405  1  0.12597722  0.51746567  -0.00111023  1
  O  O406  1  0.12065230  0.50824524  0.50704292  1
  O  O407  1  0.61132288  0.00563742  -0.00617041  1
  O  O408  1  0.61641428  0.00457787  0.50675387  1
  O  O409  1  0.62611155  0.51614164  -0.00176898  1
  O  O410  1  0.61513380  0.50831484  0.49474582  1
  O  O411  1  0.36540967  0.36472523  0.13078289  1
  O  O412  1  0.37160758  0.36907696  0.62026168  1
  O  O413  1  0.37966186  0.87664215  0.11246747  1
  O  O414  1  0.36073719  0.87481888  0.62305783  1
  O  O415  1  0.86918914  0.36967477  0.11638598  1
  O  O416  1  0.86055694  0.36808327  0.63537998  1
  O  O417  1  0.86403731  0.86479431  0.12077688  1
  O  O418  1  0.87027658  0.87173855  0.61821809  1
  O  O419  1  0.12864588  0.13405823  0.38164626  1
  O  O420  1  0.11874052  0.12658983  0.88818133  1
  O  O421  1  0.13213828  0.63087155  0.38078861  1
  O  O422  1  0.12915854  0.63506208  0.87663126  1
  O  O423  1  0.63383283  0.12600951  0.38392114  1
  O  O424  1  0.61546069  0.13341261  0.88387621  1
  O  O425  1  0.63140241  0.63414957  0.38463078  1
  O  O426  1  0.63578476  0.62466938  0.88165128  1
