# generated using pymatgen
data_V85Zn86O256
_symmetry_space_group_name_H-M   'P 1'
_cell_length_a   16.93201239
_cell_length_b   16.93257652
_cell_length_c   16.91853305
_cell_angle_alpha   89.96870042
_cell_angle_beta   89.92015845
_cell_angle_gamma   89.99071867
_symmetry_Int_Tables_number   1
_chemical_formula_structural   V85Zn86O256
_chemical_formula_sum   'V85 Zn86 O256'
_cell_volume   4850.58184095
_cell_formula_units_Z   1
loop_
 _symmetry_equiv_pos_site_id
 _symmetry_equiv_pos_as_xyz
  1  'x, y, z'
loop_
 _atom_site_type_symbol
 _atom_site_label
 _atom_site_symmetry_multiplicity
 _atom_site_fract_x
 _atom_site_fract_y
 _atom_site_fract_z
 _atom_site_occupancy
  V  V0  1  0.12392402  0.86781767  0.75515799  1
  V  V1  1  0.37853323  0.62985064  0.74296151  1
  V  V2  1  0.37297917  0.37737267  0.00045697  1
  V  V3  1  0.63287035  0.87493904  0.24938895  1
  V  V4  1  -0.00064752  0.00672568  0.00151484  1
  V  V5  1  0.00274099  0.74945496  0.24669739  1
  V  V6  1  0.88121304  0.37324249  0.50222477  1
  V  V7  1  0.62657399  0.50862932  0.62176622  1
  V  V8  1  0.74795989  0.24364904  -0.00086334  1
  V  V9  1  0.64736812  0.34296355  0.26755308  1
  V  V10  1  0.74469547  0.37162386  0.61662259  1
  V  V11  1  0.49911806  0.37054089  0.37778672  1
  V  V12  1  0.50762326  0.62749083  0.12263357  1
  V  V13  1  0.87037610  0.62372740  0.75216941  1
  V  V14  1  0.42855446  0.82788042  -0.05376714  1
  V  V15  1  0.00197662  0.37795694  0.86915027  1
  V  V16  1  0.61153657  0.12369038  0.00570984  1
  V  V17  1  0.75579516  -0.00400640  0.74338225  1
  V  V18  1  0.49321342  0.87459859  0.37968484  1
  V  V19  1  0.12137303  0.50923005  0.12514451  1
  V  V20  1  0.11968088  0.61151602  0.50722430  1
  V  V21  1  0.87450522  0.87476527  0.50070151  1
  V  V22  1  0.25026208  0.62615208  0.87450750  1
  V  V23  1  -0.00140108  0.86371872  0.87859717  1
  V  V24  1  0.74894054  0.75398534  0.50806100  1
  V  V25  1  0.24968073  0.62512361  0.37649233  1
  V  V26  1  0.62838674  -0.00793429  0.62148461  1
  V  V27  1  0.38189794  0.25755798  0.62546731  1
  V  V28  1  0.87462270  0.00608873  0.87138892  1
  V  V29  1  0.00175359  -0.00358279  0.49577323  1
  V  V30  1  0.24480045  0.37438184  0.62685574  1
  V  V31  1  0.74859344  0.62484429  0.38308562  1
  V  V32  1  0.24783228  0.12398732  0.87656046  1
  V  V33  1  0.37457236  0.24672649  0.12390573  1
  V  V34  1  0.50638827  0.12950702  0.62696550  1
  V  V35  1  0.37493277  0.49648885  0.38096814  1
  V  V36  1  0.11712426  0.63454954  -0.00283874  1
  V  V37  1  0.25611539  0.75368284  0.50074558  1
  V  V38  1  0.61325447  0.87260203  0.75824167  1
  V  V39  1  0.25705524  0.87900426  0.62231853  1
  V  V40  1  0.49455914  0.00001492  0.50072385  1
  V  V41  1  0.25143146  -0.00024023  0.25142077  1
  V  V42  1  0.12355146  0.00109651  0.62831205  1
  V  V43  1  0.25037931  0.87511262  0.12166689  1
  V  V44  1  0.37954005  0.12053679  0.24964247  1
  V  V45  1  0.88030420  0.24105734  0.12397818  1
  V  V46  1  0.87240062  -0.00261223  0.37656887  1
  V  V47  1  0.88317419  0.75039501  0.62497383  1
  V  V48  1  -0.00492378  0.24343066  0.74761098  1
  V  V49  1  0.75074163  0.50636377  0.25056885  1
  V  V50  1  0.11933755  0.75335375  0.38037953  1
  V  V51  1  -0.00227143  0.50417043  0.00207717  1
  V  V52  1  0.62545417  0.74789037  0.38255599  1
  V  V53  1  0.25153339  0.50162229  0.25021971  1
  V  V54  1  0.86466111  0.88021260  0.00528192  1
  V  V55  1  0.87655676  0.37242737  -0.00085117  1
  V  V56  1  0.50343795  0.50462867  0.49933746  1
  V  V57  1  0.24947958  0.37931480  0.12403405  1
  V  V58  1  0.86783925  0.76012387  0.13043185  1
  V  V59  1  0.87600108  0.12515235  0.25866666  1
  V  V60  1  0.12090874  0.00906175  0.12575566  1
  V  V61  1  0.38700617  0.00407378  0.88801953  1
  V  V62  1  0.37659977  0.75402705  0.12433001  1
  V  V63  1  0.61326581  0.00277638  0.12292809  1
  V  V64  1  0.11995990  0.87728287  0.25402512  1
  V  V65  1  0.25724856  0.25152822  0.50114793  1
  V  V66  1  0.50108208  0.74999932  0.25166147  1
  V  V67  1  0.24444692  0.49685221  0.74778145  1
  V  V68  1  0.12507135  0.25345947  0.86824876  1
  V  V69  1  0.62143360  0.36363891  0.74566861  1
  V  V70  1  0.86557945  0.23918955  0.62343876  1
  V  V71  1  0.24592220  0.75579137  -0.00626892  1
  V  V72  1  0.63627065  0.13559725  0.48528108  1
  V  V73  1  0.88146381  0.62554948  0.24590081  1
  V  V74  1  0.50611130  0.49531302  0.00131816  1
  V  V75  1  0.49605850  0.24822288  0.25090661  1
  V  V76  1  0.62617908  0.49881589  0.12957738  1
  V  V77  1  0.12557031  0.24757044  0.37736453  1
  V  V78  1  0.49945210  0.36698422  0.86957290  1
  V  V79  1  0.00440825  0.24385492  0.24617057  1
  V  V80  1  0.75200722  0.37524254  0.12410952  1
  V  V81  1  0.88235928  0.50053467  0.38114210  1
  V  V82  1  0.12373067  0.37554810  0.24887390  1
  V  V83  1  0.75308826  -0.00098055  0.24293642  1
  V  V84  1  0.38085604  0.12945826  0.75097883  1
  Zn  Zn85  1  0.25131084  -0.00062618  0.75279217  1
  Zn  Zn86  1  0.37210309  -0.00344581  0.38078225  1
  Zn  Zn87  1  0.24468847  0.25337553  -0.00159660  1
  Zn  Zn88  1  0.37504180  0.49870640  0.87179651  1
  Zn  Zn89  1  0.00086370  0.60078314  0.62475921  1
  Zn  Zn90  1  0.62267133  0.24391963  0.87124460  1
  Zn  Zn91  1  0.74175000  0.74772772  0.00169711  1
  Zn  Zn92  1  0.74868076  0.12492455  0.86982278  1
  Zn  Zn93  1  0.12080656  0.13069865  0.00297258  1
  Zn  Zn94  1  0.12508483  0.12506331  0.50382015  1
  Zn  Zn95  1  0.38290260  0.76113735  0.62640082  1
  Zn  Zn96  1  0.08053098  0.43630767  0.68869432  1
  Zn  Zn97  1  0.74515356  0.49885375  0.75462529  1
  Zn  Zn98  1  0.25302880  0.12414238  0.37868181  1
  Zn  Zn99  1  0.50676975  0.63241979  0.62309082  1
  Zn  Zn100  1  0.86459451  0.50135215  0.87795458  1
  Zn  Zn101  1  0.00225834  0.74447425  0.75359557  1
  Zn  Zn102  1  0.00201368  0.37599527  0.37729301  1
  Zn  Zn103  1  0.37629541  0.62372265  0.24950205  1
  Zn  Zn104  1  -0.00500810  0.11981181  0.62921440  1
  Zn  Zn105  1  0.72287366  0.62482474  0.88845677  1
  Zn  Zn106  1  0.62147306  0.75610281  0.88129809  1
  Zn  Zn107  1  0.19355695  0.18712592  0.18884295  1
  Zn  Zn108  1  0.18878184  0.18797947  0.69084525  1
  Zn  Zn109  1  0.18818908  0.68767436  0.18605795  1
  Zn  Zn110  1  0.18953929  0.68876137  0.68458772  1
  Zn  Zn111  1  0.69453543  0.18534086  0.19837770  1
  Zn  Zn112  1  0.68840019  0.18028701  0.68591636  1
  Zn  Zn113  1  0.68813487  0.68733693  0.18923662  1
  Zn  Zn114  1  0.68973133  0.69336868  0.69228086  1
  Zn  Zn115  1  0.31272078  0.31392442  0.31399780  1
  Zn  Zn116  1  0.31317052  0.31220097  0.80987707  1
  Zn  Zn117  1  0.31021935  0.81128585  0.31106766  1
  Zn  Zn118  1  0.30933643  0.81243168  0.80835240  1
  Zn  Zn119  1  0.81590613  0.31295776  0.31263155  1
  Zn  Zn120  1  0.81038946  0.31233172  0.80938362  1
  Zn  Zn121  1  0.81443962  0.81473328  0.31991470  1
  Zn  Zn122  1  0.80560480  0.81306907  0.81448793  1
  Zn  Zn123  1  0.19121525  0.43114498  0.43924975  1
  Zn  Zn124  1  0.18437810  0.44164789  0.93485538  1
  Zn  Zn125  1  0.18673947  0.93634671  0.43882884  1
  Zn  Zn126  1  0.18587755  0.94026161  0.93553133  1
  Zn  Zn127  1  0.68985240  0.43678405  0.43996253  1
  Zn  Zn128  1  0.68597024  0.43355937  0.93603500  1
  Zn  Zn129  1  0.68748067  0.93920354  0.43656704  1
  Zn  Zn130  1  0.68549849  0.93930624  0.93585696  1
  Zn  Zn131  1  0.30933464  0.06565480  0.06282114  1
  Zn  Zn132  1  0.31305197  0.06724152  0.56518603  1
  Zn  Zn133  1  0.31483829  0.56711157  0.06052225  1
  Zn  Zn134  1  0.30872083  0.55930390  0.56141436  1
  Zn  Zn135  1  0.81048928  0.06370611  0.06624722  1
  Zn  Zn136  1  0.80798433  0.06202786  0.55952436  1
  Zn  Zn137  1  0.81380411  0.56582083  0.06435544  1
  Zn  Zn138  1  0.81375891  0.56184244  0.56452910  1
  Zn  Zn139  1  0.44026585  0.43424419  0.19344758  1
  Zn  Zn140  1  0.43551631  0.44158080  0.68759011  1
  Zn  Zn141  1  0.44002819  0.93369347  0.18740384  1
  Zn  Zn142  1  0.43800004  0.94645401  0.69209727  1
  Zn  Zn143  1  0.93862403  0.43485595  0.18770884  1
  Zn  Zn144  1  0.92187899  0.43472291  0.68799819  1
  Zn  Zn145  1  0.94163454  0.93842856  0.18851313  1
  Zn  Zn146  1  0.93766381  0.93190370  0.68651316  1
  Zn  Zn147  1  0.06037204  0.06422944  0.31591830  1
  Zn  Zn148  1  0.06171816  0.06038828  0.81325576  1
  Zn  Zn149  1  0.06309108  0.56543471  0.31622876  1
  Zn  Zn150  1  0.05848462  0.57085518  0.81699740  1
  Zn  Zn151  1  0.56137695  0.06119154  0.31181387  1
  Zn  Zn152  1  0.56743586  0.06214919  0.81149591  1
  Zn  Zn153  1  0.56330969  0.56312697  0.31250699  1
  Zn  Zn154  1  0.56496372  0.55276858  0.80600228  1
  Zn  Zn155  1  0.44000488  0.18366812  0.43830754  1
  Zn  Zn156  1  0.43652285  0.18900788  0.94095296  1
  Zn  Zn157  1  0.43729546  0.68504418  0.44021661  1
  Zn  Zn158  1  0.48477119  0.65436125  0.90776495  1
  Zn  Zn159  1  0.93934672  0.18554435  0.44164437  1
  Zn  Zn160  1  0.93799146  0.18623879  0.93447644  1
  Zn  Zn161  1  0.94080570  0.68681017  0.43727028  1
  Zn  Zn162  1  0.90845814  0.67905034  0.95067414  1
  Zn  Zn163  1  0.06284334  0.31468174  0.05992319  1
  Zn  Zn164  1  0.05904079  0.30773215  0.56092826  1
  Zn  Zn165  1  0.05818403  0.81850994  0.06567561  1
  Zn  Zn166  1  0.06477595  0.81554501  0.56257832  1
  Zn  Zn167  1  0.56443928  0.31181123  0.06938694  1
  Zn  Zn168  1  0.56300857  0.31200037  0.55628903  1
  Zn  Zn169  1  0.57187503  0.81732081  0.06420021  1
  Zn  Zn170  1  0.56095509  0.81459837  0.56498157  1
  O  O171  1  0.13269171  0.11316140  0.12451835  1
  O  O172  1  0.12492340  0.11175574  0.62841397  1
  O  O173  1  0.12755046  0.61501133  0.11736961  1
  O  O174  1  0.12531733  0.62597804  0.61070590  1
  O  O175  1  0.63500121  0.10976167  0.12188380  1
  O  O176  1  0.61939788  0.11535680  0.61817434  1
  O  O177  1  0.61542452  0.61719611  0.12862427  1
  O  O178  1  0.62667938  0.61198018  0.63416481  1
  O  O179  1  0.38591467  0.38446981  0.36833864  1
  O  O180  1  0.38039983  0.37577510  0.88332867  1
  O  O181  1  0.38903864  0.87475131  0.36737525  1
  O  O182  1  0.37238694  0.88724753  0.87741494  1
  O  O183  1  0.87230657  0.38115162  0.38319340  1
  O  O184  1  0.88472731  0.37636599  0.87944955  1
  O  O185  1  0.87865346  0.88186782  0.38854853  1
  O  O186  1  0.88074780  0.88510503  0.88428407  1
  O  O187  1  0.25129820  -0.00188445  0.36340849  1
  O  O188  1  0.25717694  0.00969987  0.87432685  1
  O  O189  1  0.25733005  0.50187693  0.37102277  1
  O  O190  1  0.25301116  0.50875416  0.86988605  1
  O  O191  1  0.76483840  -0.00636190  0.36536464  1
  O  O192  1  0.75863553  0.00040498  0.86660826  1
  O  O193  1  0.75757701  0.50805112  0.37126606  1
  O  O194  1  0.74546730  0.50818764  0.87516363  1
  O  O195  1  0.24343697  0.49897570  0.12926549  1
  O  O196  1  0.25168792  0.48616423  0.63122766  1
  O  O197  1  0.24500034  0.99589385  0.13498172  1
  O  O198  1  0.24270722  0.99577251  0.62633471  1
  O  O199  1  0.74422893  0.49895759  0.12780300  1
  O  O200  1  0.74162596  0.49022978  0.62378452  1
  O  O201  1  0.74886835  0.99706279  0.13926128  1
  O  O202  1  0.74440477  1.00056818  0.63430743  1
  O  O203  1  0.00656733  0.36372276  0.25245195  1
  O  O204  1  -0.00016853  0.36704995  0.75611402  1
  O  O205  1  0.01374555  0.87015810  0.25074050  1
  O  O206  1  0.00519181  0.87085302  0.75994137  1
  O  O207  1  0.50953525  0.36586207  0.26022397  1
  O  O208  1  0.50569008  0.37977897  0.75880826  1
  O  O209  1  0.51131789  0.86859470  0.25727534  1
  O  O210  1  0.51432189  0.88230466  0.74693388  1
  O  O211  1  0.48694649  0.13003704  0.25280909  1
  O  O212  1  0.49696630  0.12138253  0.73659516  1
  O  O213  1  0.49947606  0.63192533  0.24078449  1
  O  O214  1  0.48119941  0.61404786  0.74602328  1
  O  O215  1  0.99575802  0.13651333  0.25030765  1
  O  O216  1  1.00066448  0.13870619  0.75102200  1
  O  O217  1  0.99384399  0.63605062  0.25590864  1
  O  O218  1  0.99187173  0.62750646  0.74234276  1
  O  O219  1  0.37044771  0.26147694  0.00674732  1
  O  O220  1  0.36876901  0.24315914  0.51131165  1
  O  O221  1  0.36758164  0.76093006  0.00481030  1
  O  O222  1  0.35890712  0.74649624  0.49710232  1
  O  O223  1  0.87138726  0.25121756  0.00724562  1
  O  O224  1  0.87655304  0.25481081  0.51342974  1
  O  O225  1  0.88520103  0.76836592  0.01746059  1
  O  O226  1  0.87164697  0.75583901  0.50289772  1
  O  O227  1  0.13109914  0.24718149  0.49175477  1
  O  O228  1  0.12321714  0.24899790  0.98685594  1
  O  O229  1  0.13214161  0.74629702  0.49359564  1
  O  O230  1  0.12951654  0.74042332  1.01060087  1
  O  O231  1  0.62405957  0.23514278  0.49951327  1
  O  O232  1  0.63338848  0.24288618  1.00561192  1
  O  O233  1  0.63433669  0.75656539  0.48985684  1
  O  O234  1  0.62751844  0.75059291  0.99864339  1
  O  O235  1  0.47933511  0.26154765  0.13119739  1
  O  O236  1  0.49304801  0.24256849  0.61892931  1
  O  O237  1  0.49588783  0.74337702  0.12849485  1
  O  O238  1  0.49245078  0.74314211  0.61190159  1
  O  O239  1  0.99293673  0.25543200  0.13277877  1
  O  O240  1  0.98922650  0.24631909  0.63147884  1
  O  O241  1  0.99246774  0.75637504  0.14089333  1
  O  O242  1  0.98877277  0.75053800  0.62336120  1
  O  O243  1  0.00905602  0.25062405  0.36787545  1
  O  O244  1  0.00272912  0.25711623  0.86766078  1
  O  O245  1  0.01297919  0.74807744  0.36698704  1
  O  O246  1  -0.01046356  0.76280583  0.87923673  1
  O  O247  1  0.49286766  0.25803618  0.36493693  1
  O  O248  1  0.50205062  0.26307646  0.88145390  1
  O  O249  1  0.50790165  0.75367770  0.37425953  1
  O  O250  1  0.48526769  0.76732845  0.88743947  1
  O  O251  1  0.24678660  0.13652534  0.49967012  1
  O  O252  1  0.24722059  0.13091193  0.98796875  1
  O  O253  1  0.24066086  0.63188785  0.49534258  1
  O  O254  1  0.24371689  0.63264873  0.99336383  1
  O  O255  1  0.73601295  0.12129563  0.49617860  1
  O  O256  1  0.74632682  0.13544775  1.00095921  1
  O  O257  1  0.75684046  0.63278582  0.48845817  1
  O  O258  1  0.79194080  0.64084025  0.98596576  1
  O  O259  1  0.25669794  0.37752607  0.00396199  1
  O  O260  1  0.25056801  0.36112735  0.50902587  1
  O  O261  1  0.23982250  0.86604388  0.00656719  1
  O  O262  1  0.24539603  0.86767834  0.51016896  1
  O  O263  1  0.75536477  0.36298283  0.00438668  1
  O  O264  1  0.75645501  0.37249528  0.51004516  1
  O  O265  1  0.76271290  0.87643216  -0.00161867  1
  O  O266  1  0.75930957  0.86492835  0.49396519  1
  O  O267  1  0.12758506  0.49765584  0.24278602  1
  O  O268  1  0.13855952  0.50567032  0.75833092  1
  O  O269  1  0.12960058  0.99558421  0.24681761  1
  O  O270  1  0.12519293  0.99043156  0.74359183  1
  O  O271  1  0.63263864  0.50151754  0.24079019  1
  O  O272  1  0.62550442  0.48488170  0.73772325  1
  O  O273  1  0.63340188  0.99551906  0.24507942  1
  O  O274  1  0.63174043  0.99234608  0.74189826  1
  O  O275  1  0.36781495  0.00469839  0.24825729  1
  O  O276  1  0.37253469  0.01451949  0.76042407  1
  O  O277  1  0.37001960  0.50194999  0.25885357  1
  O  O278  1  0.36140378  0.50878998  0.75043079  1
  O  O279  1  0.87366567  0.00475522  0.25621253  1
  O  O280  1  0.86465630  -0.00706861  0.75490186  1
  O  O281  1  0.87171508  0.50830616  0.25441785  1
  O  O282  1  0.86650346  0.51097867  0.75232513  1
  O  O283  1  0.12516424  0.36428328  0.36846620  1
  O  O284  1  0.11126391  0.36899626  0.87973448  1
  O  O285  1  0.13082280  0.86559612  0.36626377  1
  O  O286  1  0.11374372  0.88043891  0.86650180  1
  O  O287  1  0.62066412  0.38108606  0.36283959  1
  O  O288  1  0.61725208  0.37057476  0.86464807  1
  O  O289  1  0.61756100  0.86785834  0.36846497  1
  O  O290  1  0.62067525  0.87892665  0.86320003  1
  O  O291  1  0.36658759  0.13589749  0.13390986  1
  O  O292  1  0.38385358  0.13187548  0.63390877  1
  O  O293  1  0.38476251  0.63692258  0.12450184  1
  O  O294  1  0.36876194  0.62373694  0.63711498  1
  O  O295  1  0.87382380  0.13574497  0.13572493  1
  O  O296  1  0.87299519  0.13612119  0.62225265  1
  O  O297  1  0.87582380  0.63372627  0.14203552  1
  O  O298  1  0.87881317  0.63029148  0.63322077  1
  O  O299  1  0.25714094  0.26039568  0.12382581  1
  O  O300  1  0.25904605  0.25298197  0.62096841  1
  O  O301  1  0.25855717  0.75084433  0.11486827  1
  O  O302  1  0.25262642  0.76074784  0.61670715  1
  O  O303  1  0.76046293  0.25403390  0.12024915  1
  O  O304  1  0.75964848  0.25333185  0.62882108  1
  O  O305  1  0.76434301  0.74804229  0.12782353  1
  O  O306  1  0.76063233  0.74244454  0.61193841  1
  O  O307  1  0.24494928  0.25091800  0.38337261  1
  O  O308  1  0.24065688  0.24587935  0.87393398  1
  O  O309  1  0.24050366  0.74581034  0.37965508  1
  O  O310  1  0.25402274  0.74479838  0.88750524  1
  O  O311  1  0.71456869  0.26449355  0.30162577  1
  O  O312  1  0.74820314  0.24714663  0.88399835  1
  O  O313  1  0.74468136  0.74368676  0.38340000  1
  O  O314  1  0.74305837  0.74406956  0.87785449  1
  O  O315  1  0.00153632  0.11185959  -0.00410586  1
  O  O316  1  0.00277961  0.11154469  0.50536838  1
  O  O317  1  0.00517309  0.61691035  -0.00654430  1
  O  O318  1  0.01544043  0.62604016  0.50126367  1
  O  O319  1  0.51207029  0.13372997  0.00687107  1
  O  O320  1  0.50810000  0.11808818  0.50909503  1
  O  O321  1  0.49375414  0.60348777  0.01088824  1
  O  O322  1  0.49981355  0.60880432  0.49795934  1
  O  O323  1  0.50577203  0.38355810  0.48386372  1
  O  O324  1  0.49323056  0.38031162  0.99913418  1
  O  O325  1  0.50595972  0.88637859  0.49022493  1
  O  O326  1  0.48805045  0.87807456  1.00705455  1
  O  O327  1  0.98574982  0.36936034  0.49607604  1
  O  O328  1  0.99382287  0.38190590  0.99274223  1
  O  O329  1  0.99433970  0.88819345  0.50369586  1
  O  O330  1  0.99506714  0.88755052  0.99467274  1
  O  O331  1  0.49431300  0.49468658  0.37769589  1
  O  O332  1  0.49875425  0.48712779  0.88640267  1
  O  O333  1  0.49908707  0.99081827  0.38195598  1
  O  O334  1  0.48558917  1.00744427  0.87522515  1
  O  O335  1  0.98625607  0.49650020  0.36898504  1
  O  O336  1  1.00035196  0.49275780  0.88534958  1
  O  O337  1  0.98812629  1.00315383  0.38260925  1
  O  O338  1  0.99241590  0.99353825  0.88103978  1
  O  O339  1  0.01022235  -0.00261226  0.11699889  1
  O  O340  1  0.00686155  0.00010303  0.62057436  1
  O  O341  1  0.00850859  0.49413618  0.11317925  1
  O  O342  1  0.00141854  0.48687934  0.62810239  1
  O  O343  1  0.51450000  0.00315370  0.13316986  1
  O  O344  1  0.50760117  0.00754735  0.61791878  1
  O  O345  1  0.50773013  0.50358505  0.12468595  1
  O  O346  1  0.50657095  0.49997602  0.61482536  1
  O  O347  1  0.24294542  0.38227674  0.24493183  1
  O  O348  1  0.25258844  0.38391555  0.74259902  1
  O  O349  1  0.24076813  0.88069035  0.24413868  1
  O  O350  1  0.24072725  0.87835601  0.74432171  1
  O  O351  1  0.75229787  0.39157646  0.24231681  1
  O  O352  1  0.74135290  0.37573062  0.73723070  1
  O  O353  1  0.73947078  0.87957541  0.25804901  1
  O  O354  1  0.74011249  0.89053193  0.75297582  1
  O  O355  1  0.25960756  0.11562748  0.25298575  1
  O  O356  1  0.25876012  0.12513815  0.76178632  1
  O  O357  1  0.24968242  0.61864874  0.25739257  1
  O  O358  1  0.25372854  0.62087511  0.75708024  1
  O  O359  1  0.76458281  0.11226496  0.25119133  1
  O  O360  1  0.74145425  0.10370602  0.75330913  1
  O  O361  1  0.75940049  0.62449536  0.26153360  1
  O  O362  1  0.76216835  0.62400286  0.75081466  1
  O  O363  1  0.37260145  0.11969155  0.36539436  1
  O  O364  1  0.37079324  0.12137660  0.87201752  1
  O  O365  1  0.36734407  0.61704441  0.37253810  1
  O  O366  1  0.36869558  0.62147705  0.86470310  1
  O  O367  1  0.87954868  0.11927460  0.36542042  1
  O  O368  1  0.87307754  0.11008237  0.87733615  1
  O  O369  1  0.87050895  0.61879812  0.36948955  1
  O  O370  1  0.88675465  0.62091103  0.85467555  1
  O  O371  1  0.13045250  0.38660960  0.12778022  1
  O  O372  1  0.13954632  0.36116066  0.62509006  1
  O  O373  1  0.13078769  0.88523205  0.13374080  1
  O  O374  1  0.13211842  0.88518363  0.63155040  1
  O  O375  1  0.63509737  0.37782556  0.14201224  1
  O  O376  1  0.62861120  0.37809008  0.62734146  1
  O  O377  1  0.62421672  0.88972872  0.13707647  1
  O  O378  1  0.62395042  0.88813296  0.63020125  1
  O  O379  1  0.12131594  0.25358033  0.25374465  1
  O  O380  1  0.11643967  0.24875473  0.76128826  1
  O  O381  1  0.12084090  0.75646891  0.25425492  1
  O  O382  1  0.12237166  0.76301064  0.74410692  1
  O  O383  1  0.59813352  0.24645264  0.22336227  1
  O  O384  1  0.62732379  0.25933108  0.74779754  1
  O  O385  1  0.62192839  0.75743315  0.25781986  1
  O  O386  1  0.62763058  0.76931382  0.74950432  1
  O  O387  1  0.37780306  0.24316898  0.24430652  1
  O  O388  1  0.37393796  0.23754631  0.74358016  1
  O  O389  1  0.38185817  0.74699822  0.24228902  1
  O  O390  1  0.36744406  0.73419996  0.74696329  1
  O  O391  1  0.88468954  0.24308518  0.24587978  1
  O  O392  1  0.88072280  0.25507006  0.73456262  1
  O  O393  1  0.88324953  0.74784307  0.25061448  1
  O  O394  1  0.87421369  0.74263179  0.74103638  1
  O  O395  1  0.38061249  0.50086502  0.48768831  1
  O  O396  1  0.38158639  0.48833121  1.00224898  1
  O  O397  1  0.38923883  1.00698578  0.50041633  1
  O  O398  1  0.37271384  1.00666168  0.98755635  1
  O  O399  1  0.86844074  0.48951262  0.49096325  1
  O  O400  1  0.88355468  0.49178029  1.00137374  1
  O  O401  1  0.87886511  0.99422834  0.49529712  1
  O  O402  1  0.88020259  0.99715508  0.99669450  1
  O  O403  1  0.11775463  0.00266201  0.00907191  1
  O  O404  1  0.11790044  0.00052444  0.50693272  1
  O  O405  1  0.11864821  0.51126926  0.00634172  1
  O  O406  1  0.13039097  0.51329513  0.49274292  1
  O  O407  1  0.63034236  0.00590174  0.01540277  1
  O  O408  1  0.61853441  0.00483479  0.50599365  1
  O  O409  1  0.61797833  0.48600158  0.01786105  1
  O  O410  1  0.61751466  0.49491704  0.50928236  1
  O  O411  1  0.36756858  0.37314918  0.11999185  1
  O  O412  1  0.36908282  0.36173325  0.63158880  1
  O  O413  1  0.36825827  0.86204149  0.13252455  1
  O  O414  1  0.36088573  0.88038536  0.63504958  1
  O  O415  1  0.87061696  0.36479143  0.12058034  1
  O  O416  1  0.86310757  0.36470859  0.61741034  1
  O  O417  1  0.87721419  0.87213122  0.12038610  1
  O  O418  1  0.87639720  0.86631430  0.61196512  1
  O  O419  1  0.13003808  0.13715929  0.37418368  1
  O  O420  1  0.13238140  0.13186493  0.87520539  1
  O  O421  1  0.13106271  0.63286607  0.38344246  1
  O  O422  1  0.13790315  0.62558129  0.88534467  1
  O  O423  1  0.62034848  0.12205970  0.38637655  1
  O  O424  1  0.62667514  0.12518234  0.88847726  1
  O  O425  1  0.63537264  0.63605696  0.36931347  1
  O  O426  1  0.60021288  0.63455110  0.87383127  1
