# generated using pymatgen
data_V85Zn86O256
_symmetry_space_group_name_H-M   'P 1'
_cell_length_a   16.91803616
_cell_length_b   16.92254824
_cell_length_c   16.92740573
_cell_angle_alpha   89.96674109
_cell_angle_beta   90.03285419
_cell_angle_gamma   89.88752260
_symmetry_Int_Tables_number   1
_chemical_formula_structural   V85Zn86O256
_chemical_formula_sum   'V85 Zn86 O256'
_cell_volume   4846.24238740
_cell_formula_units_Z   1
loop_
 _symmetry_equiv_pos_site_id
 _symmetry_equiv_pos_as_xyz
  1  'x, y, z'
loop_
 _atom_site_type_symbol
 _atom_site_label
 _atom_site_symmetry_multiplicity
 _atom_site_fract_x
 _atom_site_fract_y
 _atom_site_fract_z
 _atom_site_occupancy
  V  V0  1  0.49539956  0.87592856  0.37494320  1
  V  V1  1  0.61810131  0.73676700  0.38609668  1
  V  V2  1  0.74004451  0.74772047  -0.02647078  1
  V  V3  1  0.00872107  0.12138831  0.12284449  1
  V  V4  1  0.12224577  0.50060649  0.62390777  1
  V  V5  1  -0.00447408  -0.00575099  0.48625288  1
  V  V6  1  0.62339622  -0.00352063  0.62663520  1
  V  V7  1  0.74884193  0.25062862  0.00432749  1
  V  V8  1  -0.00368570  0.37847901  0.37205833  1
  V  V9  1  0.49754856  0.49525499  -0.01502662  1
  V  V10  1  0.49976861  0.25374547  0.25209355  1
  V  V11  1  0.25200141  0.37816976  0.12469270  1
  V  V12  1  0.00691865  -0.00518570  0.00454904  1
  V  V13  1  0.50535038  0.75435698  0.74918483  1
  V  V14  1  0.51148219  0.62377587  0.61958204  1
  V  V15  1  0.62569398  0.12092646  0.00177757  1
  V  V16  1  0.13377896  0.87148442  0.74530949  1
  V  V17  1  0.37516969  0.25310544  0.12660969  1
  V  V18  1  0.86892644  0.37621174  0.00487955  1
  V  V19  1  0.24731867  0.63023760  0.37564435  1
  V  V20  1  -0.00208252  0.75256890  0.74586516  1
  V  V21  1  0.24479841  0.24659156  -0.00541073  1
  V  V22  1  0.36628086  0.75320110  0.62424923  1
  V  V23  1  -0.00255503  0.37390501  0.87598661  1
  V  V24  1  0.12499115  0.50451243  0.12762330  1
  V  V25  1  0.37761582  0.37573471  -0.01402530  1
  V  V26  1  -0.00462758  0.12931564  0.62400544  1
  V  V27  1  0.26949096  0.75306834  -0.00247962  1
  V  V28  1  0.12086276  0.76302058  0.37039968  1
  V  V29  1  0.36651081  0.87995029  0.50279850  1
  V  V30  1  0.87389877  0.25134225  0.12767732  1
  V  V31  1  -0.00997078  0.75610980  0.24868584  1
  V  V32  1  0.24700782  0.00496882  0.75338559  1
  V  V33  1  0.12507988  0.12446176  0.50009890  1
  V  V34  1  0.87222806  0.87566435  0.47420688  1
  V  V35  1  0.49372834  0.00140629  0.49744462  1
  V  V36  1  0.12106684  0.62864657  0.49774591  1
  V  V37  1  0.37595803  0.50185344  0.37823215  1
  V  V38  1  0.87336630  0.13215622  0.74841576  1
  V  V39  1  0.37547716  0.37717528  0.50029231  1
  V  V40  1  0.37745096  0.11616957  0.25856770  1
  V  V41  1  0.12213759  0.37420277  0.75113096  1
  V  V42  1  0.75709921  0.11611653  0.37481564  1
  V  V43  1  0.87518577  -0.00045658  0.87762172  1
  V  V44  1  0.12836993  0.62569323  0.00000443  1
  V  V45  1  0.37002624  -0.00179477  0.88392022  1
  V  V46  1  0.37653377  0.24922841  0.62579471  1
  V  V47  1  0.26131087  0.61737885  0.87618737  1
  V  V48  1  0.74633894  0.37643537  0.62489667  1
  V  V49  1  0.87611145  0.11417049  0.24951712  1
  V  V50  1  0.61664516  0.25212491  0.87780601  1
  V  V51  1  0.63040612  -0.00602430  0.13033942  1
  V  V52  1  0.86717351  0.50225862  0.87419068  1
  V  V53  1  0.37251960  0.12581111  0.75673592  1
  V  V54  1  0.62783015  0.24854952  0.37694188  1
  V  V55  1  0.74975673  0.74074701  0.50248530  1
  V  V56  1  0.87754103  0.37093133  0.50590783  1
  V  V57  1  0.61944282  0.85973102  0.25376750  1
  V  V58  1  0.12672204  -0.00620932  0.62231297  1
  V  V59  1  0.76467844  0.87510898  0.62422306  1
  V  V60  1  0.25187906  0.50013099  0.75160400  1
  V  V61  1  0.12791891  0.74622707  0.87319985  1
  V  V62  1  0.50277750  0.61718649  0.13094358  1
  V  V63  1  0.50372023  0.12289412  0.12776720  1
  V  V64  1  0.62554373  0.12361844  0.50116942  1
  V  V65  1  0.74931138  0.85303659  0.12658965  1
  V  V66  1  -0.01139376  0.63128945  0.12745641  1
  V  V67  1  0.51614250  0.50236721  0.50142487  1
  V  V68  1  0.75698245  0.24591700  0.50749159  1
  V  V69  1  0.75002130  0.00061916  0.75068706  1
  V  V70  1  0.74440552  0.50363697  0.74653639  1
  V  V71  1  0.61907241  0.37614801  0.75183401  1
  V  V72  1  0.87405276  0.86636510  0.00335983  1
  V  V73  1  0.24975782  0.37677744  0.62412365  1
  V  V74  1  0.25064218  0.50211575  0.25195617  1
  V  V75  1  0.37782152  0.61974127  0.74761041  1
  V  V76  1  0.12598633  0.25047881  0.37257378  1
  V  V77  1  -0.00727444  0.62749012  0.62538620  1
  V  V78  1  0.64386424  0.37631690  0.24661808  1
  V  V79  1  -0.00826533  0.50369646  0.49448410  1
  V  V80  1  0.50123437  0.87510197  0.88176656  1
  V  V81  1  0.38111962  0.75687005  0.13395909  1
  V  V82  1  0.23944758  -0.00153017  0.24922332  1
  V  V83  1  0.81494088  0.56842368  0.31307026  1
  V  V84  1  0.86970232  0.63012747  0.75253815  1
  Zn  Zn85  1  0.49712456  0.25276428  0.75595309  1
  Zn  Zn86  1  0.24244147  0.75946507  0.50316103  1
  Zn  Zn87  1  0.49979993  0.12523294  0.62835626  1
  Zn  Zn88  1  0.75603281  -0.01865063  0.26072092  1
  Zn  Zn89  1  -0.00235987  0.50281284  0.00075878  1
  Zn  Zn90  1  0.74884472  0.12440052  0.87649602  1
  Zn  Zn91  1  -0.00607222  0.25283799  0.74535640  1
  Zn  Zn92  1  0.25037946  0.24986237  0.49928914  1
  Zn  Zn93  1  0.12426753  0.24119835  0.87087028  1
  Zn  Zn94  1  0.13250740  0.11286763  -0.00546600  1
  Zn  Zn95  1  0.00085465  0.87256058  0.87487562  1
  Zn  Zn96  1  0.49562454  -0.00431605  0.00479879  1
  Zn  Zn97  1  0.25469856  0.12419145  0.37800621  1
  Zn  Zn98  1  0.62759993  0.87266611  0.75368726  1
  Zn  Zn99  1  0.63419564  0.48630673  0.11868589  1
  Zn  Zn100  1  0.12256059  0.37548877  0.24848349  1
  Zn  Zn101  1  0.50373589  0.37781840  0.37613683  1
  Zn  Zn102  1  0.63088090  0.62112083  -0.01215204  1
  Zn  Zn103  1  0.38127962  0.63076054  0.25607474  1
  Zn  Zn104  1  0.12161791  0.87732136  0.23661382  1
  Zn  Zn105  1  0.00057816  0.25019691  0.24776347  1
  Zn  Zn106  1  0.25288461  0.88701185  0.11274417  1
  Zn  Zn107  1  0.18942121  0.18771546  0.18628487  1
  Zn  Zn108  1  0.18771951  0.18724683  0.68665891  1
  Zn  Zn109  1  0.18981512  0.69383538  0.18635141  1
  Zn  Zn110  1  0.18692957  0.68514387  0.68579665  1
  Zn  Zn111  1  0.69093798  0.18680306  0.18937788  1
  Zn  Zn112  1  0.68621751  0.18727097  0.68844996  1
  Zn  Zn113  1  0.70759942  0.64780897  0.16765920  1
  Zn  Zn114  1  0.68930525  0.69089081  0.68535934  1
  Zn  Zn115  1  0.31147173  0.31418137  0.31288183  1
  Zn  Zn116  1  0.30999771  0.31196063  0.81204424  1
  Zn  Zn117  1  0.31199110  0.81688864  0.31555192  1
  Zn  Zn118  1  0.31780027  0.81158567  0.81298064  1
  Zn  Zn119  1  0.81816962  0.30624123  0.31856441  1
  Zn  Zn120  1  0.80605223  0.31234319  0.81655847  1
  Zn  Zn121  1  0.78758345  0.76532337  0.29492722  1
  Zn  Zn122  1  0.81672213  0.81705184  0.80905965  1
  Zn  Zn123  1  0.18425215  0.43933758  0.43774914  1
  Zn  Zn124  1  0.18810253  0.43682645  0.93841000  1
  Zn  Zn125  1  0.18984790  0.94410355  0.42957044  1
  Zn  Zn126  1  0.18755524  0.93137482  0.93309075  1
  Zn  Zn127  1  0.69499344  0.43738413  0.42985493  1
  Zn  Zn128  1  0.68638294  0.43682440  0.93581779  1
  Zn  Zn129  1  0.68433445  0.93339983  0.43924640  1
  Zn  Zn130  1  0.68590900  0.93487693  0.93907232  1
  Zn  Zn131  1  0.31502806  0.06847119  0.06850243  1
  Zn  Zn132  1  0.30920976  0.06231214  0.56794507  1
  Zn  Zn133  1  0.32147939  0.56452440  0.06376493  1
  Zn  Zn134  1  0.31330328  0.56621514  0.56138414  1
  Zn  Zn135  1  0.81268701  0.05789344  0.06609359  1
  Zn  Zn136  1  0.81540300  0.05679950  0.56173044  1
  Zn  Zn137  1  0.80864458  0.56557880  0.05516247  1
  Zn  Zn138  1  0.81265144  0.55960493  0.56431160  1
  Zn  Zn139  1  0.43970697  0.43836988  0.18882373  1
  Zn  Zn140  1  0.44015923  0.44058926  0.68521985  1
  Zn  Zn141  1  0.43868704  0.93465309  0.18758993  1
  Zn  Zn142  1  0.43459387  0.93797383  0.68731100  1
  Zn  Zn143  1  0.93358218  0.44253822  0.18900648  1
  Zn  Zn144  1  0.93304379  0.43884458  0.68581706  1
  Zn  Zn145  1  0.93465316  0.93275479  0.18445486  1
  Zn  Zn146  1  0.94255528  0.94337635  0.68742723  1
  Zn  Zn147  1  0.06296137  0.06507662  0.31114021  1
  Zn  Zn148  1  0.06026207  0.06291662  0.81512765  1
  Zn  Zn149  1  0.05726217  0.56771924  0.31074069  1
  Zn  Zn150  1  0.06043090  0.56093283  0.81451449  1
  Zn  Zn151  1  0.56629999  0.05743192  0.31328042  1
  Zn  Zn152  1  0.55872923  0.06277511  0.81407289  1
  Zn  Zn153  1  0.56542684  0.55914943  0.31105004  1
  Zn  Zn154  1  0.56482944  0.56373301  0.81237951  1
  Zn  Zn155  1  0.43984651  0.18926997  0.43962187  1
  Zn  Zn156  1  0.43578527  0.18459771  0.94018966  1
  Zn  Zn157  1  0.43568504  0.69018391  0.44213302  1
  Zn  Zn158  1  0.46739469  0.67208825  0.92320952  1
  Zn  Zn159  1  0.93961782  0.18723795  0.43565097  1
  Zn  Zn160  1  0.94027824  0.18575724  0.93729082  1
  Zn  Zn161  1  0.93273253  0.69461493  0.43319639  1
  Zn  Zn162  1  0.93791552  0.68783030  0.93623127  1
  Zn  Zn163  1  0.05913876  0.31551032  0.06321684  1
  Zn  Zn164  1  0.06213094  0.31072549  0.56185205  1
  Zn  Zn165  1  0.06865814  0.81211767  0.06410780  1
  Zn  Zn166  1  0.05467093  0.81426491  0.56001174  1
  Zn  Zn167  1  0.56206488  0.31393461  0.06536164  1
  Zn  Zn168  1  0.56263456  0.31480414  0.56396278  1
  Zn  Zn169  1  0.56190270  0.80794932  0.06110118  1
  Zn  Zn170  1  0.56058847  0.81431577  0.56376372  1
  O  O171  1  0.11192771  0.13008289  0.11888280  1
  O  O172  1  0.11895720  0.11845273  0.61751949  1
  O  O173  1  0.12594227  0.61857181  0.11731247  1
  O  O174  1  0.11389583  0.62097592  0.61897193  1
  O  O175  1  0.62305769  0.11482803  0.12467832  1
  O  O176  1  0.62475918  0.11456575  0.61944089  1
  O  O177  1  0.60217464  0.64098875  0.10929090  1
  O  O178  1  0.61000440  0.62839792  0.62604544  1
  O  O179  1  0.37631354  0.38314876  0.38274501  1
  O  O180  1  0.37471802  0.36968596  0.88651451  1
  O  O181  1  0.38755374  0.86962833  0.38529102  1
  O  O182  1  0.38424441  0.88932654  0.86649029  1
  O  O183  1  0.88868314  0.36833501  0.38735389  1
  O  O184  1  0.87881886  0.38083379  0.88068488  1
  O  O185  1  0.86388899  0.87339236  0.37847182  1
  O  O186  1  0.87885748  0.88355935  0.88113049  1
  O  O187  1  0.25142226  0.00856334  0.35705021  1
  O  O188  1  0.25503083  -0.00512071  0.86290261  1
  O  O189  1  0.25521602  0.50797714  0.37307091  1
  O  O190  1  0.24769523  0.51009248  0.86917610  1
  O  O191  1  0.74368138  0.01243122  0.37682306  1
  O  O192  1  0.75958104  -0.00065855  0.87141134  1
  O  O193  1  0.75370136  0.50932593  0.36885885  1
  O  O194  1  0.76031379  0.49642662  0.86646157  1
  O  O195  1  0.24532891  0.49871572  0.13012443  1
  O  O196  1  0.24223812  0.49799363  0.63010450  1
  O  O197  1  0.26235549  1.00169494  0.14299211  1
  O  O198  1  0.23520326  1.00222361  0.63640410  1
  O  O199  1  0.73086877  0.54169566  0.12948661  1
  O  O200  1  0.75221875  0.48964525  0.63367686  1
  O  O201  1  0.73902724  0.98681255  0.12675642  1
  O  O202  1  0.74310851  0.99344895  0.62931781  1
  O  O203  1  0.00028252  0.37465730  0.25839176  1
  O  O204  1  0.00421767  0.37471884  0.75452100  1
  O  O205  1  0.00405219  0.86134959  0.24085843  1
  O  O206  1  0.00827909  0.86690156  0.74908105  1
  O  O207  1  0.50328390  0.36183959  0.25374421  1
  O  O208  1  0.51503413  0.37525151  0.74352288  1
  O  O209  1  0.50573669  0.87879563  0.26287258  1
  O  O210  1  0.50133389  0.86925131  0.75365483  1
  O  O211  1  0.49476539  0.13269444  0.25063909  1
  O  O212  1  0.48870925  0.12842554  0.74743907  1
  O  O213  1  0.50024876  0.62080736  0.23631919  1
  O  O214  1  0.49288150  0.62914571  0.73714880  1
  O  O215  1  0.99325813  0.12566148  0.24120255  1
  O  O216  1  0.99108014  0.12482331  0.74111823  1
  O  O217  1  1.00351259  0.63501309  0.23433974  1
  O  O218  1  0.99472754  0.62995574  0.74324802  1
  O  O219  1  0.36690666  0.25508708  0.00643404  1
  O  O220  1  0.37313066  0.25671966  0.50788749  1
  O  O221  1  0.36897785  0.74150099  0.00163158  1
  O  O222  1  0.37031629  0.76000132  0.50833645  1
  O  O223  1  0.86820770  0.25562677  0.00501188  1
  O  O224  1  0.86840966  0.25602219  0.49832629  1
  O  O225  1  0.86385262  0.76109199  -0.01266903  1
  O  O226  1  0.86215938  0.76388199  0.49482107  1
  O  O227  1  0.12586357  0.24101022  0.49380791  1
  O  O228  1  0.13955824  0.25760379  1.00160031  1
  O  O229  1  0.12159893  0.74680436  0.49140145  1
  O  O230  1  0.13592404  0.73715205  0.99399180  1
  O  O231  1  0.63093785  0.24433155  0.49410753  1
  O  O232  1  0.63117129  0.24561698  0.99825901  1
  O  O233  1  0.63294508  0.75415082  0.49511177  1
  O  O234  1  0.63955465  0.75721520  0.99399616  1
  O  O235  1  0.49737001  0.24400451  0.13506390  1
  O  O236  1  0.48713433  0.24999498  0.62689246  1
  O  O237  1  0.48407302  0.74180768  0.11655915  1
  O  O238  1  0.49104345  0.74147144  0.62776320  1
  O  O239  1  0.98960834  0.24165337  0.12250233  1
  O  O240  1  1.00300460  0.23442898  0.62521879  1
  O  O241  1  1.00651303  0.73840141  0.13283664  1
  O  O242  1  1.00383020  0.74135398  0.63654824  1
  O  O243  1  0.01101646  0.25732904  0.37404709  1
  O  O244  1  -0.00133746  0.26381673  0.87255132  1
  O  O245  1  0.00772239  0.74347703  0.35814668  1
  O  O246  1  0.00874108  0.74690609  0.86188658  1
  O  O247  1  0.51089565  0.25140757  0.37012927  1
  O  O248  1  0.51227868  0.24753656  0.87798910  1
  O  O249  1  0.51064614  0.75936958  0.38757760  1
  O  O250  1  0.48410581  0.77002491  0.86262616  1
  O  O251  1  0.23747691  0.12469808  0.49961579  1
  O  O252  1  0.24870077  0.14256476  1.00911829  1
  O  O253  1  0.24235504  0.62700813  0.48922102  1
  O  O254  1  0.24953929  0.62853773  0.99208099  1
  O  O255  1  0.74863062  0.12925815  0.49588891  1
  O  O256  1  0.74282357  0.13066909  1.00179303  1
  O  O257  1  0.75645454  0.64199065  0.50941320  1
  O  O258  1  0.74902116  0.64306006  0.98756629  1
  O  O259  1  0.25862020  0.36968043  0.00571613  1
  O  O260  1  0.25610702  0.37663172  0.50735807  1
  O  O261  1  0.25385852  0.85651137  -0.00666287  1
  O  O262  1  0.26230621  0.87994589  0.49406363  1
  O  O263  1  0.76052622  0.36796083  -0.00146804  1
  O  O264  1  0.75732917  0.36802954  0.50470856  1
  O  O265  1  0.75472807  0.86467762  0.00422705  1
  O  O266  1  0.76049762  0.87455461  0.50576423  1
  O  O267  1  0.13057987  0.50172175  0.24219355  1
  O  O268  1  0.12791545  0.49059809  0.74540067  1
  O  O269  1  0.13591182  1.00190668  0.24716208  1
  O  O270  1  0.12767032  0.99205275  0.74446375  1
  O  O271  1  0.62295234  0.47709460  0.25533102  1
  O  O272  1  0.63636014  0.49374419  0.75705218  1
  O  O273  1  0.63079082  0.98688082  0.24577795  1
  O  O274  1  0.63108945  1.00151606  0.74248341  1
  O  O275  1  0.37985213  0.01473185  0.25089747  1
  O  O276  1  0.36481983  0.00774832  0.75288054  1
  O  O277  1  0.37165340  0.50086957  0.26460656  1
  O  O278  1  0.36930463  0.51169141  0.74274892  1
  O  O279  1  0.87089191  0.00953820  0.24472379  1
  O  O280  1  0.87123456  0.00711327  0.75861529  1
  O  O281  1  0.86766668  0.51183317  0.24708159  1
  O  O282  1  0.86500403  0.50591304  0.75529607  1
  O  O283  1  0.11456731  0.36844118  0.37647448  1
  O  O284  1  0.11567634  0.37575938  0.86768259  1
  O  O285  1  0.12773688  0.86523729  0.37043664  1
  O  O286  1  0.12164091  0.86394567  0.86461740  1
  O  O287  1  0.62742888  0.36123697  0.36822230  1
  O  O288  1  0.63230626  0.36405009  0.86474915  1
  O  O289  1  0.61342190  0.87125354  0.37252110  1
  O  O290  1  0.60621239  0.88478684  0.87028466  1
  O  O291  1  0.38511321  0.13341460  0.13771577  1
  O  O292  1  0.37379651  0.13396043  0.63498519  1
  O  O293  1  0.38506439  0.63263736  0.13278491  1
  O  O294  1  0.38003879  0.63323733  0.63022329  1
  O  O295  1  0.88017854  0.13105894  0.13132228  1
  O  O296  1  0.88350568  0.11605426  0.63440369  1
  O  O297  1  0.89168378  0.62774599  0.11242976  1
  O  O298  1  0.88616618  0.61966765  0.63615516  1
  O  O299  1  0.25463800  0.25913907  0.11891889  1
  O  O300  1  0.26011989  0.25717731  0.62387785  1
  O  O301  1  0.26648104  0.74241195  0.11059549  1
  O  O302  1  0.26090174  0.74543765  0.62225599  1
  O  O303  1  0.76028802  0.24443932  0.11406657  1
  O  O304  1  0.74692633  0.25380503  0.61298894  1
  O  O305  1  0.74504736  0.75206921  0.11892826  1
  O  O306  1  0.74313836  0.76264488  0.61189909  1
  O  O307  1  0.23796896  0.24997374  0.37745079  1
  O  O308  1  0.24727975  0.25485670  0.89122351  1
  O  O309  1  0.24144109  0.74474690  0.37708845  1
  O  O310  1  0.25073688  0.73919449  0.88196029  1
  O  O311  1  0.74545603  0.24006613  0.38684116  1
  O  O312  1  0.74165984  0.24627048  0.88916493  1
  O  O313  1  0.73159210  0.75738679  0.39453894  1
  O  O314  1  0.74324118  0.75827618  0.87472120  1
  O  O315  1  -0.00383127  0.11268893  0.00806697  1
  O  O316  1  0.00723961  0.11788525  0.50448308  1
  O  O317  1  0.01112368  0.62674169  0.00758375  1
  O  O318  1  -0.00160087  0.62149939  0.50682250  1
  O  O319  1  0.50781718  0.12272448  0.01028651  1
  O  O320  1  0.50554164  0.11834650  0.50333233  1
  O  O321  1  0.48200278  0.60128146  0.01451883  1
  O  O322  1  0.49557191  0.61837819  0.51222946  1
  O  O323  1  0.49258151  0.38402657  0.50058575  1
  O  O324  1  0.49155595  0.38537443  1.00767821  1
  O  O325  1  0.49119167  0.88379395  0.49688105  1
  O  O326  1  0.49992719  0.87550609  0.98605795  1
  O  O327  1  0.99440293  0.38211270  0.49751354  1
  O  O328  1  0.98905963  0.37880977  0.99253737  1
  O  O329  1  0.98185499  0.87897592  0.49813207  1
  O  O330  1  0.99160130  0.87619108  1.00081746  1
  O  O331  1  0.49237213  0.50034719  0.38332769  1
  O  O332  1  0.49598685  0.49452507  0.88660250  1
  O  O333  1  0.50493630  0.99363111  0.38957977  1
  O  O334  1  0.48921905  0.99157423  0.87680955  1
  O  O335  1  1.00736373  0.49194981  0.38425219  1
  O  O336  1  0.98878953  0.48985170  0.87511267  1
  O  O337  1  1.00517657  1.00267273  0.38728828  1
  O  O338  1  0.98786189  0.99606481  0.88264234  1
  O  O339  1  -0.00713583  0.00749829  0.11498935  1
  O  O340  1  0.01012818  0.00876075  0.61650037  1
  O  O341  1  0.00834868  0.51282206  0.12371257  1
  O  O342  1  0.00393898  0.50720829  0.61908629  1
  O  O343  1  0.51177154  0.00194051  0.12570225  1
  O  O344  1  0.50731603  0.00091482  0.61714407  1
  O  O345  1  0.50878446  0.50774189  0.12616644  1
  O  O346  1  0.49692340  0.51464521  0.61629797  1
  O  O347  1  0.24679229  0.38357230  0.24321552  1
  O  O348  1  0.24253399  0.38093591  0.74536151  1
  O  O349  1  0.25263951  0.89227515  0.25165236  1
  O  O350  1  0.23863051  0.87866209  0.75194266  1
  O  O351  1  0.74243921  0.36527595  0.25459050  1
  O  O352  1  0.74532662  0.38118447  0.74219760  1
  O  O353  1  0.74174696  0.86459519  0.24240684  1
  O  O354  1  0.74779037  0.88177827  0.74155776  1
  O  O355  1  0.26287500  0.11940349  0.24884949  1
  O  O356  1  0.25619634  0.11625005  0.74776773  1
  O  O357  1  0.25125877  0.62135947  0.26250605  1
  O  O358  1  0.25672249  0.62079301  0.75658970  1
  O  O359  1  0.75861862  0.12367882  0.25952391  1
  O  O360  1  0.75639378  0.11807106  0.75148249  1
  O  O361  1  0.76139942  0.65054698  0.26811798  1
  O  O362  1  0.75824027  0.61862099  0.74245348  1
  O  O363  1  0.37415370  0.13486061  0.36185056  1
  O  O364  1  0.37782072  0.11747977  0.86412225  1
  O  O365  1  0.36719716  0.62087656  0.37629285  1
  O  O366  1  0.37058547  0.62909641  0.86208357  1
  O  O367  1  0.86843700  0.13014815  0.36435832  1
  O  O368  1  0.87355791  0.11662030  0.86891408  1
  O  O369  1  0.88075749  0.61352767  0.37584998  1
  O  O370  1  0.88239310  0.61482247  0.86274996  1
  O  O371  1  0.12836394  0.39061090  0.12292436  1
  O  O372  1  0.12806289  0.38011853  0.63095027  1
  O  O373  1  0.14241135  0.86603292  0.12520345  1
  O  O374  1  0.11885789  0.88280836  0.63049162  1
  O  O375  1  0.62870040  0.36975365  0.14127147  1
  O  O376  1  0.63857491  0.36824624  0.63343094  1
  O  O377  1  0.62730315  0.87483918  0.13435721  1
  O  O378  1  0.63165551  0.88724268  0.62437629  1
  O  O379  1  0.12270942  0.25244610  0.25749300  1
  O  O380  1  0.12388506  0.26330434  0.74977635  1
  O  O381  1  0.11947701  0.75069871  0.25715079  1
  O  O382  1  0.12081924  0.75451166  0.75184907  1
  O  O383  1  0.62023726  0.25399599  0.25733396  1
  O  O384  1  0.62475143  0.25624610  0.76005060  1
  O  O385  1  0.62535589  0.75843074  0.27056463  1
  O  O386  1  0.60938668  0.75219071  0.74311883  1
  O  O387  1  0.38277855  0.24492286  0.24715064  1
  O  O388  1  0.37476443  0.24416035  0.74518656  1
  O  O389  1  0.36989338  0.75015942  0.23735700  1
  O  O390  1  0.38190963  0.74242592  0.74104857  1
  O  O391  1  0.87707385  0.24091225  0.24095050  1
  O  O392  1  0.87190596  0.23620724  0.75576939  1
  O  O393  1  0.89152852  0.75552988  0.24906673  1
  O  O394  1  0.88365836  0.74097569  0.75339791  1
  O  O395  1  0.37881674  0.49717359  0.49116510  1
  O  O396  1  0.38370092  0.48589201  1.00511139  1
  O  O397  1  0.38285349  0.99534517  0.50889960  1
  O  O398  1  0.37307426  1.00887041  0.98795013  1
  O  O399  1  0.88609642  0.49091641  0.50532950  1
  O  O400  1  0.87370646  0.49366199  0.99207991  1
  O  O401  1  0.88134823  0.98637564  0.49794190  1
  O  O402  1  0.87859711  0.98903378  0.99419387  1
  O  O403  1  0.11139365  -0.00659845  -0.00538953  1
  O  O404  1  0.12014423  0.00342687  0.50523045  1
  O  O405  1  0.12511954  0.51139837  0.00532742  1
  O  O406  1  0.11312631  0.50730027  0.50480808  1
  O  O407  1  0.62396793  0.00462279  0.01017818  1
  O  O408  1  0.61847996  0.00522655  0.50753661  1
  O  O409  1  0.61189881  0.49859391  -0.00068807  1
  O  O410  1  0.61483575  0.49048850  0.49449431  1
  O  O411  1  0.37031092  0.36915971  0.12268408  1
  O  O412  1  0.37018647  0.36993496  0.62130391  1
  O  O413  1  0.37308250  0.86147787  0.12449783  1
  O  O414  1  0.37853052  0.86553966  0.61649314  1
  O  O415  1  0.88207324  0.36586029  0.11610106  1
  O  O416  1  0.86596077  0.37432216  0.61475702  1
  O  O417  1  0.86131644  0.87561454  0.11434742  1
  O  O418  1  0.86600146  0.88052786  0.62632360  1
  O  O419  1  0.12532774  0.13352728  0.38289005  1
  O  O420  1  0.11674811  0.12936521  0.88293400  1
  O  O421  1  0.13010519  0.63226527  0.38018220  1
  O  O422  1  0.13439224  0.62681521  0.88013200  1
  O  O423  1  0.63235176  0.13321739  0.37896638  1
  O  O424  1  0.62618934  0.13027422  0.88404353  1
  O  O425  1  0.61448160  0.63826765  0.37901540  1
  O  O426  1  0.57632178  0.64018525  0.89021177  1
