# generated using pymatgen
data_V85Zn86O256
_symmetry_space_group_name_H-M   'P 1'
_cell_length_a   16.92279692
_cell_length_b   16.93085151
_cell_length_c   16.94659118
_cell_angle_alpha   89.97102969
_cell_angle_beta   89.97138566
_cell_angle_gamma   90.01714175
_symmetry_Int_Tables_number   1
_chemical_formula_structural   V85Zn86O256
_chemical_formula_sum   'V85 Zn86 O256'
_cell_volume   4855.49115163
_cell_formula_units_Z   1
loop_
 _symmetry_equiv_pos_site_id
 _symmetry_equiv_pos_as_xyz
  1  'x, y, z'
loop_
 _atom_site_type_symbol
 _atom_site_label
 _atom_site_symmetry_multiplicity
 _atom_site_fract_x
 _atom_site_fract_y
 _atom_site_fract_z
 _atom_site_occupancy
  V  V0  1  0.24494100  0.86867231  0.63093724  1
  V  V1  1  0.37433018  0.62429723  0.24620537  1
  V  V2  1  0.01206693  0.87839159  0.87405631  1
  V  V3  1  0.12532502  0.62255936  0.49872887  1
  V  V4  1  0.88933226  0.00259717  0.87457994  1
  V  V5  1  0.00001106  0.74974161  0.24786052  1
  V  V6  1  0.12075059  0.24119494  0.88793249  1
  V  V7  1  0.38166207  0.37159307  -0.00733929  1
  V  V8  1  0.87972589  0.23706921  0.11392065  1
  V  V9  1  0.87355576  0.62512645  0.24940115  1
  V  V10  1  0.12589768  0.36996015  0.25443787  1
  V  V11  1  0.12719114  0.88842881  0.25009588  1
  V  V12  1  0.74760511  0.25492228  -0.00491743  1
  V  V13  1  0.37736309  0.49715379  0.37691075  1
  V  V14  1  0.62374773  0.74450202  0.38060354  1
  V  V15  1  0.50557066  0.51687307  0.50811161  1
  V  V16  1  0.87673427  0.50491853  0.87486176  1
  V  V17  1  0.36794878  0.63690447  0.72421632  1
  V  V18  1  0.00046466  0.49994015  0.50117266  1
  V  V19  1  0.00374063  0.62691826  0.62526874  1
  V  V20  1  0.37343945  0.86832186  0.50081094  1
  V  V21  1  0.63459886  0.86726455  0.76318292  1
  V  V22  1  0.87497859  0.75081462  0.12257601  1
  V  V23  1  0.25264665  0.74781046  -0.00009451  1
  V  V24  1  0.74578940  0.63067189  0.87366355  1
  V  V25  1  0.87310175  0.49988273  0.37411856  1
  V  V26  1  -0.00337014  0.87663129  0.37391324  1
  V  V27  1  0.24966325  0.49846673  0.25056853  1
  V  V28  1  0.36925519  0.24410872  0.62623325  1
  V  V29  1  0.11876770  0.49852674  0.12130878  1
  V  V30  1  0.88767564  0.12591443  0.74515797  1
  V  V31  1  0.25366055  0.88032469  0.12720944  1
  V  V32  1  0.50232281  0.74941159  0.24942077  1
  V  V33  1  0.86682799  0.37201807  0.50195846  1
  V  V34  1  0.12323113  0.00239909  0.10317442  1
  V  V35  1  0.49586581  0.11733984  0.63506173  1
  V  V36  1  0.13470699  0.74810649  0.87073846  1
  V  V37  1  0.36909243  0.51811438  0.85561609  1
  V  V38  1  0.87314153  0.75593504  0.62670508  1
  V  V39  1  0.74880660  0.49997635  0.24978911  1
  V  V40  1  0.74245758  0.14726782  0.38045111  1
  V  V41  1  0.37393137  0.11074104  0.25729153  1
  V  V42  1  0.62200995  0.63012118  -0.00678290  1
  V  V43  1  0.50926691  0.24821695  0.25834933  1
  V  V44  1  0.50279956  0.86655377  0.87980150  1
  V  V45  1  0.00264375  0.25523318  0.74774796  1
  V  V46  1  0.37486238  0.24590442  0.13062681  1
  V  V47  1  0.50134532  0.12322132  0.12643404  1
  V  V48  1  0.85757781  -0.00215337  0.37380696  1
  V  V49  1  0.86745780  0.87677163  0.50507517  1
  V  V50  1  0.75045165  0.37285515  0.12354247  1
  V  V51  1  0.75307661  0.00050593  0.74518614  1
  V  V52  1  0.88333780  0.87890248  -0.00131120  1
  V  V53  1  0.25031213  0.10673442  0.37435814  1
  V  V54  1  0.74534405  0.74425489  0.50481937  1
  V  V55  1  0.49099978  0.88140241  0.37241889  1
  V  V56  1  0.61877722  0.25556816  0.87199058  1
  V  V57  1  0.12308256  0.62193980  -0.00289043  1
  V  V58  1  0.50033911  0.62314447  0.12184821  1
  V  V59  1  0.63124486  0.00253891  0.12711557  1
  V  V60  1  0.12237323  0.00021940  0.62766112  1
  V  V61  1  0.61864796  0.38110786  0.74943212  1
  V  V62  1  0.75499389  0.88483485  0.12570312  1
  V  V63  1  0.24761887  0.25019604  0.49070277  1
  V  V64  1  -0.00327246  0.00522647  0.50011744  1
  V  V65  1  0.12685948  0.74857566  0.37104179  1
  V  V66  1  0.00358459  0.24633665  0.25274936  1
  V  V67  1  0.63228336  0.87738678  0.25220910  1
  V  V68  1  0.49067895  0.25047248  0.75366390  1
  V  V69  1  0.87015483  0.25037762  0.62484515  1
  V  V70  1  0.62262654  0.49785802  0.12277038  1
  V  V71  1  0.75105467  0.12695780  0.87159550  1
  V  V72  1  0.25235519  0.37236973  0.12622022  1
  V  V73  1  0.49529867  -0.00053486  0.49752052  1
  V  V74  1  0.74514383  0.37867142  0.62361254  1
  V  V75  1  0.87619230  0.38412679  0.00082331  1
  V  V76  1  0.00457389  0.36914734  0.37832852  1
  V  V77  1  0.50884623  0.37182019  0.38187190  1
  V  V78  1  0.12088842  0.12946020  0.49889735  1
  V  V79  1  0.62753639  -0.01141969  0.62633424  1
  V  V80  1  0.00413376  0.38400220  0.88081206  1
  V  V81  1  0.62489109  0.13588751  0.50365832  1
  V  V82  1  0.24255202  0.38275494  0.62890166  1
  V  V83  1  0.86866243  0.12152235  0.25439584  1
  V  V84  1  0.00605817  0.75518588  0.74954142  1
  Zn  Zn85  1  0.27564379  0.00866055  0.74259017  1
  Zn  Zn86  1  0.74968950  0.50200087  0.74808052  1
  Zn  Zn87  1  0.24322967  0.23950026  0.00711610  1
  Zn  Zn88  1  0.50181614  -0.00091757  -0.00046039  1
  Zn  Zn89  1  0.37601396  0.75034835  0.12175696  1
  Zn  Zn90  1  0.49839099  0.49518101  -0.01151130  1
  Zn  Zn91  1  0.01125164  0.12330908  0.12131811  1
  Zn  Zn92  1  0.38834700  0.00622762  0.85989345  1
  Zn  Zn93  1  0.26283699  0.11649344  0.87640778  1
  Zn  Zn94  1  0.25344221  0.74677883  0.50179091  1
  Zn  Zn95  1  0.62210034  0.52896637  0.62466176  1
  Zn  Zn96  1  0.13733323  0.39202596  0.75810422  1
  Zn  Zn97  1  0.74463870  0.62228581  0.37987195  1
  Zn  Zn98  1  0.62677063  0.12542286  -0.00125884  1
  Zn  Zn99  1  -0.00360158  0.61788453  0.12029082  1
  Zn  Zn100  1  0.74759827  0.75450054  -0.00552189  1
  Zn  Zn101  1  0.37574217  0.37592855  0.50434757  1
  Zn  Zn102  1  0.49787221  0.74463860  0.74340578  1
  Zn  Zn103  1  0.62951676  0.36966979  0.25442412  1
  Zn  Zn104  1  0.37529969  0.87739125  -0.00191087  1
  Zn  Zn105  1  0.87589182  0.62733231  0.75181489  1
  Zn  Zn106  1  0.24974361  0.62349049  0.37442630  1
  Zn  Zn107  1  0.18779905  0.18074218  0.19204976  1
  Zn  Zn108  1  0.18607484  0.18638702  0.68760186  1
  Zn  Zn109  1  0.18788603  0.68817157  0.18413904  1
  Zn  Zn110  1  0.18946761  0.68382481  0.68803154  1
  Zn  Zn111  1  0.69367188  0.18578851  0.18944148  1
  Zn  Zn112  1  0.68565467  0.18838760  0.68702023  1
  Zn  Zn113  1  0.68892520  0.68888682  0.18485329  1
  Zn  Zn114  1  0.69376734  0.68791162  0.68924877  1
  Zn  Zn115  1  0.31909019  0.30953615  0.31307826  1
  Zn  Zn116  1  0.30601501  0.30570076  0.81270396  1
  Zn  Zn117  1  0.31065609  0.81316562  0.30998349  1
  Zn  Zn118  1  0.31523191  0.81866712  0.80916062  1
  Zn  Zn119  1  0.81895629  0.31256397  0.30902285  1
  Zn  Zn120  1  0.81211111  0.31785082  0.80915715  1
  Zn  Zn121  1  0.80948317  0.81080725  0.31408732  1
  Zn  Zn122  1  0.81692578  0.81368832  0.81332424  1
  Zn  Zn123  1  0.18816852  0.43654983  0.44127535  1
  Zn  Zn124  1  0.19485795  0.43399847  0.94048412  1
  Zn  Zn125  1  0.18375798  0.93536701  0.44124401  1
  Zn  Zn126  1  0.19945154  0.93778683  0.93205721  1
  Zn  Zn127  1  0.68423344  0.43974495  0.44061629  1
  Zn  Zn128  1  0.68602471  0.44253065  0.93377579  1
  Zn  Zn129  1  0.68115123  0.93277764  0.44337833  1
  Zn  Zn130  1  0.69412097  0.94292344  0.93935714  1
  Zn  Zn131  1  0.31328820  0.05951958  0.05208845  1
  Zn  Zn132  1  0.31258922  0.05844505  0.56242756  1
  Zn  Zn133  1  0.30941831  0.55959080  0.05855219  1
  Zn  Zn134  1  0.31270667  0.56247848  0.56095342  1
  Zn  Zn135  1  0.82975213  0.07106699  0.05282866  1
  Zn  Zn136  1  0.81090437  0.06767484  0.56234304  1
  Zn  Zn137  1  0.80809861  0.56465794  0.06080547  1
  Zn  Zn138  1  0.81497018  0.56260733  0.56598979  1
  Zn  Zn139  1  0.44050115  0.43383271  0.18953810  1
  Zn  Zn140  1  0.43237581  0.43614856  0.68684330  1
  Zn  Zn141  1  0.44087527  0.93694085  0.18469193  1
  Zn  Zn142  1  0.44683458  0.90577502  0.67943536  1
  Zn  Zn143  1  0.93668119  0.43223727  0.18741873  1
  Zn  Zn144  1  0.97564380  0.46097599  0.70872859  1
  Zn  Zn145  1  0.94290463  0.94302978  0.18802979  1
  Zn  Zn146  1  0.94575371  0.93948755  0.68813050  1
  Zn  Zn147  1  0.05922925  0.06575570  0.31822903  1
  Zn  Zn148  1  0.09532246  0.07750439  0.79752169  1
  Zn  Zn149  1  0.06038938  0.56031748  0.31053271  1
  Zn  Zn150  1  0.06987190  0.56659938  0.81517345  1
  Zn  Zn151  1  0.56993973  0.06251486  0.31279030  1
  Zn  Zn152  1  0.56170292  0.06020966  0.81441841  1
  Zn  Zn153  1  0.56158490  0.55989058  0.31251314  1
  Zn  Zn154  1  0.55002444  0.56207714  0.80964264  1
  Zn  Zn155  1  0.43491977  0.18503673  0.44108518  1
  Zn  Zn156  1  0.43227586  0.18127352  0.94165336  1
  Zn  Zn157  1  0.43567141  0.68779920  0.43197302  1
  Zn  Zn158  1  0.43777300  0.68954897  0.93159445  1
  Zn  Zn159  1  0.93328524  0.18861614  0.43878968  1
  Zn  Zn160  1  0.93985419  0.19129824  0.93763276  1
  Zn  Zn161  1  0.93548473  0.68895839  0.43615824  1
  Zn  Zn162  1  0.94220365  0.68937584  0.93886325  1
  Zn  Zn163  1  0.05894520  0.31672035  0.06570753  1
  Zn  Zn164  1  0.06204236  0.31004304  0.56472724  1
  Zn  Zn165  1  0.06511694  0.81306639  0.06123383  1
  Zn  Zn166  1  0.06234737  0.81361639  0.55788833  1
  Zn  Zn167  1  0.56167175  0.30972652  0.06513686  1
  Zn  Zn168  1  0.55687555  0.31390594  0.56743342  1
  Zn  Zn169  1  0.56580762  0.81042147  0.06498489  1
  Zn  Zn170  1  0.55608187  0.72762942  0.58097543  1
  O  O171  1  0.12775287  0.10733905  0.12650577  1
  O  O172  1  0.12812697  0.11561641  0.60733108  1
  O  O173  1  0.12310738  0.61435336  0.12007857  1
  O  O174  1  0.11141037  0.63281348  0.61363607  1
  O  O175  1  0.62205711  0.11805958  0.12773710  1
  O  O176  1  0.61849427  0.11645125  0.62067342  1
  O  O177  1  0.62193727  0.61625608  0.11835586  1
  O  O178  1  0.61656823  0.64231606  0.62456631  1
  O  O179  1  0.38428373  0.38646799  0.37419895  1
  O  O180  1  0.37324567  0.35426366  0.89475074  1
  O  O181  1  0.38619255  0.87490964  0.37299509  1
  O  O182  1  0.39494669  0.87260266  0.87536924  1
  O  O183  1  0.88322553  0.37974427  0.38182078  1
  O  O184  1  0.87741037  0.38747557  0.88158392  1
  O  O185  1  0.87625719  0.88156109  0.38021512  1
  O  O186  1  0.88469985  0.88217541  0.88138878  1
  O  O187  1  0.25027280  0.00846729  0.37807552  1
  O  O188  1  0.26345018  -0.00532251  0.86319376  1
  O  O189  1  0.25946550  0.49826623  0.36903986  1
  O  O190  1  0.27601771  0.47982426  0.87429836  1
  O  O191  1  0.75631493  -0.00010644  0.38086679  1
  O  O192  1  0.76164811  0.01052064  0.86667235  1
  O  O193  1  0.75378448  0.50139203  0.36828296  1
  O  O194  1  0.75974190  0.51047634  0.87280160  1
  O  O195  1  0.24328761  0.48963322  0.13171571  1
  O  O196  1  0.25356833  0.48077597  0.61605207  1
  O  O197  1  0.23839795  0.98737418  0.12003431  1
  O  O198  1  0.23853638  0.99356571  0.62528214  1
  O  O199  1  0.74051986  0.49506679  0.12914118  1
  O  O200  1  0.74268288  0.49512028  0.62613883  1
  O  O201  1  0.74995490  0.98968757  0.12051317  1
  O  O202  1  0.74567204  1.00875294  0.63840507  1
  O  O203  1  0.00288605  0.36700824  0.25972472  1
  O  O204  1  -0.01115989  0.36386733  0.76781655  1
  O  O205  1  0.00584453  0.86940186  0.25541336  1
  O  O206  1  -0.00466543  0.86286933  0.75948391  1
  O  O207  1  0.50202276  0.36502675  0.26018622  1
  O  O208  1  0.50719311  0.36358170  0.74151588  1
  O  O209  1  0.51104567  0.87047563  0.25329762  1
  O  O210  1  0.52378921  0.87943100  0.76820949  1
  O  O211  1  0.49678638  0.12971742  0.24654563  1
  O  O212  1  0.50923836  0.13261674  0.73830877  1
  O  O213  1  0.49321883  0.62763032  0.24367760  1
  O  O214  1  0.47858092  0.63070136  0.75446584  1
  O  O215  1  0.98936004  0.13061161  0.24911645  1
  O  O216  1  0.99154826  0.13576135  0.75233791  1
  O  O217  1  0.99067631  0.62950320  0.24496723  1
  O  O218  1  0.99859252  0.63829306  0.74089315  1
  O  O219  1  0.37869149  0.25568149  0.01901510  1
  O  O220  1  0.36584655  0.25075627  0.50923168  1
  O  O221  1  0.36639084  0.75274864  0.00098083  1
  O  O222  1  0.37218655  0.76361141  0.48852027  1
  O  O223  1  0.86126246  0.26955883  -0.00765875  1
  O  O224  1  0.88052227  0.26280827  0.50978424  1
  O  O225  1  0.87438083  0.75678990  0.00828542  1
  O  O226  1  0.87138967  0.75902268  0.50580454  1
  O  O227  1  0.13182451  0.24040237  0.50316073  1
  O  O228  1  0.12268287  0.25756229  0.99102169  1
  O  O229  1  0.12030605  0.73867804  0.48702585  1
  O  O230  1  0.13133940  0.74382758  0.99295146  1
  O  O231  1  0.61810415  0.23507490  0.50908653  1
  O  O232  1  0.63139249  0.25157835  0.99073039  1
  O  O233  1  0.63364093  0.75723502  0.49256538  1
  O  O234  1  0.62952574  0.73401698  1.00675029  1
  O  O235  1  0.49544492  0.24228682  0.13656465  1
  O  O236  1  0.49012497  0.24011889  0.63300464  1
  O  O237  1  0.49932040  0.74192753  0.13251572  1
  O  O238  1  0.49383180  0.79629776  0.64028527  1
  O  O239  1  0.99636704  0.25057170  0.13713745  1
  O  O240  1  0.98517587  0.26193076  0.63756127  1
  O  O241  1  0.98859796  0.75240852  0.12995543  1
  O  O242  1  0.99496478  0.74827483  0.62976508  1
  O  O243  1  -0.00791869  0.25910118  0.36705617  1
  O  O244  1  0.00377727  0.26240794  0.87315241  1
  O  O245  1  0.00686553  0.75557058  0.36841431  1
  O  O246  1  0.00894477  0.75663577  0.86727240  1
  O  O247  1  0.49205085  0.25845166  0.36986353  1
  O  O248  1  0.51248000  0.24350881  0.86802578  1
  O  O249  1  0.50639508  0.75884155  0.36857305  1
  O  O250  1  0.50566549  0.76224324  0.86986004  1
  O  O251  1  0.24564952  0.12852735  0.48943130  1
  O  O252  1  0.25198056  0.12939460  0.99185452  1
  O  O253  1  0.23990708  0.62659547  0.49556083  1
  O  O254  1  0.23986802  0.63919809  1.00959045  1
  O  O255  1  0.74121266  0.12365868  0.48911559  1
  O  O256  1  0.75304156  0.13451574  0.98476755  1
  O  O257  1  0.75872243  0.64018617  0.49814682  1
  O  O258  1  0.74002607  0.62644245  0.99224782  1
  O  O259  1  0.25918641  0.36435903  0.01482409  1
  O  O260  1  0.25116301  0.36543526  0.50771072  1
  O  O261  1  0.24999503  0.86387232  0.00934012  1
  O  O262  1  0.25814398  0.87326831  0.50016570  1
  O  O263  1  0.75238949  0.37439639  0.00519591  1
  O  O264  1  0.75745903  0.37956910  0.50594577  1
  O  O265  1  0.76361663  0.87359594  0.00642265  1
  O  O266  1  0.76144564  0.86566790  0.49709173  1
  O  O267  1  0.13076184  0.49157911  0.24465485  1
  O  O268  1  0.08558700  0.48997621  0.73883605  1
  O  O269  1  0.11950498  0.98936081  0.25290980  1
  O  O270  1  0.09534633  0.99165941  0.72442663  1
  O  O271  1  0.63316908  0.49831668  0.24255428  1
  O  O272  1  0.61887424  0.49104852  0.74468411  1
  O  O273  1  0.62558843  0.99128338  0.23820666  1
  O  O274  1  0.63746259  0.99852622  0.74745726  1
  O  O275  1  0.38185544  0.01198187  0.24899626  1
  O  O276  1  0.38684393  -0.01655780  0.74166014  1
  O  O277  1  0.37264557  0.50717642  0.25480048  1
  O  O278  1  0.37563490  0.51470138  0.74986496  1
  O  O279  1  0.87967136  0.00822224  0.26243648  1
  O  O280  1  0.87297751  0.00815207  0.75230071  1
  O  O281  1  0.86881766  0.50410981  0.25211408  1
  O  O282  1  0.87913656  0.50559130  0.76298479  1
  O  O283  1  0.11214636  0.37963096  0.37146875  1
  O  O284  1  0.11755359  0.37056337  0.87625399  1
  O  O285  1  0.11897497  0.86799623  0.36836675  1
  O  O286  1  0.11556619  0.86844135  0.88104436  1
  O  O287  1  0.61299519  0.37815084  0.37329796  1
  O  O288  1  0.62934264  0.36813681  0.86286874  1
  O  O289  1  0.61916873  0.86713770  0.36710274  1
  O  O290  1  0.62758551  0.87783256  0.86995280  1
  O  O291  1  0.38295037  0.12884544  0.13422564  1
  O  O292  1  0.38241995  0.13284565  0.62100697  1
  O  O293  1  0.38049902  0.62281224  0.13093679  1
  O  O294  1  0.37432750  0.63405331  0.62375572  1
  O  O295  1  0.84212857  0.12686219  0.15286639  1
  O  O296  1  0.87127705  0.13624903  0.63307559  1
  O  O297  1  0.87493676  0.63352922  0.12852692  1
  O  O298  1  0.88769358  0.63624657  0.62361198  1
  O  O299  1  0.25795980  0.25405280  0.13121511  1
  O  O300  1  0.25507285  0.24892503  0.61746576  1
  O  O301  1  0.24919708  0.76106848  0.11777490  1
  O  O302  1  0.23569761  0.76518053  0.61791765  1
  O  O303  1  0.75523314  0.25452813  0.11457371  1
  O  O304  1  0.76189090  0.25885610  0.63298341  1
  O  O305  1  0.76207490  0.76147164  0.12445490  1
  O  O306  1  0.76540753  0.75056978  0.61934841  1
  O  O307  1  0.25506000  0.24928912  0.38829164  1
  O  O308  1  0.22717563  0.24599380  0.87327692  1
  O  O309  1  0.23589890  0.74772330  0.37337061  1
  O  O310  1  0.24007449  0.76198099  0.88275874  1
  O  O311  1  0.75258894  0.24565610  0.37893000  1
  O  O312  1  0.74180280  0.24668599  0.87465542  1
  O  O313  1  0.74093479  0.74892040  0.38441596  1
  O  O314  1  0.75873783  0.73528765  0.87651941  1
  O  O315  1  -0.06717958  0.14580597  0.04066832  1
  O  O316  1  0.00799049  0.11828722  0.48923842  1
  O  O317  1  0.01683707  0.62943865  0.00435180  1
  O  O318  1  0.00339270  0.61944747  0.50281298  1
  O  O319  1  0.50581672  0.12902794  0.01776710  1
  O  O320  1  0.50522255  0.11725883  0.50870859  1
  O  O321  1  0.50515522  0.62069923  0.00356705  1
  O  O322  1  0.49831426  0.61808598  0.49838455  1
  O  O323  1  0.49605549  0.37975306  0.49380540  1
  O  O324  1  0.48582612  0.37515176  1.00861025  1
  O  O325  1  0.49032226  0.88386372  0.48664004  1
  O  O326  1  0.50763882  0.87214583  0.98916365  1
  O  O327  1  0.99480269  0.38154898  0.49565786  1
  O  O328  1  0.98850597  0.37298612  0.99284723  1
  O  O329  1  0.98810653  0.88057650  0.49087925  1
  O  O330  1  0.99050225  0.86913918  0.99076597  1
  O  O331  1  0.49543706  0.49439637  0.38386468  1
  O  O332  1  0.47405253  0.49628244  0.87431957  1
  O  O333  1  0.51054084  0.99196680  0.38347449  1
  O  O334  1  0.50786944  0.98658866  0.88156166  1
  O  O335  1  0.99297358  0.49319396  0.38294210  1
  O  O336  1  0.99212240  0.49230970  0.87998499  1
  O  O337  1  0.98839048  0.99554841  0.38321441  1
  O  O338  1  0.99259050  0.99285889  0.86522515  1
  O  O339  1  0.01744281  0.00100793  0.12291823  1
  O  O340  1  0.00029164  -0.00340068  0.60492761  1
  O  O341  1  0.01450378  0.49540366  0.12933600  1
  O  O342  1  -0.01087954  0.51251433  0.60686812  1
  O  O343  1  0.51228383  0.00780724  0.12523601  1
  O  O344  1  0.50945864  0.00300802  0.61784682  1
  O  O345  1  0.51232493  0.50297209  0.12728956  1
  O  O346  1  0.49874135  0.49652229  0.60935429  1
  O  O347  1  0.24728559  0.37593401  0.24397641  1
  O  O348  1  0.24945662  0.36929692  0.73511056  1
  O  O349  1  0.23878857  0.86939304  0.24002498  1
  O  O350  1  0.24722292  0.87517669  0.73243534  1
  O  O351  1  0.75163100  0.38003088  0.24224205  1
  O  O352  1  0.74102130  0.38123168  0.74189660  1
  O  O353  1  0.74006267  0.87114830  0.24273211  1
  O  O354  1  0.74580354  0.88805329  0.75999376  1
  O  O355  1  0.25799093  0.12824492  0.26713862  1
  O  O356  1  0.20977583  0.10725861  0.76484459  1
  O  O357  1  0.25783568  0.61824935  0.24965672  1
  O  O358  1  0.26635552  0.62188734  0.74047577  1
  O  O359  1  0.75075303  0.12906308  0.27357667  1
  O  O360  1  0.75995680  0.12260944  0.75827494  1
  O  O361  1  0.75784903  0.61920198  0.25026412  1
  O  O362  1  0.75565050  0.62144482  0.75875064  1
  O  O363  1  0.36205968  0.12592369  0.37098836  1
  O  O364  1  0.37906435  0.12381613  0.86582254  1
  O  O365  1  0.37468282  0.61314160  0.36533928  1
  O  O366  1  0.36452150  0.61619427  0.88018380  1
  O  O367  1  0.86083446  0.12054022  0.37334955  1
  O  O368  1  0.87331662  0.11999496  0.86622997  1
  O  O369  1  0.87367218  0.61819459  0.36649835  1
  O  O370  1  0.87117812  0.61773818  0.87995670  1
  O  O371  1  0.13349686  0.37906420  0.13169590  1
  O  O372  1  0.13957206  0.36875262  0.62607289  1
  O  O373  1  0.12879084  0.88487158  0.13101338  1
  O  O374  1  0.13646949  0.88645763  0.60710123  1
  O  O375  1  0.63069834  0.38182852  0.12737057  1
  O  O376  1  0.63570112  0.36953296  0.63152446  1
  O  O377  1  0.63524433  0.88038273  0.13099722  1
  O  O378  1  0.63311426  0.88975499  0.64390381  1
  O  O379  1  0.11245278  0.25313319  0.24793079  1
  O  O380  1  0.11075623  0.25304112  0.75938253  1
  O  O381  1  0.11794322  0.75524956  0.25409260  1
  O  O382  1  0.11887815  0.74566889  0.75901416  1
  O  O383  1  0.61319748  0.24943443  0.24683037  1
  O  O384  1  0.61615178  0.25761352  0.75481876  1
  O  O385  1  0.62133075  0.75747065  0.25466202  1
  O  O386  1  0.63538456  0.76725926  0.75257973  1
  O  O387  1  0.38519090  0.24163861  0.24346320  1
  O  O388  1  0.38436734  0.25189434  0.74471268  1
  O  O389  1  0.38002948  0.73655566  0.25053990  1
  O  O390  1  0.37245707  0.73927790  0.75118909  1
  O  O391  1  0.88477532  0.24168639  0.24345929  1
  O  O392  1  0.88039758  0.24409090  0.74636130  1
  O  O393  1  0.87850624  0.74509960  0.24384684  1
  O  O394  1  0.88322494  0.74994600  0.74167161  1
  O  O395  1  0.38505027  0.49963787  0.49120254  1
  O  O396  1  0.37432958  0.48027318  1.00434874  1
  O  O397  1  0.38895147  0.99260552  0.50287201  1
  O  O398  1  0.38552217  0.99254066  0.99829667  1
  O  O399  1  0.87960044  0.49137550  0.49364379  1
  O  O400  1  0.86932422  0.49123086  0.99551225  1
  O  O401  1  0.87621056  0.99528212  0.49465694  1
  O  O402  1  0.87577743  0.99101385  0.98610198  1
  O  O403  1  0.12452604  -0.00536727  0.00516505  1
  O  O404  1  0.11349228  0.00704857  0.50089316  1
  O  O405  1  0.13629743  0.50749667  0.00932418  1
  O  O406  1  0.11522675  0.51300221  0.49217814  1
  O  O407  1  0.62829372  0.00436238  0.01422930  1
  O  O408  1  0.61752316  0.00319264  0.51011536  1
  O  O409  1  0.62016987  0.50639795  0.00701943  1
  O  O410  1  0.60942794  0.50286026  0.50205955  1
  O  O411  1  0.36835133  0.36585980  0.12703675  1
  O  O412  1  0.36538224  0.36081923  0.62412322  1
  O  O413  1  0.36639636  0.87128043  0.12735656  1
  O  O414  1  0.35413220  0.87839217  0.60996163  1
  O  O415  1  0.87172087  0.36585826  0.11616839  1
  O  O416  1  0.86028960  0.37203282  0.61712640  1
  O  O417  1  0.87316180  0.87346671  0.11979755  1
  O  O418  1  0.88206033  0.86918293  0.61576547  1
  O  O419  1  0.13910196  0.12145467  0.38309827  1
  O  O420  1  0.09721186  0.14272571  0.89035930  1
  O  O421  1  0.12340421  0.63213217  0.37792923  1
  O  O422  1  0.12640087  0.63470509  0.88372096  1
  O  O423  1  0.63597195  0.12539787  0.38526637  1
  O  O424  1  0.63580056  0.13335377  0.87456920  1
  O  O425  1  0.62413816  0.64029001  0.36834017  1
  O  O426  1  0.63178551  0.61443895  0.88233429  1
