# generated using pymatgen
data_V85Zn86O256
_symmetry_space_group_name_H-M   'P 1'
_cell_length_a   16.94161192
_cell_length_b   16.93317567
_cell_length_c   16.94922578
_cell_angle_alpha   90.00129715
_cell_angle_beta   89.97647598
_cell_angle_gamma   90.03490935
_symmetry_Int_Tables_number   1
_chemical_formula_structural   V85Zn86O256
_chemical_formula_sum   'V85 Zn86 O256'
_cell_volume   4862.31275890
_cell_formula_units_Z   1
loop_
 _symmetry_equiv_pos_site_id
 _symmetry_equiv_pos_as_xyz
  1  'x, y, z'
loop_
 _atom_site_type_symbol
 _atom_site_label
 _atom_site_symmetry_multiplicity
 _atom_site_fract_x
 _atom_site_fract_y
 _atom_site_fract_z
 _atom_site_occupancy
  V  V0  1  0.62307439  0.75241655  0.87461580  1
  V  V1  1  0.00675182  0.87889372  0.37601618  1
  V  V2  1  0.50421948  0.12680852  0.61986318  1
  V  V3  1  0.62820448  0.62991670  -0.00050783  1
  V  V4  1  0.04241717  0.27152638  0.21106222  1
  V  V5  1  -0.00500654  0.49734533  0.02012904  1
  V  V6  1  0.25046590  0.22756154  0.49384723  1
  V  V7  1  0.49682037  0.87493233  0.38097932  1
  V  V8  1  0.17902160  0.42080070  0.78981167  1
  V  V9  1  0.49553235  0.37634476  0.87644028  1
  V  V10  1  0.38049835  0.13289919  0.25484816  1
  V  V11  1  0.62559965  0.24551683  0.39232602  1
  V  V12  1  0.50310960  0.13492473  0.12590085  1
  V  V13  1  0.87567146  0.00416716  0.37474696  1
  V  V14  1  0.74756066  0.12708252  0.39066407  1
  V  V15  1  0.62285793  0.37873296  0.75074544  1
  V  V16  1  0.48902600  0.75611643  0.75760180  1
  V  V17  1  0.50170189  0.62446562  0.13181417  1
  V  V18  1  0.37100846  0.75196287  0.61090855  1
  V  V19  1  0.75001691  0.75008546  0.50090623  1
  V  V20  1  0.25112350  0.87204250  0.61127695  1
  V  V21  1  0.12702437  0.00502947  0.62310136  1
  V  V22  1  0.37756503  -0.00537459  0.87438577  1
  V  V23  1  0.75271476  0.63047905  0.87903667  1
  V  V24  1  0.49953422  -0.00212455  0.50179211  1
  V  V25  1  0.62255711  0.50192151  0.62634376  1
  V  V26  1  0.49772778  0.75070679  0.25208571  1
  V  V27  1  0.74974317  0.50213987  0.75241432  1
  V  V28  1  0.25041061  0.00731893  0.25365428  1
  V  V29  1  0.37149761  0.50210668  0.35962831  1
  V  V30  1  0.37564275  0.74823337  0.12981330  1
  V  V31  1  0.13156075  0.73945794  0.87753559  1
  V  V32  1  0.74679786  0.49830406  0.24797311  1
  V  V33  1  -0.00098329  0.75110831  0.25483272  1
  V  V34  1  0.49906817  0.37046808  0.36957688  1
  V  V35  1  0.12857852  0.87521924  0.75087225  1
  V  V36  1  0.85725911  0.24506913  0.12330647  1
  V  V37  1  0.50204814  0.00036564  -0.00322520  1
  V  V38  1  0.62425350  0.75185999  0.37660011  1
  V  V39  1  0.37944895  0.87541514  -0.00130307  1
  V  V40  1  0.74955489  0.37079051  0.61933397  1
  V  V41  1  0.36361262  0.25192153  0.12162504  1
  V  V42  1  0.12821181  0.24505909  0.87167890  1
  V  V43  1  0.37595798  0.12393985  0.74992604  1
  V  V44  1  0.00439378  0.00261169  0.00090059  1
  V  V45  1  0.62306043  0.62552336  0.50195164  1
  V  V46  1  0.86934304  0.12443981  0.75625715  1
  V  V47  1  0.00344808  0.62464171  0.61998132  1
  V  V48  1  0.37342850  0.00221885  0.37788777  1
  V  V49  1  0.24861090  0.37305320  0.61197451  1
  V  V50  1  0.11864061  0.23765004  0.38543036  1
  V  V51  1  0.00056601  0.75001694  0.75113147  1
  V  V52  1  0.36776135  0.37289213  0.00324827  1
  V  V53  1  -0.00580241  0.39097206  0.86600550  1
  V  V54  1  0.25105428  0.63625723  0.36670687  1
  V  V55  1  0.49383277  0.50164543  0.49717161  1
  V  V56  1  0.25300843  0.12650005  0.88424526  1
  V  V57  1  0.75191274  0.00472926  0.25085294  1
  V  V58  1  0.62413217  0.00044315  0.12584353  1
  V  V59  1  0.12698152  0.87400486  0.25222531  1
  V  V60  1  0.87626401  0.36975280  0.49510792  1
  V  V61  1  0.00321435  0.12849101  0.62390824  1
  V  V62  1  0.75028946  0.87213689  0.11998816  1
  V  V63  1  0.49102208  0.62401540  0.63314185  1
  V  V64  1  0.62483245  0.36090946  0.24772786  1
  V  V65  1  0.00232214  0.25577153  0.74853748  1
  V  V66  1  0.50147366  0.25055241  0.75090629  1
  V  V67  1  0.23030442  0.49015571  0.24024106  1
  V  V68  1  0.87361610  0.74831313  0.12098549  1
  V  V69  1  0.74839559  0.87484247  0.63026970  1
  V  V70  1  0.13288997  0.63936212  0.49317872  1
  V  V71  1  0.63789841  0.24790134  0.87775853  1
  V  V72  1  0.75249842  0.62362801  0.37570279  1
  V  V73  1  0.87571257  0.74848566  0.62524467  1
  V  V74  1  0.87943159  0.61866300  0.75398769  1
  V  V75  1  0.00055116  0.87507596  0.87963425  1
  V  V76  1  0.63895756  0.12655783  -0.00500523  1
  V  V77  1  0.86191863  0.37240661  -0.00928415  1
  V  V78  1  0.25113564  0.87690141  0.12637609  1
  V  V79  1  0.49502463  0.50235204  -0.00201839  1
  V  V80  1  0.62660564  0.00238950  0.62366430  1
  V  V81  1  0.25163370  0.74108190  -0.00211177  1
  V  V82  1  0.00372992  0.00616325  0.49938731  1
  V  V83  1  0.87653829  0.87650447  0.50090664  1
  V  V84  1  0.13058624  0.49557398  0.61149325  1
  Zn  Zn85  1  0.88534585  0.13511798  0.25413098  1
  Zn  Zn86  1  0.13517278  0.60590352  0.01353591  1
  Zn  Zn87  1  -0.00015004  0.12528299  0.12352581  1
  Zn  Zn88  1  0.00009684  0.50092056  0.49202844  1
  Zn  Zn89  1  0.74249711  0.37445725  0.11635498  1
  Zn  Zn90  1  0.37461936  0.24943250  0.62188822  1
  Zn  Zn91  1  0.12737389  0.13181158  0.00446474  1
  Zn  Zn92  1  0.29557665  0.57785690  0.80698058  1
  Zn  Zn93  1  0.12514466  0.00491153  0.12568535  1
  Zn  Zn94  1  0.87515422  0.62313091  0.25030911  1
  Zn  Zn95  1  0.62477966  0.49801535  0.12472479  1
  Zn  Zn96  1  0.00310385  0.62158563  0.13499600  1
  Zn  Zn97  1  0.86973535  0.00451388  0.88041464  1
  Zn  Zn98  1  0.87697588  0.49640686  0.37396707  1
  Zn  Zn99  1  0.01324343  0.37589412  0.36887004  1
  Zn  Zn100  1  0.25066290  -0.00042535  0.75018868  1
  Zn  Zn101  1  0.37450280  0.37063216  0.49499400  1
  Zn  Zn102  1  0.74338454  0.00608530  0.75795353  1
  Zn  Zn103  1  0.62626037  0.87753426  0.25187214  1
  Zn  Zn104  1  0.87512030  0.87167066  -0.00118058  1
  Zn  Zn105  1  0.87025456  0.24813888  0.62281506  1
  Zn  Zn106  1  0.62134223  0.87667347  0.75728226  1
  Zn  Zn107  1  0.19104357  0.18554507  0.18857857  1
  Zn  Zn108  1  0.18945129  0.19047531  0.68824405  1
  Zn  Zn109  1  0.18404216  0.68629752  0.18903937  1
  Zn  Zn110  1  0.19079529  0.68547922  0.68475771  1
  Zn  Zn111  1  0.69016965  0.18489586  0.18858126  1
  Zn  Zn112  1  0.68572315  0.18935230  0.68813597  1
  Zn  Zn113  1  0.68656794  0.68884850  0.18944849  1
  Zn  Zn114  1  0.68355085  0.68804543  0.69191268  1
  Zn  Zn115  1  0.30492163  0.31233769  0.31301950  1
  Zn  Zn116  1  0.31915988  0.30691997  0.81591923  1
  Zn  Zn117  1  0.31561162  0.81735562  0.31424074  1
  Zn  Zn118  1  0.31228354  0.81106960  0.81104211  1
  Zn  Zn119  1  0.80657975  0.31057560  0.31332629  1
  Zn  Zn120  1  0.81575494  0.31376320  0.80658949  1
  Zn  Zn121  1  0.81496708  0.81567371  0.31046550  1
  Zn  Zn122  1  0.81338394  0.81170148  0.81376999  1
  Zn  Zn123  1  0.18756819  0.43575254  0.42789379  1
  Zn  Zn124  1  0.17953928  0.42920331  0.95625809  1
  Zn  Zn125  1  0.18753208  0.94574365  0.43777052  1
  Zn  Zn126  1  0.18934655  0.93601040  0.93794236  1
  Zn  Zn127  1  0.68622205  0.43653125  0.43722919  1
  Zn  Zn128  1  0.67999862  0.44659205  0.93141262  1
  Zn  Zn129  1  0.68553834  0.93963149  0.44108921  1
  Zn  Zn130  1  0.68961406  0.93769509  0.93745457  1
  Zn  Zn131  1  0.31413468  0.06379134  0.06616319  1
  Zn  Zn132  1  0.31791322  0.05600586  0.56643588  1
  Zn  Zn133  1  0.31742455  0.56169843  0.06871433  1
  Zn  Zn134  1  0.31081534  0.56276584  0.55977563  1
  Zn  Zn135  1  0.81678752  0.05633801  0.06122064  1
  Zn  Zn136  1  0.81665062  0.06163670  0.56888271  1
  Zn  Zn137  1  0.81496956  0.56115934  0.06351824  1
  Zn  Zn138  1  0.81472113  0.55756393  0.56209543  1
  Zn  Zn139  1  0.43879499  0.43487446  0.18680015  1
  Zn  Zn140  1  0.42386846  0.43803516  0.68819690  1
  Zn  Zn141  1  0.43953223  0.93911970  0.18920968  1
  Zn  Zn142  1  0.43657475  0.93407269  0.68600091  1
  Zn  Zn143  1  0.92547515  0.42655268  0.18946228  1
  Zn  Zn144  1  0.93917485  0.44033629  0.67893139  1
  Zn  Zn145  1  0.93641128  0.93941671  0.18668479  1
  Zn  Zn146  1  0.93952810  0.93984477  0.68997581  1
  Zn  Zn147  1  0.06258921  0.07516215  0.30613346  1
  Zn  Zn148  1  0.06004895  0.06286902  0.81120130  1
  Zn  Zn149  1  0.06387910  0.56180209  0.31540208  1
  Zn  Zn150  1  0.08965719  0.57681293  0.80352350  1
  Zn  Zn151  1  0.56335028  0.06600950  0.31283992  1
  Zn  Zn152  1  0.56374970  0.06313574  0.81257003  1
  Zn  Zn153  1  0.56528974  0.56094134  0.31196650  1
  Zn  Zn154  1  0.45597982  0.56169315  0.81387013  1
  Zn  Zn155  1  0.43975132  0.18756875  0.43834125  1
  Zn  Zn156  1  0.44313493  0.18768860  0.93940807  1
  Zn  Zn157  1  0.43185015  0.68441930  0.43666365  1
  Zn  Zn158  1  0.43352503  0.68552752  0.93939144  1
  Zn  Zn159  1  0.93364159  0.18935141  0.44206006  1
  Zn  Zn160  1  0.93924932  0.19280219  0.93616677  1
  Zn  Zn161  1  0.94025635  0.68864754  0.43580115  1
  Zn  Zn162  1  0.94012293  0.68451899  0.93850826  1
  Zn  Zn163  1  0.05054707  0.30813721  0.04676830  1
  Zn  Zn164  1  0.06483188  0.31052471  0.55577176  1
  Zn  Zn165  1  0.06636893  0.80557307  0.06812484  1
  Zn  Zn166  1  0.06450397  0.81464539  0.56254581  1
  Zn  Zn167  1  0.56287975  0.31072079  0.05924220  1
  Zn  Zn168  1  0.55947647  0.31667553  0.56257999  1
  Zn  Zn169  1  0.56382924  0.81374839  0.06210782  1
  Zn  Zn170  1  0.56033893  0.81315337  0.56570339  1
  O  O171  1  0.12337091  0.12382162  0.12079601  1
  O  O172  1  0.11778555  0.11521219  0.63469139  1
  O  O173  1  0.11047268  0.65306483  0.11245541  1
  O  O174  1  0.12501504  0.61771707  0.60985515  1
  O  O175  1  0.61960321  0.11967368  0.11899051  1
  O  O176  1  0.61651677  0.11590219  0.63208632  1
  O  O177  1  0.61852532  0.62707294  0.11806535  1
  O  O178  1  0.61538654  0.62153977  0.61982205  1
  O  O179  1  0.38360472  0.38110410  0.37355870  1
  O  O180  1  0.38798479  0.36755857  0.88525533  1
  O  O181  1  0.38900030  0.88623547  0.37119424  1
  O  O182  1  0.37148674  0.88674485  0.88176031  1
  O  O183  1  0.87054226  0.37199584  0.38741570  1
  O  O184  1  0.87979425  0.37369236  0.88253955  1
  O  O185  1  0.88414277  0.88428894  0.38056513  1
  O  O186  1  0.89126575  0.86909063  0.87533827  1
  O  O187  1  0.26489630  -0.00434224  0.36962234  1
  O  O188  1  0.25951771  0.00667865  0.87136112  1
  O  O189  1  0.25647044  0.50692436  0.36384910  1
  O  O190  1  0.23031133  0.47689570  0.85725218  1
  O  O191  1  0.75358778  0.00509377  0.37050749  1
  O  O192  1  0.75819325  -0.01154684  0.86781800  1
  O  O193  1  0.74822478  0.50926414  0.36960695  1
  O  O194  1  0.74354373  0.51300654  0.85916317  1
  O  O195  1  0.24922462  0.51030797  0.14182573  1
  O  O196  1  0.24028191  0.49106878  0.61916648  1
  O  O197  1  0.25325797  0.99369371  0.13566252  1
  O  O198  1  0.24443183  0.99173423  0.62896823  1
  O  O199  1  0.74515475  0.49804376  0.13370405  1
  O  O200  1  0.74362138  0.49577160  0.63325404  1
  O  O201  1  0.74670337  0.99401104  0.13394825  1
  O  O202  1  0.74253879  0.99233482  0.62887882  1
  O  O203  1  -0.00902019  0.35126239  0.25256375  1
  O  O204  1  -0.01267251  0.36494059  0.75227474  1
  O  O205  1  0.00738689  0.87615697  0.25849374  1
  O  O206  1  0.00971702  0.87066735  0.75511332  1
  O  O207  1  0.51007282  0.38096384  0.26299094  1
  O  O208  1  0.50160354  0.37117271  0.75641282  1
  O  O209  1  0.50393637  0.86875116  0.25878789  1
  O  O210  1  0.50144241  0.85953907  0.74704673  1
  O  O211  1  0.49078160  0.11665467  0.23827243  1
  O  O212  1  0.49227976  0.12883757  0.74343757  1
  O  O213  1  0.50714366  0.63326858  0.24021134  1
  O  O214  1  0.50374126  0.63764003  0.73617855  1
  O  O215  1  1.00310050  0.15364259  0.24165244  1
  O  O216  1  0.99303108  0.13362264  0.74245132  1
  O  O217  1  0.99810002  0.63737792  0.25503643  1
  O  O218  1  0.99710157  0.62960401  0.74331139  1
  O  O219  1  0.38216596  0.25558140  0.01311170  1
  O  O220  1  0.36349059  0.24834374  0.50023485  1
  O  O221  1  0.37161193  0.75898281  0.00675312  1
  O  O222  1  0.38002557  0.75510655  0.51242528  1
  O  O223  1  0.87482134  0.26398727  0.00341334  1
  O  O224  1  0.87128779  0.26410577  0.50542649  1
  O  O225  1  0.88404391  0.75155118  0.01647285  1
  O  O226  1  0.87031584  0.75645674  0.50564474  1
  O  O227  1  0.14015924  0.24371195  0.49679316  1
  O  O228  1  0.11950637  0.24980179  0.97755129  1
  O  O229  1  0.12627993  0.73809348  0.50269211  1
  O  O230  1  0.14207119  0.76738577  0.98978997  1
  O  O231  1  0.62503840  0.25331184  0.49071564  1
  O  O232  1  0.62135326  0.23955466  0.98959628  1
  O  O233  1  0.62945852  0.74535678  0.49659498  1
  O  O234  1  0.61618358  0.73772345  0.99346209  1
  O  O235  1  0.49718671  0.23732789  0.12330539  1
  O  O236  1  0.50074603  0.24261653  0.63062436  1
  O  O237  1  0.49643564  0.74703532  0.13407158  1
  O  O238  1  0.48844329  0.74585909  0.63190431  1
  O  O239  1  0.97825760  0.24771348  0.12115511  1
  O  O240  1  1.00185826  0.24388812  0.63072179  1
  O  O241  1  0.98937062  0.75965991  0.14180983  1
  O  O242  1  0.99703889  0.74485485  0.63063868  1
  O  O243  1  0.01398073  0.25077405  0.38881545  1
  O  O244  1  0.00577017  0.26138721  0.86460183  1
  O  O245  1  -0.00684590  0.76473716  0.36468270  1
  O  O246  1  0.00824932  0.75600574  0.87155783  1
  O  O247  1  0.51231883  0.25765936  0.37896213  1
  O  O248  1  0.50658460  0.25655672  0.86837761  1
  O  O249  1  0.50027099  0.75559971  0.37098609  1
  O  O250  1  0.50387191  0.74345653  0.86227751  1
  O  O251  1  0.25474193  0.12929212  0.50342498  1
  O  O252  1  0.25117227  0.12063425  0.98729485  1
  O  O253  1  0.23949445  0.62269505  0.48793810  1
  O  O254  1  0.25154096  0.63736186  1.00629582  1
  O  O255  1  0.75313123  0.11620611  0.48987355  1
  O  O256  1  0.73734192  0.11464651  1.00148625  1
  O  O257  1  0.74427981  0.62888565  0.49522611  1
  O  O258  1  0.74292209  0.61760499  0.99023530  1
  O  O259  1  0.26775430  0.37780329  -0.00051042  1
  O  O260  1  0.25413145  0.37137574  0.50453899  1
  O  O261  1  0.26401156  0.87300619  0.00645267  1
  O  O262  1  0.24400310  0.87730581  0.51209497  1
  O  O263  1  0.75936372  0.38515590  -0.00747584  1
  O  O264  1  0.75917533  0.38347849  0.50909012  1
  O  O265  1  0.75266587  0.87737532  0.01661735  1
  O  O266  1  0.75540221  0.87153389  0.51028843  1
  O  O267  1  0.13031484  0.49505457  0.24980367  1
  O  O268  1  0.11819334  0.48228006  0.73488088  1
  O  O269  1  0.13456218  0.99525005  0.25253709  1
  O  O270  1  0.12477544  0.99199060  0.74105684  1
  O  O271  1  0.63434602  0.49022562  0.25139606  1
  O  O272  1  0.63380787  0.49371583  0.74058748  1
  O  O273  1  0.63211121  1.00043797  0.24353123  1
  O  O274  1  0.62308782  0.99508466  0.74005224  1
  O  O275  1  0.37092291  0.00704215  0.25772914  1
  O  O276  1  0.37820971  0.00497815  0.75891638  1
  O  O277  1  0.37903932  0.50277152  0.25866321  1
  O  O278  1  0.37531004  0.51630601  0.74738977  1
  O  O279  1  0.86967242  0.00768400  0.25675674  1
  O  O280  1  0.87801543  0.01596123  0.75003592  1
  O  O281  1  0.86005993  0.49847998  0.25306110  1
  O  O282  1  0.86831227  0.51301674  0.74097655  1
  O  O283  1  0.12601727  0.35321104  0.38263024  1
  O  O284  1  0.12135652  0.36826107  0.86407784  1
  O  O285  1  0.11335626  0.88380815  0.37119172  1
  O  O286  1  0.11814752  0.87102349  0.86695471  1
  O  O287  1  0.62064791  0.36374312  0.37096190  1
  O  O288  1  0.61487355  0.36943182  0.87009049  1
  O  O289  1  0.61522029  0.86968107  0.37645987  1
  O  O290  1  0.62867044  0.85722349  0.87844384  1
  O  O291  1  0.38280048  0.13489690  0.12942423  1
  O  O292  1  0.38460134  0.12373179  0.63478708  1
  O  O293  1  0.38671554  0.64095256  0.12099948  1
  O  O294  1  0.37960742  0.63820232  0.61773177  1
  O  O295  1  0.87234776  0.13696854  0.12288038  1
  O  O296  1  0.88464635  0.12766311  0.63471922  1
  O  O297  1  0.87839865  0.63365650  0.13063682  1
  O  O298  1  0.88254113  0.63045032  0.62875814  1
  O  O299  1  0.26541273  0.24558029  0.12214420  1
  O  O300  1  0.24964276  0.25430200  0.61128289  1
  O  O301  1  0.26040279  0.75655404  0.12193261  1
  O  O302  1  0.26296661  0.75468260  0.62911479  1
  O  O303  1  0.75344966  0.25037696  0.11491842  1
  O  O304  1  0.74783772  0.26730736  0.63107670  1
  O  O305  1  0.75935041  0.76066882  0.13659312  1
  O  O306  1  0.75319137  0.75506180  0.61955642  1
  O  O307  1  0.24576875  0.24655213  0.38951694  1
  O  O308  1  0.24204615  0.23879355  0.86661958  1
  O  O309  1  0.25770295  0.73586807  0.36855631  1
  O  O310  1  0.24406473  0.75502411  0.88470913  1
  O  O311  1  0.73543399  0.24108543  0.37472950  1
  O  O312  1  0.73647055  0.25657182  0.86684503  1
  O  O313  1  0.74583266  0.74593358  0.38091859  1
  O  O314  1  0.74215194  0.73807490  0.86810750  1
  O  O315  1  0.00260986  0.11635212  -0.00276447  1
  O  O316  1  -0.00628378  0.12075682  0.51583911  1
  O  O317  1  -0.01156725  0.60044573  0.00273589  1
  O  O318  1  0.01242702  0.62630880  0.50147546  1
  O  O319  1  0.50683504  0.11666470  0.00810932  1
  O  O320  1  0.49808319  0.11852890  0.51383026  1
  O  O321  1  0.50576353  0.61962054  0.01059280  1
  O  O322  1  0.50334118  0.61985399  0.50664639  1
  O  O323  1  0.49861480  0.38406896  0.48848454  1
  O  O324  1  0.49691770  0.38287110  0.99384403  1
  O  O325  1  0.50327366  0.88394396  0.49307860  1
  O  O326  1  0.48781145  0.88300171  1.00568574  1
  O  O327  1  0.98464913  0.37624587  0.50217396  1
  O  O328  1  0.98926668  0.38479145  0.98737525  1
  O  O329  1  0.99728644  0.88196697  0.49348417  1
  O  O330  1  1.00357047  0.87937425  0.99241582  1
  O  O331  1  0.49467990  0.49639113  0.38043676  1
  O  O332  1  0.50704388  0.48878540  0.88654779  1
  O  O333  1  0.49861615  0.99433920  0.38307703  1
  O  O334  1  0.49304298  1.00522709  0.88808893  1
  O  O335  1  0.99536700  0.49203981  0.37394650  1
  O  O336  1  1.01172606  0.48957396  0.86434309  1
  O  O337  1  0.99541741  0.99973908  0.37799296  1
  O  O338  1  0.99857541  0.99130764  0.88085322  1
  O  O339  1  0.00183410  0.00298481  0.11645974  1
  O  O340  1  0.00848282  0.00720526  0.62187442  1
  O  O341  1  -0.00663924  0.49543305  0.12249993  1
  O  O342  1  0.01206165  0.50884043  0.61877002  1
  O  O343  1  0.50305862  0.00702275  0.11507465  1
  O  O344  1  0.50434134  0.00402959  0.61954122  1
  O  O345  1  0.50310679  0.50997350  0.12193807  1
  O  O346  1  0.50010556  0.50781171  0.61685088  1
  O  O347  1  0.25420632  0.39188343  0.25039205  1
  O  O348  1  0.24764391  0.36324116  0.73818945  1
  O  O349  1  0.24466628  0.88434764  0.24880040  1
  O  O350  1  0.23810946  0.87506322  0.74523012  1
  O  O351  1  0.73987988  0.38140841  0.24841477  1
  O  O352  1  0.74721753  0.38603606  0.74350034  1
  O  O353  1  0.74851307  0.88888345  0.24699910  1
  O  O354  1  0.74905292  0.87094082  0.73703125  1
  O  O355  1  0.26247524  0.11272431  0.24747032  1
  O  O356  1  0.26513377  0.12367500  0.75406374  1
  O  O357  1  0.24119183  0.61819125  0.26292118  1
  O  O358  1  0.19869993  0.61980688  0.77255211  1
  O  O359  1  0.74942963  0.11335964  0.25907220  1
  O  O360  1  0.76576694  0.12557364  0.74253633  1
  O  O361  1  0.74744007  0.61770049  0.25998975  1
  O  O362  1  0.75857956  0.62054318  0.75326866  1
  O  O363  1  0.38688933  0.11526269  0.36507013  1
  O  O364  1  0.37230287  0.11774516  0.87051825  1
  O  O365  1  0.36024342  0.61624096  0.37922121  1
  O  O366  1  0.37648396  0.61419918  0.87813210  1
  O  O367  1  0.86643248  0.12311306  0.37367629  1
  O  O368  1  0.88147825  0.12711350  0.85938443  1
  O  O369  1  0.86139229  0.62557670  0.37556211  1
  O  O370  1  0.86810581  0.63120083  0.86455258  1
  O  O371  1  0.10543966  0.31773798  0.14717160  1
  O  O372  1  0.13440572  0.38235640  0.61539255  1
  O  O373  1  0.13371242  0.87960407  0.13552959  1
  O  O374  1  0.13076920  0.88008672  0.63294171  1
  O  O375  1  0.62390773  0.37485511  0.13295267  1
  O  O376  1  0.62952976  0.38246379  0.62902265  1
  O  O377  1  0.63201115  0.88132615  0.12790033  1
  O  O378  1  0.63326798  0.88126811  0.62677373  1
  O  O379  1  0.12881510  0.24160026  0.27039153  1
  O  O380  1  0.11405898  0.24715736  0.75699402  1
  O  O381  1  0.11788980  0.76780234  0.25128441  1
  O  O382  1  0.11895692  0.75865911  0.75800712  1
  O  O383  1  0.62849520  0.25850380  0.25626839  1
  O  O384  1  0.61803071  0.25751783  0.75551863  1
  O  O385  1  0.61422883  0.75281177  0.25877428  1
  O  O386  1  0.61231415  0.75155494  0.75733318  1
  O  O387  1  0.37021959  0.23973811  0.24189021  1
  O  O388  1  0.38435884  0.24038126  0.74678558  1
  O  O389  1  0.38837018  0.75591412  0.24371312  1
  O  O390  1  0.38548119  0.75014184  0.74485281  1
  O  O391  1  0.85752252  0.24954368  0.22957855  1
  O  O392  1  0.88289349  0.24058629  0.74516068  1
  O  O393  1  0.88255235  0.74965711  0.24429114  1
  O  O394  1  0.88148881  0.74020909  0.74360768  1
  O  O395  1  0.38495609  0.49981525  0.49140928  1
  O  O396  1  0.38846490  0.49055214  1.01078581  1
  O  O397  1  0.38895437  1.00311000  0.49233699  1
  O  O398  1  0.38144355  0.99530311  0.99491451  1
  O  O399  1  0.87778589  0.48821966  0.49689320  1
  O  O400  1  0.88378258  0.48388365  1.00425091  1
  O  O401  1  0.88317437  0.99379346  0.49683157  1
  O  O402  1  0.88914482  0.99303753  0.99837298  1
  O  O403  1  0.11519675  0.00011516  -0.00035808  1
  O  O404  1  0.11889714  -0.00205961  0.51469475  1
  O  O405  1  0.10324876  0.49322781  0.00538780  1
  O  O406  1  0.12392123  0.50731492  0.50083314  1
  O  O407  1  0.61718106  0.00347333  0.00463009  1
  O  O408  1  0.61492191  -0.00251365  0.51392184  1
  O  O409  1  0.61401746  0.51190367  0.00220986  1
  O  O410  1  0.61265925  0.50474272  0.50399223  1
  O  O411  1  0.38556156  0.35833772  0.12001223  1
  O  O412  1  0.36453076  0.37010656  0.61848225  1
  O  O413  1  0.37324894  0.86689262  0.12025175  1
  O  O414  1  0.36475674  0.86311941  0.62964108  1
  O  O415  1  0.86523239  0.36259436  0.11137356  1
  O  O416  1  0.86554934  0.37569682  0.61508707  1
  O  O417  1  0.86587568  0.86861742  0.12727637  1
  O  O418  1  0.86979599  0.87020972  0.62177573  1
  O  O419  1  0.12421605  0.13587044  0.38178723  1
  O  O420  1  0.13598300  0.12894669  0.87163480  1
  O  O421  1  0.13613617  0.62526316  0.38497675  1
  O  O422  1  0.11080574  0.64121883  0.90059181  1
  O  O423  1  0.62884121  0.13789263  0.37553428  1
  O  O424  1  0.62107833  0.13467096  0.88262772  1
  O  O425  1  0.63333867  0.63140021  0.38170232  1
  O  O426  1  0.63485133  0.63657466  0.88494253  1
