# generated using pymatgen
data_V85Zn86O256
_symmetry_space_group_name_H-M   'P 1'
_cell_length_a   16.91196049
_cell_length_b   16.91359950
_cell_length_c   16.91532379
_cell_angle_alpha   90.01838214
_cell_angle_beta   90.00232687
_cell_angle_gamma   89.99619789
_symmetry_Int_Tables_number   1
_chemical_formula_structural   V85Zn86O256
_chemical_formula_sum   'V85 Zn86 O256'
_cell_volume   4838.49492303
_cell_formula_units_Z   1
loop_
 _symmetry_equiv_pos_site_id
 _symmetry_equiv_pos_as_xyz
  1  'x, y, z'
loop_
 _atom_site_type_symbol
 _atom_site_label
 _atom_site_symmetry_multiplicity
 _atom_site_fract_x
 _atom_site_fract_y
 _atom_site_fract_z
 _atom_site_occupancy
  V  V0  1  0.49097275  0.48609848  0.49543772  1
  V  V1  1  0.75274622  0.12526082  0.87559407  1
  V  V2  1  0.75245183  0.86205030  0.62322343  1
  V  V3  1  0.12002560  0.61745585  0.49740045  1
  V  V4  1  0.12233971  0.50288767  0.13407544  1
  V  V5  1  0.87656044  0.00199818  0.37993340  1
  V  V6  1  0.74727891  0.50091087  0.75248433  1
  V  V7  1  0.25321976  0.37973617  0.62278159  1
  V  V8  1  0.00222051  -0.00544702  -0.00257078  1
  V  V9  1  0.87248856  0.62988961  0.74780615  1
  V  V10  1  0.87657055  0.86954442  0.50307517  1
  V  V11  1  0.12675937  -0.00919207  0.62070837  1
  V  V12  1  0.50316782  0.12561972  0.12754394  1
  V  V13  1  0.12865818  0.12260372  0.49626207  1
  V  V14  1  0.75220667  -0.00304605  0.24155726  1
  V  V15  1  0.87822984  0.37630312  0.00705527  1
  V  V16  1  0.25546746  0.62401877  0.86293770  1
  V  V17  1  0.00219635  0.25150873  0.74892482  1
  V  V18  1  0.37527417  0.12825498  0.25935589  1
  V  V19  1  0.48851540  0.49292053  0.00287869  1
  V  V20  1  0.87630389  0.50277247  0.88084405  1
  V  V21  1  0.50301618  0.00011474  0.49521184  1
  V  V22  1  0.00045661  0.37998024  0.87839264  1
  V  V23  1  0.87409996  0.87353724  0.01105482  1
  V  V24  1  0.87842836  -0.01021377  0.87393081  1
  V  V25  1  0.87725358  0.25076659  0.62340366  1
  V  V26  1  0.25167673  0.62152555  0.36906454  1
  V  V27  1  0.12636623  0.25144944  0.87341126  1
  V  V28  1  0.25286878  0.25024988  0.49228456  1
  V  V29  1  0.12994579  0.38339612  0.75173796  1
  V  V30  1  0.62623273  0.49485598  0.12627370  1
  V  V31  1  0.00086699  0.88141049  0.38024491  1
  V  V32  1  -0.00522391  0.62697528  0.62255821  1
  V  V33  1  0.25305290  0.87472698  0.12518574  1
  V  V34  1  0.25597061  0.38551657  0.12340568  1
  V  V35  1  0.12477995  0.74947439  0.37518864  1
  V  V36  1  -0.00988229  0.74851997  0.24829444  1
  V  V37  1  0.12477648  0.00278603  0.12525167  1
  V  V38  1  0.62992587  -0.00008184  0.61801578  1
  V  V39  1  0.74541945  0.24625871  0.50036413  1
  V  V40  1  0.50245620  -0.00015552  0.00027118  1
  V  V41  1  0.12619566  0.12677957  -0.00089173  1
  V  V42  1  -0.00145761  0.13970215  0.12812395  1
  V  V43  1  0.24843104  0.75189408  0.50670553  1
  V  V44  1  0.37558888  0.12337879  0.74605263  1
  V  V45  1  0.75240962  0.37485435  0.62513396  1
  V  V46  1  0.74835002  0.51793662  0.25563399  1
  V  V47  1  0.37815799  -0.00148717  0.87363950  1
  V  V48  1  0.73929760  0.75584092  0.00089170  1
  V  V49  1  0.87824681  0.13760325  0.24925734  1
  V  V50  1  0.62111200  0.49963505  0.62309493  1
  V  V51  1  0.12175715  0.49979384  0.62363624  1
  V  V52  1  0.49753694  0.62416368  0.12854038  1
  V  V53  1  0.25130797  0.12424731  0.87379222  1
  V  V54  1  0.48655105  0.62401153  0.62426508  1
  V  V55  1  0.00206979  0.12111953  0.61738769  1
  V  V56  1  0.50400303  0.86546506  0.87751827  1
  V  V57  1  0.88401486  0.38008135  0.49875662  1
  V  V58  1  0.75212978  0.37165563  0.13663180  1
  V  V59  1  0.62639988  0.87154722  0.24620194  1
  V  V60  1  -0.00265987  0.37351441  0.36362008  1
  V  V61  1  0.12192456  0.62061040  -0.00402629  1
  V  V62  1  0.87824281  0.12469059  0.75025740  1
  V  V63  1  0.50433855  0.26425317  0.25321182  1
  V  V64  1  0.37015206  0.48538502  0.37078522  1
  V  V65  1  0.87778143  0.51426253  0.37273685  1
  V  V66  1  0.73494888  0.62884278  0.87434566  1
  V  V67  1  0.62386008  0.37184293  0.75421359  1
  V  V68  1  0.12433588  0.87665056  0.25014554  1
  V  V69  1  0.50622152  0.12495549  0.61995760  1
  V  V70  1  0.37568405  0.25299871  0.61941412  1
  V  V71  1  0.62388494  0.26502465  0.37260422  1
  V  V72  1  0.75461677  0.25088187  0.00645518  1
  V  V73  1  0.62673952  0.87016714  0.75139917  1
  V  V74  1  0.74082325  0.12257497  0.37736016  1
  V  V75  1  0.12195684  0.24872136  0.36948857  1
  V  V76  1  -0.00889055  0.62321246  0.12265426  1
  V  V77  1  0.49118083  0.37033107  0.88180130  1
  V  V78  1  0.49370329  0.74706904  0.75025340  1
  V  V79  1  0.25085513  0.00558520  0.25803369  1
  V  V80  1  0.37196175  0.87432196  0.50457328  1
  V  V81  1  0.62621414  0.62476489  0.49229142  1
  V  V82  1  -0.00176286  0.75599334  0.75497954  1
  V  V83  1  0.37570680  0.25289150  0.11704280  1
  V  V84  1  0.25149180  -0.01149626  0.74445897  1
  Zn  Zn85  1  0.75213873  -0.00240373  0.74798514  1
  Zn  Zn86  1  0.37559293  0.87232696  0.00281541  1
  Zn  Zn87  1  0.50211379  0.24636715  0.75112527  1
  Zn  Zn88  1  0.12315956  0.87511723  0.75337018  1
  Zn  Zn89  1  0.24933377  0.74976314  -0.00033024  1
  Zn  Zn90  1  0.61910336  0.62398236  -0.00456083  1
  Zn  Zn91  1  0.50002259  0.86727004  0.37591346  1
  Zn  Zn92  1  0.62668516  0.24870557  0.87688256  1
  Zn  Zn93  1  0.12111568  0.76122179  0.88155905  1
  Zn  Zn94  1  0.25461200  0.25628118  -0.00352932  1
  Zn  Zn95  1  0.62890606  0.74565859  0.37118457  1
  Zn  Zn96  1  0.49605542  0.74805678  0.25340453  1
  Zn  Zn97  1  0.86741040  0.74893010  0.12917659  1
  Zn  Zn98  1  0.36447173  0.49653829  0.86355472  1
  Zn  Zn99  1  0.62858574  0.12493664  0.00050942  1
  Zn  Zn100  1  0.36950260  0.62312763  0.24988152  1
  Zn  Zn101  1  0.62989066  -0.00211980  0.12279519  1
  Zn  Zn102  1  0.37407596  0.74836832  0.12790376  1
  Zn  Zn103  1  0.37277612  0.00167178  0.37821664  1
  Zn  Zn104  1  0.12553201  0.37422424  0.24829177  1
  Zn  Zn105  1  0.36655216  0.75134295  0.63054866  1
  Zn  Zn106  1  0.75741544  0.73814759  0.49546396  1
  Zn  Zn107  1  0.19164961  0.19015881  0.18526357  1
  Zn  Zn108  1  0.18959526  0.18701138  0.68512179  1
  Zn  Zn109  1  0.18159492  0.68913634  0.18779332  1
  Zn  Zn110  1  0.18161687  0.68764329  0.68826159  1
  Zn  Zn111  1  0.68810149  0.18767524  0.19113616  1
  Zn  Zn112  1  0.68964368  0.18479586  0.68799758  1
  Zn  Zn113  1  0.68305968  0.68744480  0.18089643  1
  Zn  Zn114  1  0.67945003  0.68562551  0.68596163  1
  Zn  Zn115  1  0.30882967  0.31170954  0.30454217  1
  Zn  Zn116  1  0.31266357  0.31077957  0.80651781  1
  Zn  Zn117  1  0.31614852  0.81122919  0.31571255  1
  Zn  Zn118  1  0.31242948  0.80871467  0.81894228  1
  Zn  Zn119  1  0.81131116  0.31416374  0.31627205  1
  Zn  Zn120  1  0.81343006  0.31238595  0.81510388  1
  Zn  Zn121  1  0.80641001  0.81046971  0.31737519  1
  Zn  Zn122  1  0.81129780  0.80983894  0.81553891  1
  Zn  Zn123  1  0.18699810  0.43485468  0.43804528  1
  Zn  Zn124  1  0.18891341  0.44411756  0.94315518  1
  Zn  Zn125  1  0.18886829  0.93734711  0.43887051  1
  Zn  Zn126  1  0.18767954  0.93498932  0.93383627  1
  Zn  Zn127  1  0.69339929  0.44148790  0.43872958  1
  Zn  Zn128  1  0.68557359  0.43749433  0.94071833  1
  Zn  Zn129  1  0.68926842  0.93126072  0.43420787  1
  Zn  Zn130  1  0.68792997  0.93770830  0.93610728  1
  Zn  Zn131  1  0.31519561  0.06253443  0.06504879  1
  Zn  Zn132  1  0.31209451  0.06346781  0.56096983  1
  Zn  Zn133  1  0.31079938  0.56435830  0.05741836  1
  Zn  Zn134  1  0.30785868  0.56068128  0.55731074  1
  Zn  Zn135  1  0.81902034  0.06590024  0.06310344  1
  Zn  Zn136  1  0.81321426  0.05922853  0.56045627  1
  Zn  Zn137  1  0.80719164  0.56382690  0.06064378  1
  Zn  Zn138  1  0.81229703  0.55950778  0.56173264  1
  Zn  Zn139  1  0.43399476  0.43987219  0.18941809  1
  Zn  Zn140  1  0.43537621  0.43487304  0.69045140  1
  Zn  Zn141  1  0.43915322  0.93883313  0.19055497  1
  Zn  Zn142  1  0.43987201  0.93524747  0.68444417  1
  Zn  Zn143  1  0.93551771  0.44368441  0.18939962  1
  Zn  Zn144  1  0.93944568  0.44263472  0.69048456  1
  Zn  Zn145  1  0.93919650  0.94331462  0.18953840  1
  Zn  Zn146  1  0.93747925  0.94008207  0.68256426  1
  Zn  Zn147  1  0.06136528  0.06506203  0.31246274  1
  Zn  Zn148  1  0.06384693  0.05908505  0.81046607  1
  Zn  Zn149  1  0.05638079  0.56354208  0.31032557  1
  Zn  Zn150  1  0.06092077  0.56470243  0.81335042  1
  Zn  Zn151  1  0.56533584  0.06446187  0.31021952  1
  Zn  Zn152  1  0.56610377  0.05837639  0.80895495  1
  Zn  Zn153  1  0.55981450  0.55208192  0.31234961  1
  Zn  Zn154  1  0.52935869  0.54760733  0.80045733  1
  Zn  Zn155  1  0.44248711  0.19101912  0.43865294  1
  Zn  Zn156  1  0.44064453  0.18504687  0.93737977  1
  Zn  Zn157  1  0.43855431  0.68571049  0.43588990  1
  Zn  Zn158  1  0.43336566  0.68692196  0.94457441  1
  Zn  Zn159  1  0.93702218  0.18940438  0.43641265  1
  Zn  Zn160  1  0.93824702  0.18884616  0.94006366  1
  Zn  Zn161  1  0.94068462  0.69268823  0.43857054  1
  Zn  Zn162  1  0.93429768  0.68737117  0.93850263  1
  Zn  Zn163  1  0.06673249  0.31744115  0.06014969  1
  Zn  Zn164  1  0.06431130  0.31210608  0.55881182  1
  Zn  Zn165  1  0.06299267  0.81090626  0.06252152  1
  Zn  Zn166  1  0.05860312  0.80784522  0.56394979  1
  Zn  Zn167  1  0.56834215  0.31166131  0.06391123  1
  Zn  Zn168  1  0.56537965  0.31094937  0.56210845  1
  Zn  Zn169  1  0.56285170  0.81239127  0.06749297  1
  Zn  Zn170  1  0.56024251  0.81099965  0.56301756  1
  O  O171  1  0.12129498  0.12149816  0.11860410  1
  O  O172  1  0.11920257  0.12108184  0.61627277  1
  O  O173  1  0.11820776  0.62037414  0.11779889  1
  O  O174  1  0.11860127  0.61693164  0.61837309  1
  O  O175  1  0.61365820  0.12324539  0.12618689  1
  O  O176  1  0.61806582  0.11494611  0.62999347  1
  O  O177  1  0.61771034  0.61140948  0.12189806  1
  O  O178  1  0.61681698  0.61070895  0.61885577  1
  O  O179  1  0.36627503  0.38601337  0.37329881  1
  O  O180  1  0.38728815  0.37402622  0.86889747  1
  O  O181  1  0.37942815  0.87995294  0.38693423  1
  O  O182  1  0.38556983  0.88254224  0.87697676  1
  O  O183  1  0.88127681  0.37955416  0.38161869  1
  O  O184  1  0.87926171  0.38292925  0.88195017  1
  O  O185  1  0.88220307  0.88278724  0.38091854  1
  O  O186  1  0.87188811  0.88658222  0.88251623  1
  O  O187  1  0.24963002  0.00029377  0.36187850  1
  O  O188  1  0.25895570  0.00632535  0.86630183  1
  O  O189  1  0.26192828  0.50581030  0.38562734  1
  O  O190  1  0.24938082  0.51505078  0.87733453  1
  O  O191  1  0.75678640  0.00711508  0.36935706  1
  O  O192  1  0.76019066  0.00770020  0.87366568  1
  O  O193  1  0.75921876  0.49937775  0.36277495  1
  O  O194  1  0.75480606  0.50535226  0.86904732  1
  O  O195  1  0.24382512  0.49146078  0.12169100  1
  O  O196  1  0.23734112  0.49254944  0.62004106  1
  O  O197  1  0.24465427  0.99403824  0.13368426  1
  O  O198  1  0.24052537  1.00650675  0.63362811  1
  O  O199  1  0.74582927  0.49642881  0.13599303  1
  O  O200  1  0.74085036  0.49418870  0.63204226  1
  O  O201  1  0.75201698  1.00748707  0.13787916  1
  O  O202  1  0.74325629  0.99381036  0.62633284  1
  O  O203  1  0.00037503  0.37527434  0.25990165  1
  O  O204  1  0.00678075  0.37001103  0.75667523  1
  O  O205  1  0.00656353  0.87253893  0.25662263  1
  O  O206  1  -0.00868812  0.85763942  0.74297255  1
  O  O207  1  0.49807095  0.36339184  0.24668436  1
  O  O208  1  0.51037394  0.36757984  0.75803727  1
  O  O209  1  0.51242763  0.87682439  0.25347948  1
  O  O210  1  0.50703805  0.86960934  0.75621590  1
  O  O211  1  0.49392510  0.13033281  0.24303749  1
  O  O212  1  0.49482817  0.12364264  0.73909117  1
  O  O213  1  0.50165115  0.61889755  0.23744832  1
  O  O214  1  0.51616210  0.64033001  0.73601851  1
  O  O215  1  0.99094525  0.12072398  0.24058129  1
  O  O216  1  0.99764747  0.13226962  0.74116022  1
  O  O217  1  1.00362168  0.63802074  0.23897409  1
  O  O218  1  0.99075080  0.63014253  0.74385363  1
  O  O219  1  0.37688835  0.24447118  0.01352202  1
  O  O220  1  0.36830595  0.24511817  0.51012501  1
  O  O221  1  0.36815519  0.75461950  0.00909632  1
  O  O222  1  0.36526802  0.75559989  0.50049287  1
  O  O223  1  0.86449560  0.26082735  -0.00439326  1
  O  O224  1  0.86663541  0.25824205  0.50486664  1
  O  O225  1  0.86800832  0.76018233  0.00043617  1
  O  O226  1  0.87491095  0.76382436  0.49951233  1
  O  O227  1  0.13284490  0.24343704  0.49294553  1
  O  O228  1  0.12658480  0.24196423  0.99073168  1
  O  O229  1  0.12913544  0.74243653  0.49455578  1
  O  O230  1  0.12639279  0.73811063  1.00024080  1
  O  O231  1  0.63901900  0.25222996  0.49545825  1
  O  O232  1  0.64060583  0.24663646  0.99833638  1
  O  O233  1  0.62115516  0.73085769  0.50422872  1
  O  O234  1  0.63572085  0.74910891  0.99991938  1
  O  O235  1  0.49663242  0.24502007  0.13110252  1
  O  O236  1  0.49481811  0.24242349  0.62371124  1
  O  O237  1  0.50029508  0.73706402  0.12792789  1
  O  O238  1  0.49507033  0.74126097  0.63062981  1
  O  O239  1  1.00663363  0.23884536  0.12038720  1
  O  O240  1  0.99608666  0.24449589  0.62888854  1
  O  O241  1  0.99682114  0.74428832  0.13271512  1
  O  O242  1  1.00134267  0.73467297  0.63592238  1
  O  O243  1  0.00900488  0.26092093  0.38172366  1
  O  O244  1  0.00604901  0.25698761  0.86895264  1
  O  O245  1  0.00494611  0.76003378  0.36738761  1
  O  O246  1  -0.00101504  0.74195154  0.85863989  1
  O  O247  1  0.51181952  0.24673005  0.36747907  1
  O  O248  1  0.50561878  0.25492372  0.87373825  1
  O  O249  1  0.50887588  0.74812609  0.37161452  1
  O  O250  1  0.49659031  0.75890076  0.87019724  1
  O  O251  1  0.24070059  0.13662093  0.50410190  1
  O  O252  1  0.24384173  0.12409481  0.99266125  1
  O  O253  1  0.23893690  0.63088193  0.49121520  1
  O  O254  1  0.23528287  0.62746263  0.99620222  1
  O  O255  1  0.75913247  0.13457272  0.49045473  1
  O  O256  1  0.75314225  0.13210916  0.99425092  1
  O  O257  1  0.73096738  0.62049352  0.50876683  1
  O  O258  1  0.74572042  0.63427947  0.99014597  1
  O  O259  1  0.24312163  0.37244368  0.01625654  1
  O  O260  1  0.24242848  0.36481573  0.51445101  1
  O  O261  1  0.25164837  0.87947298  0.01211276  1
  O  O262  1  0.25686750  0.86407445  0.49532999  1
  O  O263  1  0.75770133  0.36910559  0.00879342  1
  O  O264  1  0.75975185  0.36857182  0.50697909  1
  O  O265  1  0.75584724  0.86329637  -0.00546727  1
  O  O266  1  0.75831412  0.87465771  0.50821329  1
  O  O267  1  0.12340108  0.50097946  0.23831769  1
  O  O268  1  0.12049021  0.48908628  0.74369276  1
  O  O269  1  0.13189609  0.99866029  0.24509732  1
  O  O270  1  0.13466884  1.00037148  0.74012055  1
  O  O271  1  0.64053244  0.50019664  0.24613252  1
  O  O272  1  0.62491639  0.48866790  0.74191799  1
  O  O273  1  0.63522161  0.99441143  0.24873506  1
  O  O274  1  0.62617065  0.98774022  0.73690857  1
  O  O275  1  0.36895294  0.00982793  0.25290688  1
  O  O276  1  0.37048223  0.00476244  0.75058252  1
  O  O277  1  0.37629041  0.50256833  0.26704765  1
  O  O278  1  0.41995091  0.51345116  0.76589758  1
  O  O279  1  0.86829669  0.00430413  0.26102712  1
  O  O280  1  0.87714322  0.00617727  0.75840356  1
  O  O281  1  0.86351469  0.50017169  0.26291382  1
  O  O282  1  0.86745960  0.50809458  0.75910935  1
  O  O283  1  0.11558264  0.36924771  0.37352776  1
  O  O284  1  0.12227403  0.37433237  0.86919561  1
  O  O285  1  0.11733935  0.87254474  0.37145287  1
  O  O286  1  0.12220698  0.87553492  0.86804343  1
  O  O287  1  0.63343008  0.36440436  0.37812579  1
  O  O288  1  0.62240413  0.37140425  0.86709608  1
  O  O289  1  0.62096280  0.87632594  0.36117435  1
  O  O290  1  0.61592557  0.88180387  0.86408379  1
  O  O291  1  0.38607710  0.13231997  0.13174525  1
  O  O292  1  0.38264871  0.13068309  0.62943120  1
  O  O293  1  0.38205525  0.62067374  0.12877747  1
  O  O294  1  0.38364157  0.62481413  0.61936398  1
  O  O295  1  0.88634523  0.12318861  0.13584838  1
  O  O296  1  0.88395585  0.12786890  0.62803497  1
  O  O297  1  0.88721426  0.62612260  0.11623801  1
  O  O298  1  0.88216990  0.61509864  0.63451676  1
  O  O299  1  0.26008537  0.25749609  0.12010302  1
  O  O300  1  0.25774076  0.25559532  0.61704556  1
  O  O301  1  0.24475722  0.76606736  0.12842944  1
  O  O302  1  0.24763381  0.74301142  0.61181505  1
  O  O303  1  0.74783464  0.25845062  0.11979104  1
  O  O304  1  0.75684126  0.25335078  0.61885784  1
  O  O305  1  0.75205986  0.74357606  0.10622805  1
  O  O306  1  0.74559580  0.75919275  0.62093612  1
  O  O307  1  0.24369563  0.25785016  0.38655446  1
  O  O308  1  0.24574297  0.24371244  0.87524680  1
  O  O309  1  0.24236160  0.74252521  0.38366262  1
  O  O310  1  0.24317509  0.73894855  0.87739595  1
  O  O311  1  0.74546509  0.24348466  0.38203476  1
  O  O312  1  0.75131242  0.24127704  0.88241539  1
  O  O313  1  0.74238635  0.75050704  0.38374616  1
  O  O314  1  0.75275178  0.74067319  0.88702747  1
  O  O315  1  0.00484950  0.11775263  0.00690099  1
  O  O316  1  0.00748823  0.13154143  0.51114874  1
  O  O317  1  0.01117437  0.63096993  0.00731658  1
  O  O318  1  0.00886503  0.63077544  0.50847248  1
  O  O319  1  0.50471800  0.11762675  0.00738127  1
  O  O320  1  0.49692525  0.11778050  0.51270835  1
  O  O321  1  0.50049586  0.61417560  0.01009752  1
  O  O322  1  0.50781091  0.61450572  0.50829373  1
  O  O323  1  0.50218246  0.38777022  0.50334799  1
  O  O324  1  0.50366282  0.37766049  0.99367781  1
  O  O325  1  0.49463352  0.88371697  0.49906892  1
  O  O326  1  0.50204273  0.88122336  0.99325702  1
  O  O327  1  0.98807171  0.37336336  0.49477056  1
  O  O328  1  0.98994183  0.37083265  0.99137674  1
  O  O329  1  0.99371957  0.87131299  0.49064180  1
  O  O330  1  0.99324994  0.88750970  1.00421023  1
  O  O331  1  0.48621422  0.49988637  0.38676743  1
  O  O332  1  0.51224313  0.48378271  0.89319818  1
  O  O333  1  0.50228414  1.00619707  0.38932320  1
  O  O334  1  0.49719179  0.99369777  0.88063327  1
  O  O335  1  0.98518154  0.49264996  0.37036412  1
  O  O336  1  0.98826786  0.49296235  0.86953445  1
  O  O337  1  0.99296326  0.98956007  0.37028316  1
  O  O338  1  0.99026056  1.00944208  0.88555734  1
  O  O339  1  0.00749401  0.00800370  0.11697123  1
  O  O340  1  0.01104141  0.01217012  0.62991781  1
  O  O341  1  0.00712273  0.51089124  0.12886359  1
  O  O342  1  0.01187468  0.50992137  0.62917292  1
  O  O343  1  0.50010354  0.00872500  0.11688648  1
  O  O344  1  0.50780763  0.00557927  0.61598819  1
  O  O345  1  0.50722045  0.49939467  0.12031754  1
  O  O346  1  0.50426940  0.50288911  0.61390429  1
  O  O347  1  0.24322010  0.36944686  0.22952281  1
  O  O348  1  0.24081443  0.37107197  0.73718411  1
  O  O349  1  0.24375897  0.88380973  0.24600182  1
  O  O350  1  0.25289926  0.88596423  0.75088361  1
  O  O351  1  0.75827221  0.38055553  0.23869052  1
  O  O352  1  0.74536728  0.37993554  0.74506833  1
  O  O353  1  0.73973295  0.88510661  0.25324074  1
  O  O354  1  0.74504576  0.87439344  0.74353361  1
  O  O355  1  0.26260180  0.11754263  0.24158129  1
  O  O356  1  0.25730500  0.11855814  0.75442830  1
  O  O357  1  0.24352209  0.62848146  0.26589732  1
  O  O358  1  0.24289192  0.62705422  0.76375965  1
  O  O359  1  0.75799955  0.11833073  0.25857317  1
  O  O360  1  0.76043261  0.12293059  0.75706317  1
  O  O361  1  0.75051620  0.61628361  0.24594677  1
  O  O362  1  0.75356832  0.62249265  0.75381536  1
  O  O363  1  0.37900453  0.12678208  0.36275938  1
  O  O364  1  0.37319673  0.11924839  0.86602260  1
  O  O365  1  0.36464950  0.61558182  0.37687691  1
  O  O366  1  0.35815812  0.62607388  0.87947629  1
  O  O367  1  0.87085679  0.11825756  0.37051337  1
  O  O368  1  0.86801686  0.11906505  0.87220151  1
  O  O369  1  0.88113581  0.61291512  0.38050540  1
  O  O370  1  0.86642726  0.61747212  0.86896721  1
  O  O371  1  0.13000305  0.38584592  0.12633382  1
  O  O372  1  0.12776756  0.38139916  0.63115674  1
  O  O373  1  0.12915649  0.88426138  0.13096461  1
  O  O374  1  0.11753990  0.88775325  0.62667450  1
  O  O375  1  0.63729989  0.38584488  0.12279668  1
  O  O376  1  0.62981247  0.38319395  0.63023957  1
  O  O377  1  0.62289338  0.88048963  0.13979357  1
  O  O378  1  0.63308768  0.88014526  0.62842456  1
  O  O379  1  0.13062362  0.24577052  0.26630413  1
  O  O380  1  0.12206294  0.26029179  0.75323921  1
  O  O381  1  0.11523390  0.75861728  0.25692859  1
  O  O382  1  0.10878156  0.75232240  0.74995756  1
  O  O383  1  0.61709255  0.24786747  0.25994537  1
  O  O384  1  0.62759623  0.26137187  0.74893284  1
  O  O385  1  0.62563623  0.76175405  0.24757143  1
  O  O386  1  0.61564481  0.76423954  0.74318906  1
  O  O387  1  0.38202773  0.24429689  0.24098787  1
  O  O388  1  0.37666998  0.24068715  0.73668686  1
  O  O389  1  0.37674235  0.74326121  0.24708324  1
  O  O390  1  0.38823571  0.75687992  0.74750809  1
  O  O391  1  0.87225315  0.23676582  0.25723839  1
  O  O392  1  0.88092255  0.24574443  0.74309741  1
  O  O393  1  0.88609572  0.76104896  0.24798680  1
  O  O394  1  0.88052352  0.73727511  0.75329474  1
  O  O395  1  0.38525548  0.49937948  0.49335394  1
  O  O396  1  0.38640659  0.49892318  0.99416636  1
  O  O397  1  0.38220796  0.99479453  0.49925606  1
  O  O398  1  0.38817693  1.00045323  0.99419570  1
  O  O399  1  0.86534580  0.49131326  0.48449956  1
  O  O400  1  0.86655056  0.49259824  0.98783230  1
  O  O401  1  0.87288241  0.99172743  0.48635415  1
  O  O402  1  0.88168294  0.99410098  0.99417619  1
  O  O403  1  0.11839081  0.00821288  0.00300875  1
  O  O404  1  0.13249636  0.01016370  0.50776750  1
  O  O405  1  0.12321868  0.51473244  0.01115541  1
  O  O406  1  0.12486336  0.50943471  0.50621896  1
  O  O407  1  0.61579870  0.00220770  0.00173787  1
  O  O408  1  0.61992341  -0.00624795  0.51028840  1
  O  O409  1  0.62093546  0.50132213  0.01205667  1
  O  O410  1  0.61627113  0.50319700  0.50476525  1
  O  O411  1  0.36415199  0.37017193  0.12703952  1
  O  O412  1  0.36645511  0.36645098  0.63030687  1
  O  O413  1  0.36486441  0.87782017  0.12630323  1
  O  O414  1  0.37849007  0.87276044  0.61022173  1
  O  O415  1  0.86966360  0.38359470  0.11365416  1
  O  O416  1  0.87306297  0.37376729  0.61904001  1
  O  O417  1  0.87645899  0.87772139  0.11381377  1
  O  O418  1  0.86519486  0.88356183  0.61473409  1
  O  O419  1  0.11705408  0.13141390  0.38854055  1
  O  O420  1  0.13066014  0.12967857  0.87841801  1
  O  O421  1  0.12603521  0.62686315  0.38219546  1
  O  O422  1  0.12775063  0.62494588  0.88596635  1
  O  O423  1  0.63853579  0.13174573  0.37278927  1
  O  O424  1  0.64075050  0.12347214  0.87277726  1
  O  O425  1  0.61992773  0.61666530  0.39041171  1
  O  O426  1  0.63440679  0.61682345  0.87162026  1
