# generated using pymatgen
data_V85Zn86O256
_symmetry_space_group_name_H-M   'P 1'
_cell_length_a   16.92929171
_cell_length_b   16.93365100
_cell_length_c   16.92073688
_cell_angle_alpha   90.02640259
_cell_angle_beta   89.97155216
_cell_angle_gamma   89.90674881
_symmetry_Int_Tables_number   1
_chemical_formula_structural   V85Zn86O256
_chemical_formula_sum   'V85 Zn86 O256'
_cell_volume   4850.73992447
_cell_formula_units_Z   1
loop_
 _symmetry_equiv_pos_site_id
 _symmetry_equiv_pos_as_xyz
  1  'x, y, z'
loop_
 _atom_site_type_symbol
 _atom_site_label
 _atom_site_symmetry_multiplicity
 _atom_site_fract_x
 _atom_site_fract_y
 _atom_site_fract_z
 _atom_site_occupancy
  V  V0  1  0.12268786  0.87309743  0.74659927  1
  V  V1  1  0.88189544  0.37342587  -0.00334488  1
  V  V2  1  -0.00000023  0.24805235  0.24772969  1
  V  V3  1  0.62098957  0.38013870  0.75378025  1
  V  V4  1  0.12562514  0.49758934  0.12398683  1
  V  V5  1  0.50610217  0.61644832  0.62881281  1
  V  V6  1  0.12575403  0.24566820  0.38903830  1
  V  V7  1  0.50513041  0.12887084  0.62037283  1
  V  V8  1  0.50083120  0.24597609  0.25088672  1
  V  V9  1  0.74458347  0.37579733  0.62283529  1
  V  V10  1  0.00171611  0.74626088  0.25183431  1
  V  V11  1  -0.00803276  0.25628657  0.76098711  1
  V  V12  1  0.74903629  0.00205233  0.74926207  1
  V  V13  1  0.87797756  0.49676579  0.37788278  1
  V  V14  1  0.61518462  0.12983286  0.00419791  1
  V  V15  1  0.62596360  0.36728202  0.25018971  1
  V  V16  1  0.25109647  0.49784757  0.24883347  1
  V  V17  1  0.74559661  0.12988825  0.87440616  1
  V  V18  1  0.87443369  0.00942193  0.37479598  1
  V  V19  1  0.61902737  0.00244228  0.12386609  1
  V  V20  1  0.12698888  0.75269874  0.37573130  1
  V  V21  1  0.37612245  0.12700355  0.24789600  1
  V  V22  1  0.87413852  0.36196139  0.50452820  1
  V  V23  1  0.25495729  0.87741238  0.62288842  1
  V  V24  1  0.50443296  0.37013262  0.37815560  1
  V  V25  1  0.38838541  0.37882476  -0.01115604  1
  V  V26  1  -0.00362169  0.13641459  0.62005530  1
  V  V27  1  0.75036996  0.49556188  0.24883992  1
  V  V28  1  0.50849941  0.00222493  0.49728152  1
  V  V29  1  0.37591463  0.24798447  0.12207797  1
  V  V30  1  0.25573641  0.49589420  0.74036133  1
  V  V31  1  0.24667035  0.12387086  0.38928255  1
  V  V32  1  0.25913661  0.75344964  0.50141907  1
  V  V33  1  0.37312428  0.75568400  0.12741300  1
  V  V34  1  0.87489939  0.87720626  0.49939054  1
  V  V35  1  0.37412251  -0.00331942  0.38079686  1
  V  V36  1  0.12748493  0.37034721  0.25095409  1
  V  V37  1  0.87390381  0.74972308  0.12110565  1
  V  V38  1  0.87983034  0.62276390  0.25089695  1
  V  V39  1  0.49924664  0.25442827  0.75513659  1
  V  V40  1  0.12383925  0.00675572  0.61900668  1
  V  V41  1  0.50755698  0.51473417  -0.00244183  1
  V  V42  1  0.54279013  0.69018238  0.19161160  1
  V  V43  1  0.74818629  0.25285115  0.00181649  1
  V  V44  1  0.74521133  0.74868509  -0.00159240  1
  V  V45  1  0.61253640  0.87490084  0.75375293  1
  V  V46  1  0.62213338  0.87434029  0.24250222  1
  V  V47  1  0.49501651  0.86986230  0.37609648  1
  V  V48  1  -0.00068649  0.87508851  0.86901389  1
  V  V49  1  0.38604947  0.75425581  0.62904954  1
  V  V50  1  0.87757627  0.00376929  0.87550129  1
  V  V51  1  0.38065946  0.62588153  0.75516650  1
  V  V52  1  0.74773442  0.87531529  0.62566380  1
  V  V53  1  0.87198222  0.25137348  0.13141675  1
  V  V54  1  0.74578774  0.62416559  0.87695244  1
  V  V55  1  0.37925928  0.49850329  0.37892090  1
  V  V56  1  0.37588952  0.62554106  0.24261077  1
  V  V57  1  0.74811992  0.00127115  0.24475379  1
  V  V58  1  0.12544716  0.62277217  -0.00166728  1
  V  V59  1  0.87999273  0.49740125  0.87373060  1
  V  V60  1  0.92945293  0.08150052  0.19022830  1
  V  V61  1  0.24190591  0.12897562  0.88272762  1
  V  V62  1  0.88329477  0.75129251  0.63251315  1
  V  V63  1  0.24825905  0.75100276  -0.00185732  1
  V  V64  1  0.12991403  0.37281278  0.75115314  1
  V  V65  1  0.62010395  0.74839419  0.37630057  1
  V  V66  1  0.75240030  0.62759882  0.37947488  1
  V  V67  1  0.74554545  0.50335455  0.74405029  1
  V  V68  1  0.25236985  0.36940742  0.11370600  1
  V  V69  1  0.25175192  0.62548431  0.37563621  1
  V  V70  1  0.37610489  0.87480277  -0.01030143  1
  V  V71  1  0.11861917  0.12363795  0.01857417  1
  V  V72  1  0.36123996  0.25380057  0.61966718  1
  V  V73  1  0.49888610  -0.00123709  -0.00760814  1
  V  V74  1  -0.00115591  0.49970905  0.50951219  1
  V  V75  1  0.25214660  0.61597912  0.87357429  1
  V  V76  1  0.24558747  -0.00065854  0.24239833  1
  V  V77  1  0.73147133  0.24365272  0.50179087  1
  V  V78  1  0.00016908  0.87577708  0.37814093  1
  V  V79  1  0.00132766  0.62146318  0.12205628  1
  V  V80  1  0.73412224  0.12628569  0.37630904  1
  V  V81  1  0.87032318  0.87547715  -0.00071486  1
  V  V82  1  0.11967890  0.74728466  0.86970153  1
  V  V83  1  0.61466056  0.75223809  0.87356450  1
  V  V84  1  0.37206425  0.12544714  0.75259168  1
  Zn  Zn85  1  0.00416096  0.49262205  -0.00601600  1
  Zn  Zn86  1  0.74770421  0.37890329  0.12225261  1
  Zn  Zn87  1  0.23833990  0.88153062  0.11654811  1
  Zn  Zn88  1  0.12611059  0.62241339  0.50316458  1
  Zn  Zn89  1  0.87131373  0.13319941  0.74522774  1
  Zn  Zn90  1  0.37484172  -0.00169326  0.87253595  1
  Zn  Zn91  1  0.12347475  0.25653001  0.88376746  1
  Zn  Zn92  1  0.51172765  0.49333423  0.50553686  1
  Zn  Zn93  1  0.61733212  0.25863093  0.88009356  1
  Zn  Zn94  1  0.24839785  0.00160762  0.75196091  1
  Zn  Zn95  1  0.36558408  0.37523844  0.50899423  1
  Zn  Zn96  1  0.88019459  0.62759794  0.75235210  1
  Zn  Zn97  1  0.00368156  0.00733453  0.49966298  1
  Zn  Zn98  1  0.00341504  0.00022581  0.01541600  1
  Zn  Zn99  1  0.62740135  0.62225665  0.50881220  1
  Zn  Zn100  1  0.13235935  0.49804133  0.62359010  1
  Zn  Zn101  1  0.12246836  0.88021676  0.24248075  1
  Zn  Zn102  1  0.74948781  0.75159248  0.50072006  1
  Zn  Zn103  1  0.00992425  0.63120205  0.63352990  1
  Zn  Zn104  1  0.62693767  0.00455657  0.62000084  1
  Zn  Zn105  1  0.00009009  0.37177651  0.37779206  1
  Zn  Zn106  1  0.61619824  0.50951454  0.12752737  1
  Zn  Zn107  1  0.19369058  0.18824682  0.19291053  1
  Zn  Zn108  1  0.18294170  0.18738768  0.69149146  1
  Zn  Zn109  1  0.18906666  0.69022555  0.18609138  1
  Zn  Zn110  1  0.18944291  0.68637204  0.68673012  1
  Zn  Zn111  1  0.68748945  0.18427397  0.18864593  1
  Zn  Zn112  1  0.68462261  0.19300062  0.68550110  1
  Zn  Zn113  1  0.70545276  0.68876073  0.19138902  1
  Zn  Zn114  1  0.68920645  0.69217015  0.69224657  1
  Zn  Zn115  1  0.30107586  0.32238123  0.34178306  1
  Zn  Zn116  1  0.30958946  0.30847720  0.81216887  1
  Zn  Zn117  1  0.31408545  0.81431351  0.30937134  1
  Zn  Zn118  1  0.30884512  0.80932189  0.80959905  1
  Zn  Zn119  1  0.81114368  0.30799386  0.31804256  1
  Zn  Zn120  1  0.80945748  0.31616136  0.81303815  1
  Zn  Zn121  1  0.81085393  0.81601682  0.31084757  1
  Zn  Zn122  1  0.80774055  0.81479145  0.81279897  1
  Zn  Zn123  1  0.18764083  0.43375089  0.44104190  1
  Zn  Zn124  1  0.18878162  0.43497468  0.93308245  1
  Zn  Zn125  1  0.18935758  0.93679691  0.43889069  1
  Zn  Zn126  1  0.18657832  0.94453099  0.93801086  1
  Zn  Zn127  1  0.68666098  0.43650362  0.43803764  1
  Zn  Zn128  1  0.68457834  0.44119200  0.93861930  1
  Zn  Zn129  1  0.68738067  0.93593923  0.43295638  1
  Zn  Zn130  1  0.68695029  0.93771283  0.93571528  1
  Zn  Zn131  1  0.31311689  0.06599363  0.05994042  1
  Zn  Zn132  1  0.31948243  0.06089932  0.56527392  1
  Zn  Zn133  1  0.31731089  0.55811833  0.06022526  1
  Zn  Zn134  1  0.31853613  0.56732042  0.56320074  1
  Zn  Zn135  1  0.80105367  0.05819511  0.05654477  1
  Zn  Zn136  1  0.81445506  0.06648632  0.56168294  1
  Zn  Zn137  1  0.81127088  0.56245466  0.05947972  1
  Zn  Zn138  1  0.81359288  0.56151269  0.56420533  1
  Zn  Zn139  1  0.43969133  0.43664994  0.18511486  1
  Zn  Zn140  1  0.43317127  0.43724197  0.69229282  1
  Zn  Zn141  1  0.43698812  0.93758471  0.18653181  1
  Zn  Zn142  1  0.43633370  0.94283279  0.68388623  1
  Zn  Zn143  1  0.93917560  0.43349109  0.18551364  1
  Zn  Zn144  1  0.93205341  0.43188659  0.68881135  1
  Zn  Zn145  1  0.93475957  0.91858465  0.18993358  1
  Zn  Zn146  1  0.93804971  0.94257157  0.68747706  1
  Zn  Zn147  1  0.06864648  0.06159091  0.31970441  1
  Zn  Zn148  1  0.06133660  0.06481152  0.80633415  1
  Zn  Zn149  1  0.06500125  0.55962214  0.31640533  1
  Zn  Zn150  1  0.06122094  0.56017294  0.80511346  1
  Zn  Zn151  1  0.55876874  0.06125244  0.31078618  1
  Zn  Zn152  1  0.56174187  0.06594092  0.81081118  1
  Zn  Zn153  1  0.56872103  0.55482618  0.32224635  1
  Zn  Zn154  1  0.56161432  0.56212976  0.81748325  1
  Zn  Zn155  1  0.43692859  0.18647771  0.43730545  1
  Zn  Zn156  1  0.43310207  0.18972677  0.93771995  1
  Zn  Zn157  1  0.43900287  0.68521777  0.44131432  1
  Zn  Zn158  1  0.43618798  0.68520272  0.94035987  1
  Zn  Zn159  1  0.93772168  0.18687463  0.43642910  1
  Zn  Zn160  1  0.93895308  0.18440704  0.94258593  1
  Zn  Zn161  1  0.93880142  0.68714120  0.44495898  1
  Zn  Zn162  1  0.93828531  0.68420921  0.93317492  1
  Zn  Zn163  1  0.06191108  0.30407029  0.06448347  1
  Zn  Zn164  1  0.06290661  0.31742651  0.57002893  1
  Zn  Zn165  1  0.06029046  0.81438366  0.05834462  1
  Zn  Zn166  1  0.06568703  0.81481190  0.55923453  1
  Zn  Zn167  1  0.55935273  0.31640000  0.06950295  1
  Zn  Zn168  1  0.55776896  0.31575813  0.56828286  1
  Zn  Zn169  1  0.56283847  0.81956101  0.05522046  1
  Zn  Zn170  1  0.56341331  0.81453475  0.55888964  1
  O  O171  1  0.13071956  0.12751160  0.11713256  1
  O  O172  1  0.11179977  0.11736540  0.63257563  1
  O  O173  1  0.12214935  0.61944988  0.11945627  1
  O  O174  1  0.12647143  0.61893694  0.62109155  1
  O  O175  1  0.62731542  0.11624064  0.11526609  1
  O  O176  1  0.60990713  0.12247039  0.63167580  1
  O  O177  1  0.61650054  0.63195196  0.14403893  1
  O  O178  1  0.60907933  0.63632237  0.62983519  1
  O  O179  1  0.39382411  0.38837765  0.35932819  1
  O  O180  1  0.36981360  0.36673999  0.89206264  1
  O  O181  1  0.38362606  0.88255598  0.36975614  1
  O  O182  1  0.36937652  0.87393698  0.88530469  1
  O  O183  1  0.87634893  0.38245274  0.38282645  1
  O  O184  1  0.86845146  0.38414822  0.88517162  1
  O  O185  1  0.87772462  0.88413321  0.38105596  1
  O  O186  1  0.88096155  0.88109811  0.87745898  1
  O  O187  1  0.25540291  0.00681226  0.37052866  1
  O  O188  1  0.25383086  0.01232368  0.87150178  1
  O  O189  1  0.25665629  0.51080334  0.36766282  1
  O  O190  1  0.24838993  0.51282856  0.86867366  1
  O  O191  1  0.75624753  0.00564431  0.36873207  1
  O  O192  1  0.75702384  0.00777723  0.86940594  1
  O  O193  1  0.76132499  0.50505593  0.36716000  1
  O  O194  1  0.75546571  0.50887375  0.87013467  1
  O  O195  1  0.24566830  0.49192301  0.13096475  1
  O  O196  1  0.25556068  0.50271789  0.63597718  1
  O  O197  1  0.25737756  1.00045172  0.13980465  1
  O  O198  1  0.24518321  0.99406623  0.62660111  1
  O  O199  1  0.75012552  0.50283131  0.13979147  1
  O  O200  1  0.75222389  0.49312013  0.63315273  1
  O  O201  1  0.73599632  1.00110292  0.13266413  1
  O  O202  1  0.74964189  0.99371516  0.63132992  1
  O  O203  1  0.00885006  0.36570683  0.25098596  1
  O  O204  1  0.00487214  0.36140739  0.74649089  1
  O  O205  1  0.00173044  0.86310194  0.26132774  1
  O  O206  1  0.00507170  0.87820298  0.76067952  1
  O  O207  1  0.50889519  0.36707271  0.25438181  1
  O  O208  1  0.50868363  0.36862952  0.74478089  1
  O  O209  1  0.51005305  0.88180784  0.26239531  1
  O  O210  1  0.51430112  0.88397295  0.74693317  1
  O  O211  1  0.48599804  0.13037156  0.25589690  1
  O  O212  1  0.49225043  0.13146519  0.74365008  1
  O  O213  1  0.49207476  0.62430783  0.25778502  1
  O  O214  1  0.49262820  0.62225145  0.74214551  1
  O  O215  1  0.99886297  0.12949286  0.25448820  1
  O  O216  1  0.99623908  0.13857581  0.74301328  1
  O  O217  1  0.99746075  0.62797516  0.24612046  1
  O  O218  1  0.99305227  0.62469269  0.74572586  1
  O  O219  1  0.38254405  0.26012185  0.01413086  1
  O  O220  1  0.37829885  0.24644403  0.51763535  1
  O  O221  1  0.37022847  0.75652774  0.00810689  1
  O  O222  1  0.36456708  0.74667493  0.50791824  1
  O  O223  1  0.87061450  0.25466727  0.00928450  1
  O  O224  1  0.86975639  0.26031411  0.49535395  1
  O  O225  1  0.87010115  0.75493223  0.00323249  1
  O  O226  1  0.87157049  0.76399006  0.50536954  1
  O  O227  1  0.11935376  0.26054331  0.48721704  1
  O  O228  1  0.11994648  0.23258268  0.99809438  1
  O  O229  1  0.13583449  0.74923741  0.48946379  1
  O  O230  1  0.12881213  0.74272911  0.99078396  1
  O  O231  1  0.63321241  0.25320314  0.50097663  1
  O  O232  1  0.62667217  0.24563138  1.00149344  1
  O  O233  1  0.62999788  0.74568613  0.49040227  1
  O  O234  1  0.63937427  0.76108456  0.99267028  1
  O  O235  1  0.49003298  0.25450161  0.14067373  1
  O  O236  1  0.49344392  0.24358794  0.63509592  1
  O  O237  1  0.49263093  0.75305295  0.12269852  1
  O  O238  1  0.48901328  0.74786032  0.61992261  1
  O  O239  1  0.99032929  0.24760512  0.13912009  1
  O  O240  1  1.00341346  0.23993648  0.63465082  1
  O  O241  1  0.99010094  0.74192663  0.12859114  1
  O  O242  1  0.98621230  0.75411804  0.61863362  1
  O  O243  1  0.00620800  0.24789516  0.36447111  1
  O  O244  1  0.00075599  0.24465266  0.86350302  1
  O  O245  1  0.00859277  0.75240773  0.37432738  1
  O  O246  1  0.01183334  0.75829174  0.87903221  1
  O  O247  1  0.49250063  0.25739018  0.36356489  1
  O  O248  1  0.49939796  0.24406065  0.85986216  1
  O  O249  1  0.50723955  0.75576509  0.37886228  1
  O  O250  1  0.51585608  0.74654608  0.88486241  1
  O  O251  1  0.25605090  0.12019205  0.48768013  1
  O  O252  1  0.23852518  0.12069120  0.98976931  1
  O  O253  1  0.25141713  0.63299028  0.49087793  1
  O  O254  1  0.24707133  0.62852913  0.99250390  1
  O  O255  1  0.74936015  0.13657452  0.49646409  1
  O  O256  1  0.73778777  0.13176213  0.99219660  1
  O  O257  1  0.75335610  0.62757619  0.48805045  1
  O  O258  1  0.75235370  0.63624361  0.99162277  1
  O  O259  1  0.25899011  0.38129264  0.01074364  1
  O  O260  1  0.27005504  0.36290397  0.45043279  1
  O  O261  1  0.25580485  0.86969837  -0.00163943  1
  O  O262  1  0.24746094  0.86769193  0.51275034  1
  O  O263  1  0.75683891  0.36817002  0.00182397  1
  O  O264  1  0.75280540  0.36417793  0.50268871  1
  O  O265  1  0.76336667  0.86800451  -0.00900038  1
  O  O266  1  0.75607242  0.87695182  0.50782653  1
  O  O267  1  0.12913766  0.49048154  0.24526416  1
  O  O268  1  0.13645294  0.49156374  0.75007480  1
  O  O269  1  0.14184427  1.00070320  0.25489318  1
  O  O270  1  0.12475192  0.98832362  0.74073949  1
  O  O271  1  0.63557782  0.49181561  0.25062821  1
  O  O272  1  0.63690867  0.49620568  0.75394372  1
  O  O273  1  0.62806235  0.99424630  0.24299295  1
  O  O274  1  0.63469727  0.99271407  0.75067651  1
  O  O275  1  0.36925372  0.00612112  0.25933083  1
  O  O276  1  0.37507710  0.01413934  0.75131992  1
  O  O277  1  0.37212234  0.50853943  0.25652800  1
  O  O278  1  0.36833738  0.51221960  0.75136935  1
  O  O279  1  0.87008464  0.00445316  0.25173894  1
  O  O280  1  0.86277612  0.00234617  0.75746244  1
  O  O281  1  0.87222525  0.50136363  0.25777900  1
  O  O282  1  0.86269611  0.49692439  0.75802673  1
  O  O283  1  0.12131651  0.36751898  0.36199713  1
  O  O284  1  0.12542679  0.37317252  0.86200472  1
  O  O285  1  0.12009265  0.86779324  0.37306547  1
  O  O286  1  0.11810203  0.87084178  0.86869455  1
  O  O287  1  0.61358891  0.37740243  0.36441576  1
  O  O288  1  0.63381693  0.37396922  0.85903934  1
  O  O289  1  0.62171069  0.86240437  0.36519854  1
  O  O290  1  0.62934235  0.87031764  0.86148927  1
  O  O291  1  0.36863354  0.13549856  0.13357048  1
  O  O292  1  0.38315438  0.13189905  0.63344777  1
  O  O293  1  0.37017656  0.63124050  0.13669968  1
  O  O294  1  0.38583749  0.63353050  0.63321132  1
  O  O295  1  0.86607632  0.13226283  0.12264528  1
  O  O296  1  0.89126651  0.11997637  0.62881628  1
  O  O297  1  0.88067472  0.62820146  0.13062579  1
  O  O298  1  0.87199562  0.64537628  0.62184741  1
  O  O299  1  0.26054775  0.26050571  0.13195549  1
  O  O300  1  0.26284816  0.24251451  0.62866761  1
  O  O301  1  0.25787866  0.75143980  0.11579736  1
  O  O302  1  0.25782894  0.75667968  0.61798253  1
  O  O303  1  0.75687576  0.25122506  0.12092512  1
  O  O304  1  0.74779477  0.25547598  0.61046887  1
  O  O305  1  0.76509417  0.74662570  0.11555498  1
  O  O306  1  0.75748037  0.76305103  0.62384135  1
  O  O307  1  0.23864665  0.22888603  0.36368093  1
  O  O308  1  0.24606859  0.23311712  0.87339966  1
  O  O309  1  0.24749149  0.74668855  0.38019855  1
  O  O310  1  0.23733030  0.74314725  0.87920644  1
  O  O311  1  0.75164338  0.23924338  0.38838247  1
  O  O312  1  0.74774705  0.24274391  0.88180732  1
  O  O313  1  0.74368725  0.74260435  0.37268814  1
  O  O314  1  0.74613544  0.74418444  0.88123018  1
  O  O315  1  0.01192545  0.11916727  0.00218858  1
  O  O316  1  -0.00167580  0.12691100  0.51444950  1
  O  O317  1  0.00739033  0.62170561  0.00487716  1
  O  O318  1  0.00306393  0.61481335  0.50571730  1
  O  O319  1  0.51024282  0.12179863  -0.00283892  1
  O  O320  1  0.49623073  0.11657979  0.50747443  1
  O  O321  1  0.49475945  0.61431233  0.00661591  1
  O  O322  1  0.49960683  0.62274668  0.51678588  1
  O  O323  1  0.49269126  0.37451698  0.49209297  1
  O  O324  1  0.49137907  0.37606861  0.99781501  1
  O  O325  1  0.50408096  0.88276813  0.48470462  1
  O  O326  1  0.48960530  0.88613241  0.99954045  1
  O  O327  1  0.98995595  0.38038409  0.50048914  1
  O  O328  1  0.98656769  0.37301567  1.00690138  1
  O  O329  1  0.99161719  0.87955586  0.49479132  1
  O  O330  1  0.98945773  0.87976098  0.98791447  1
  O  O331  1  0.49320748  0.49263195  0.37859233  1
  O  O332  1  0.50389915  0.50334261  0.89492655  1
  O  O333  1  0.49280028  0.99419744  0.37947349  1
  O  O334  1  0.49781999  1.00696496  0.88790181  1
  O  O335  1  0.98991199  0.49901403  0.38310695  1
  O  O336  1  0.98394932  0.50397187  0.87569944  1
  O  O337  1  0.99206471  0.99565286  0.37666725  1
  O  O338  1  0.98694609  0.99624425  0.87085819  1
  O  O339  1  -0.01848953  0.00852519  0.13439256  1
  O  O340  1  0.00730290  0.01079605  0.62525743  1
  O  O341  1  0.00770832  0.50473490  0.12335387  1
  O  O342  1  -0.00513719  0.49858956  0.61497070  1
  O  O343  1  0.51154037  -0.00324006  0.11553730  1
  O  O344  1  0.49972233  0.00820738  0.61340168  1
  O  O345  1  0.50141704  0.49376720  0.11074911  1
  O  O346  1  0.49519000  0.51309591  0.62529722  1
  O  O347  1  0.24308839  0.37976762  0.24704054  1
  O  O348  1  0.24430283  0.38390555  0.75506607  1
  O  O349  1  0.25059181  0.89075762  0.25075408  1
  O  O350  1  0.24199108  0.87748177  0.73946850  1
  O  O351  1  0.74470094  0.38065008  0.25334292  1
  O  O352  1  0.74456258  0.38114983  0.74033666  1
  O  O353  1  0.73920090  0.88963173  0.25615496  1
  O  O354  1  0.74472681  0.88493613  0.74263117  1
  O  O355  1  0.25837433  0.11334365  0.25780034  1
  O  O356  1  0.25612032  0.12352334  0.75846928  1
  O  O357  1  0.25753660  0.62111596  0.25600528  1
  O  O358  1  0.25696718  0.61806886  0.75611683  1
  O  O359  1  0.74574803  0.11172246  0.25963693  1
  O  O360  1  0.74929508  0.12118745  0.75576219  1
  O  O361  1  0.76037649  0.61653343  0.26231026  1
  O  O362  1  0.75590255  0.61892684  0.75458547  1
  O  O363  1  0.36464754  0.11866637  0.36904211  1
  O  O364  1  0.36349018  0.12585187  0.86994193  1
  O  O365  1  0.36827955  0.62236005  0.36649959  1
  O  O366  1  0.36440937  0.63600780  0.86576436  1
  O  O367  1  0.86694517  0.11257503  0.38026571  1
  O  O368  1  0.86326547  0.11882150  0.87647623  1
  O  O369  1  0.87132224  0.61939938  0.37207452  1
  O  O370  1  0.86349427  0.61849200  0.87441423  1
  O  O371  1  0.13250732  0.37469435  0.13243972  1
  O  O372  1  0.12412510  0.38013364  0.64249987  1
  O  O373  1  0.12540799  0.86853686  0.12939475  1
  O  O374  1  0.13045559  0.87911174  0.63147627  1
  O  O375  1  0.62960980  0.37752163  0.13969577  1
  O  O376  1  0.63590637  0.37288921  0.63453800  1
  O  O377  1  0.62179937  0.88027837  0.13616387  1
  O  O378  1  0.63189009  0.87732124  0.63415841  1
  O  O379  1  0.11770719  0.25406506  0.25431022  1
  O  O380  1  0.11540597  0.25838733  0.75418393  1
  O  O381  1  0.12196126  0.74766564  0.26338946  1
  O  O382  1  0.13037426  0.76310827  0.75609635  1
  O  O383  1  0.61612055  0.25487353  0.24750605  1
  O  O384  1  0.61600222  0.25967437  0.75190798  1
  O  O385  1  0.61870625  0.75339082  0.24956014  1
  O  O386  1  0.62925262  0.76714408  0.75784672  1
  O  O387  1  0.37957670  0.24154812  0.24462939  1
  O  O388  1  0.37952312  0.24191590  0.74313497  1
  O  O389  1  0.37254070  0.74436919  0.23656646  1
  O  O390  1  0.36922290  0.73895277  0.74025983  1
  O  O391  1  0.88042453  0.25256010  0.24088520  1
  O  O392  1  0.88696330  0.25251793  0.75357594  1
  O  O393  1  0.87933612  0.74549116  0.24209262  1
  O  O394  1  0.87136633  0.75579919  0.73487931  1
  O  O395  1  0.37578358  0.49968248  0.48686700  1
  O  O396  1  0.38570296  0.48606778  1.00308421  1
  O  O397  1  0.38442936  1.00169192  0.48667941  1
  O  O398  1  0.38199258  0.99294849  1.00021488  1
  O  O399  1  0.87934695  0.49276361  0.49354503  1
  O  O400  1  0.87464206  0.49038640  0.99343498  1
  O  O401  1  0.87511460  0.99135410  0.49250970  1
  O  O402  1  0.87432604  0.99272853  0.99227036  1
  O  O403  1  0.12000335  0.01504893  -0.00023875  1
  O  O404  1  0.12303780  -0.00597586  0.51447647  1
  O  O405  1  0.12489159  0.50378342  0.00538450  1
  O  O406  1  0.11481366  0.49684128  0.50027432  1
  O  O407  1  0.61978055  0.00509214  0.00477637  1
  O  O408  1  0.61339919  -0.00454105  0.49901531  1
  O  O409  1  0.61508666  0.49994959  0.00812854  1
  O  O410  1  0.62397956  0.51007901  0.49077058  1
  O  O411  1  0.36789397  0.36769937  0.12095386  1
  O  O412  1  0.37486072  0.35942752  0.62631755  1
  O  O413  1  0.37099885  0.86812843  0.11687454  1
  O  O414  1  0.36638805  0.86810995  0.63196655  1
  O  O415  1  0.86982230  0.36651394  0.11946347  1
  O  O416  1  0.85937783  0.37755564  0.61516943  1
  O  O417  1  0.87690386  0.86257344  0.11203668  1
  O  O418  1  0.86976510  0.87128442  0.61888612  1
  O  O419  1  0.13686088  0.12886948  0.38065250  1
  O  O420  1  0.13527692  0.12423214  0.87351849  1
  O  O421  1  0.13827977  0.63078081  0.37596249  1
  O  O422  1  0.13021321  0.63149119  0.87684151  1
  O  O423  1  0.63474356  0.11786703  0.37512323  1
  O  O424  1  0.63411384  0.12730995  0.88136377  1
  O  O425  1  0.63480856  0.63688223  0.37000758  1
  O  O426  1  0.63850194  0.63707440  0.86591183  1
