# generated using pymatgen
data_V85Zn86O256
_symmetry_space_group_name_H-M   'P 1'
_cell_length_a   16.92769062
_cell_length_b   16.94991540
_cell_length_c   16.95278588
_cell_angle_alpha   89.98878620
_cell_angle_beta   90.05290120
_cell_angle_gamma   90.04530958
_symmetry_Int_Tables_number   1
_chemical_formula_structural   V85Zn86O256
_chemical_formula_sum   'V85 Zn86 O256'
_cell_volume   4864.13920565
_cell_formula_units_Z   1
loop_
 _symmetry_equiv_pos_site_id
 _symmetry_equiv_pos_as_xyz
  1  'x, y, z'
loop_
 _atom_site_type_symbol
 _atom_site_label
 _atom_site_symmetry_multiplicity
 _atom_site_fract_x
 _atom_site_fract_y
 _atom_site_fract_z
 _atom_site_occupancy
  V  V0  1  0.50267129  0.11710135  0.12425358  1
  V  V1  1  0.52305255  0.03384069  0.46921698  1
  V  V2  1  0.37640218  0.24694010  0.12199713  1
  V  V3  1  0.86907426  0.62567813  0.75796382  1
  V  V4  1  0.62515235  0.50067378  0.62365756  1
  V  V5  1  0.75242156  0.13185764  0.86934325  1
  V  V6  1  -0.00108961  0.00261748  0.00208252  1
  V  V7  1  0.11846851  0.49718889  0.62066268  1
  V  V8  1  0.75011584  0.50465367  0.75998502  1
  V  V9  1  0.87457140  0.26145704  0.62624335  1
  V  V10  1  0.74722687  0.88833426  0.62210723  1
  V  V11  1  0.75929440  -0.00191120  0.25438064  1
  V  V12  1  0.37407020  0.49821213  0.87270122  1
  V  V13  1  0.87500233  0.25069886  0.12295464  1
  V  V14  1  0.00131806  0.88356820  0.36881540  1
  V  V15  1  0.49575582  0.50009072  0.00114467  1
  V  V16  1  0.24798898  0.62465372  0.37397732  1
  V  V17  1  0.62839811  0.37415769  0.75101308  1
  V  V18  1  -0.00911172  0.00362194  0.49920776  1
  V  V19  1  0.62382966  0.49801141  0.12362025  1
  V  V20  1  0.63289126  0.74912825  0.87347362  1
  V  V21  1  0.37612430  0.00092877  0.88513639  1
  V  V22  1  0.38072798  0.13066809  0.25365204  1
  V  V23  1  0.74777275  0.49595823  0.25176587  1
  V  V24  1  0.24875516  0.37363322  0.62461954  1
  V  V25  1  0.50217708  0.25356109  0.75491734  1
  V  V26  1  0.50111014  0.87858243  0.88292272  1
  V  V27  1  -0.00018664  0.75275597  0.74853109  1
  V  V28  1  0.12454342  0.12597293  0.50207843  1
  V  V29  1  0.62567468  0.62475804  -0.00369435  1
  V  V30  1  0.74401328  0.24935239  -0.00213344  1
  V  V31  1  0.50053658  0.49958410  0.49800005  1
  V  V32  1  -0.01311149  0.38369679  0.87516705  1
  V  V33  1  0.25514837  0.75227418  0.00351325  1
  V  V34  1  0.50392065  0.36636827  0.36907115  1
  V  V35  1  0.24819334  0.49977250  0.74669409  1
  V  V36  1  0.87086802  0.13100020  0.26309244  1
  V  V37  1  0.24558618  0.62877166  0.87299523  1
  V  V38  1  0.50911255  0.37380808  0.87863034  1
  V  V39  1  0.50023664  0.86754042  0.37459961  1
  V  V40  1  0.24387028  0.48853053  0.24754684  1
  V  V41  1  -0.00160183  0.13166050  0.13208562  1
  V  V42  1  0.62562841  0.88521713  0.74641543  1
  V  V43  1  0.51347392  0.11127990  0.63523530  1
  V  V44  1  -0.00467584  0.36792236  0.38145476  1
  V  V45  1  0.87620957  0.62416845  0.24417930  1
  V  V46  1  0.37359980  -0.00409620  0.37665472  1
  V  V47  1  0.49479214  0.74883002  0.24286310  1
  V  V48  1  0.63223947  0.87448043  0.24061843  1
  V  V49  1  0.12078138  0.25256936  0.86538731  1
  V  V50  1  0.37151836  0.12623222  0.75294122  1
  V  V51  1  0.12864768  0.13781095  0.00608765  1
  V  V52  1  -0.00896637  0.12937438  0.63805212  1
  V  V53  1  0.12267311  -0.00915436  0.12802981  1
  V  V54  1  0.37578237  0.37249042  0.49881087  1
  V  V55  1  0.62732532  0.74800594  0.36989537  1
  V  V56  1  0.86737962  0.87918216  0.00462621  1
  V  V57  1  0.49699352  0.75241169  0.74768862  1
  V  V58  1  0.37624718  0.24713102  0.62338547  1
  V  V59  1  0.49365735  0.63015017  0.62202699  1
  V  V60  1  0.88131879  0.49809180  0.38944050  1
  V  V61  1  0.86994675  0.75637822  0.12831542  1
  V  V62  1  0.75380283  0.37674654  0.12152442  1
  V  V63  1  0.37436579  0.62834153  0.74591922  1
  V  V64  1  0.87304764  0.75372953  0.62276212  1
  V  V65  1  0.38015255  0.86571248  0.50413584  1
  V  V66  1  0.00900177  0.75172144  0.24994432  1
  V  V67  1  0.24882116  -0.00080677  0.75135396  1
  V  V68  1  0.25827983  0.87173596  0.12878412  1
  V  V69  1  0.24542625  -0.00453514  0.25339145  1
  V  V70  1  0.12470640  0.24826461  0.36737210  1
  V  V71  1  0.75058579  0.62304720  0.37527217  1
  V  V72  1  -0.00389573  0.62258608  0.62035911  1
  V  V73  1  0.37477936  0.49906801  0.37421339  1
  V  V74  1  0.49455093  0.62489417  0.12267715  1
  V  V75  1  0.73632273  0.24498400  0.48937492  1
  V  V76  1  0.62090535  0.11861805  -0.00712558  1
  V  V77  1  0.74939832  0.75228974  0.49925456  1
  V  V78  1  0.25171791  0.86917118  0.62465682  1
  V  V79  1  0.36698734  0.36628050  -0.00312650  1
  V  V80  1  0.00068928  0.87790519  0.87600104  1
  V  V81  1  0.12036171  0.62540327  0.49839360  1
  V  V82  1  0.62246165  0.35622369  0.25120993  1
  V  V83  1  0.37036118  0.62441427  0.23774084  1
  V  V84  1  0.87547243  0.00872926  0.86497003  1
  Zn  Zn85  1  0.25176860  0.74731620  0.50449882  1
  Zn  Zn86  1  0.25169345  0.12400587  0.37942009  1
  Zn  Zn87  1  0.11605124  0.37092496  0.74516346  1
  Zn  Zn88  1  0.87240410  0.88282076  0.49431032  1
  Zn  Zn89  1  0.12470249  0.00176949  0.62452723  1
  Zn  Zn90  1  0.12454212  0.75277724  0.87719896  1
  Zn  Zn91  1  0.11136797  0.36457352  0.24339715  1
  Zn  Zn92  1  0.80273931  0.58268972  0.93312035  1
  Zn  Zn93  1  0.62355482  0.62465922  0.49774372  1
  Zn  Zn94  1  0.25096507  0.24565149  0.49953920  1
  Zn  Zn95  1  0.74562512  0.75704551  0.00624145  1
  Zn  Zn96  1  0.24094177  0.36079456  0.11757356  1
  Zn  Zn97  1  0.75940115  0.38150618  0.61515930  1
  Zn  Zn98  1  0.12442504  0.87697099  0.74785192  1
  Zn  Zn99  1  0.75053147  0.01186940  0.74219363  1
  Zn  Zn100  1  0.11414253  0.49345954  0.11768299  1
  Zn  Zn101  1  0.00176507  0.62177090  0.12109794  1
  Zn  Zn102  1  0.12013667  0.62191293  0.00181831  1
  Zn  Zn103  1  0.38005482  0.87704360  0.00647673  1
  Zn  Zn104  1  0.63059001  -0.00465472  0.12005127  1
  Zn  Zn105  1  0.25018295  0.13200995  0.88228373  1
  Zn  Zn106  1  0.12604996  0.75493632  0.37429632  1
  Zn  Zn107  1  0.19348018  0.18232848  0.18987808  1
  Zn  Zn108  1  0.18661420  0.18491575  0.68700503  1
  Zn  Zn109  1  0.18589973  0.68415501  0.18269060  1
  Zn  Zn110  1  0.18349527  0.68941537  0.68681645  1
  Zn  Zn111  1  0.69192624  0.18103389  0.18554347  1
  Zn  Zn112  1  0.69221077  0.19482964  0.68310065  1
  Zn  Zn113  1  0.68850601  0.68400155  0.18416563  1
  Zn  Zn114  1  0.68412058  0.69034646  0.68574396  1
  Zn  Zn115  1  0.31363849  0.30741839  0.31566596  1
  Zn  Zn116  1  0.30629010  0.31134960  0.81530846  1
  Zn  Zn117  1  0.31085558  0.81004444  0.31203140  1
  Zn  Zn118  1  0.31477701  0.81389049  0.81381771  1
  Zn  Zn119  1  0.81289153  0.31175526  0.31630113  1
  Zn  Zn120  1  0.81297382  0.30423285  0.80066737  1
  Zn  Zn121  1  0.81729665  0.81641911  0.31301507  1
  Zn  Zn122  1  0.81405560  0.81843478  0.81098446  1
  Zn  Zn123  1  0.18271446  0.43451308  0.43824730  1
  Zn  Zn124  1  0.18196712  0.43420949  0.93320390  1
  Zn  Zn125  1  0.18316007  0.93761233  0.44163641  1
  Zn  Zn126  1  0.18713362  0.94093434  0.94147340  1
  Zn  Zn127  1  0.68979294  0.42801212  0.43785791  1
  Zn  Zn128  1  0.80637209  0.42127960  0.93977256  1
  Zn  Zn129  1  0.68778987  0.93898363  0.43077306  1
  Zn  Zn130  1  0.68969541  0.94173361  0.93160894  1
  Zn  Zn131  1  0.30965005  0.06259609  0.06657411  1
  Zn  Zn132  1  0.31782189  0.05744759  0.56234726  1
  Zn  Zn133  1  0.28058707  0.54208440  0.04597101  1
  Zn  Zn134  1  0.31094052  0.56138861  0.56046829  1
  Zn  Zn135  1  0.80943080  0.06190745  0.06549351  1
  Zn  Zn136  1  0.81149609  0.07337473  0.55571043  1
  Zn  Zn137  1  0.96632879  0.50083904  0.00506930  1
  Zn  Zn138  1  0.80854852  0.56649890  0.56669927  1
  Zn  Zn139  1  0.43402984  0.43411632  0.18672501  1
  Zn  Zn140  1  0.43750845  0.43807445  0.68609194  1
  Zn  Zn141  1  0.43968997  0.94103216  0.19001362  1
  Zn  Zn142  1  0.43275823  0.93551220  0.69291406  1
  Zn  Zn143  1  0.93669605  0.43727482  0.19191217  1
  Zn  Zn144  1  0.93809215  0.43898944  0.69593761  1
  Zn  Zn145  1  0.93622090  0.94046851  0.19013025  1
  Zn  Zn146  1  0.93682202  0.94000383  0.68294601  1
  Zn  Zn147  1  0.06072620  0.06512400  0.31228790  1
  Zn  Zn148  1  0.06564311  0.06434580  0.81555760  1
  Zn  Zn149  1  0.05998216  0.55977342  0.31093210  1
  Zn  Zn150  1  0.05966530  0.56100424  0.80982497  1
  Zn  Zn151  1  0.56512406  0.06076358  0.30322080  1
  Zn  Zn152  1  0.56278868  0.06309026  0.81588114  1
  Zn  Zn153  1  0.56218051  0.55970510  0.31107605  1
  Zn  Zn154  1  0.56256431  0.56217797  0.81292596  1
  Zn  Zn155  1  0.45245206  0.18347155  0.43628930  1
  Zn  Zn156  1  0.44129626  0.18796524  0.93764150  1
  Zn  Zn157  1  0.43524618  0.68640996  0.43342541  1
  Zn  Zn158  1  0.43413232  0.69107443  0.93473222  1
  Zn  Zn159  1  0.93521128  0.19350505  0.44693122  1
  Zn  Zn160  1  0.93779766  0.19278622  0.94029549  1
  Zn  Zn161  1  0.93652664  0.69053771  0.43359895  1
  Zn  Zn162  1  0.94257035  0.69309970  0.94320606  1
  Zn  Zn163  1  0.05423804  0.31861953  0.05846933  1
  Zn  Zn164  1  0.05664951  0.31054711  0.55673795  1
  Zn  Zn165  1  0.06337166  0.80871457  0.06154415  1
  Zn  Zn166  1  0.06432405  0.81552099  0.55967064  1
  Zn  Zn167  1  0.56196681  0.30599469  0.06533088  1
  Zn  Zn168  1  0.56311948  0.31217419  0.56396738  1
  Zn  Zn169  1  0.55992508  0.81024880  0.06281413  1
  Zn  Zn170  1  0.56559360  0.81476658  0.56211526  1
  O  O171  1  0.11909965  0.12181032  0.11938063  1
  O  O172  1  0.11573755  0.12582065  0.61791061  1
  O  O173  1  0.12052704  0.61636591  0.12282641  1
  O  O174  1  0.11625625  0.61944240  0.61898000  1
  O  O175  1  0.61857925  0.12323409  0.11476331  1
  O  O176  1  0.61158659  0.12506723  0.63775793  1
  O  O177  1  0.61501458  0.62057045  0.11824937  1
  O  O178  1  0.61352692  0.61549817  0.62466870  1
  O  O179  1  0.38018475  0.38140714  0.37918807  1
  O  O180  1  0.38263120  0.37698627  0.87951064  1
  O  O181  1  0.37725089  0.87909910  0.38212304  1
  O  O182  1  0.38380681  0.88502254  0.87492202  1
  O  O183  1  0.88309852  0.38734406  0.37382562  1
  O  O184  1  0.88163137  0.36793849  0.87034792  1
  O  O185  1  0.89409928  0.87111624  0.37953091  1
  O  O186  1  0.88448380  0.88386248  0.88129011  1
  O  O187  1  0.25648829  -0.00182411  0.37097872  1
  O  O188  1  0.25694122  0.00291060  0.86870394  1
  O  O189  1  0.25268430  0.50677193  0.36773000  1
  O  O190  1  0.25475399  0.50660874  0.86326934  1
  O  O191  1  0.74294158  0.00288136  0.35542276  1
  O  O192  1  0.75997429  0.01135299  0.87187258  1
  O  O193  1  0.75700346  0.50208033  0.36923410  1
  O  O194  1  0.74549082  0.50152561  0.86208494  1
  O  O195  1  0.25943533  0.48665323  0.14478428  1
  O  O196  1  0.24325427  0.49429669  0.62933253  1
  O  O197  1  0.24275831  0.99329544  0.13388760  1
  O  O198  1  0.25194424  0.99158904  0.63441866  1
  O  O199  1  0.74117297  0.48732598  0.13581706  1
  O  O200  1  0.73929555  0.49974168  0.63128849  1
  O  O201  1  0.74651028  1.00635930  0.14370767  1
  O  O202  1  0.75704365  0.99155931  0.62366753  1
  O  O203  1  0.00111978  0.38467933  0.27193272  1
  O  O204  1  0.00186513  0.37593980  0.76652008  1
  O  O205  1  -0.00179690  0.87070345  0.26133084  1
  O  O206  1  -0.00082706  0.87003560  0.75586294  1
  O  O207  1  0.51055313  0.38203758  0.25659546  1
  O  O208  1  0.50340538  0.37040101  0.75577207  1
  O  O209  1  0.50472815  0.86443895  0.25308411  1
  O  O210  1  0.50638074  0.86829933  0.75482512  1
  O  O211  1  0.49095382  0.12023780  0.23843968  1
  O  O212  1  0.49378284  0.13361407  0.74862019  1
  O  O213  1  0.49129007  0.62854160  0.24351105  1
  O  O214  1  0.49527345  0.63188874  0.74236705  1
  O  O215  1  0.98797785  0.11935696  0.23852942  1
  O  O216  1  1.00510047  0.12062574  0.73574220  1
  O  O217  1  0.99117983  0.63383224  0.25353580  1
  O  O218  1  0.99173726  0.63337653  0.74216452  1
  O  O219  1  0.37859480  0.25537567  0.00598477  1
  O  O220  1  0.37748902  0.25207643  0.50962580  1
  O  O221  1  0.36098435  0.75836376  -0.00649212  1
  O  O222  1  0.37063893  0.76127888  0.49392696  1
  O  O223  1  0.86139364  0.24398939  0.01468940  1
  O  O224  1  0.86469304  0.24402833  0.51789800  1
  O  O225  1  0.87317763  0.76066609  0.00967549  1
  O  O226  1  0.86223579  0.75074685  0.50313570  1
  O  O227  1  0.12586161  0.23833293  0.49257142  1
  O  O228  1  0.12210071  0.23951284  0.99909411  1
  O  O229  1  0.12918143  0.73674064  0.50021383  1
  O  O230  1  0.13739593  0.74684976  0.99611026  1
  O  O231  1  0.63452713  0.25290604  0.50330976  1
  O  O232  1  0.63581743  0.23640652  1.00511430  1
  O  O233  1  0.63554046  0.74973369  0.49097978  1
  O  O234  1  0.62248108  0.74601239  0.99083796  1
  O  O235  1  0.48771137  0.23462965  0.12082021  1
  O  O236  1  0.48985602  0.24691350  0.63773189  1
  O  O237  1  0.49899128  0.74244860  0.13561803  1
  O  O238  1  0.50730757  0.74025440  0.63295534  1
  O  O239  1  0.98919556  0.24321632  0.12083462  1
  O  O240  1  0.99081434  0.23852476  0.61918545  1
  O  O241  1  0.99078291  0.75105816  0.13392755  1
  O  O242  1  0.99483956  0.74643046  0.63073916  1
  O  O243  1  0.00493445  0.26088201  0.38012427  1
  O  O244  1  0.01177538  0.26191390  0.88518068  1
  O  O245  1  0.00287776  0.75852254  0.36700243  1
  O  O246  1  0.00018394  0.76170241  0.86705258  1
  O  O247  1  0.49468049  0.26808340  0.37398563  1
  O  O248  1  0.49671362  0.25778885  0.86250883  1
  O  O249  1  0.50672319  0.74820042  0.36229810  1
  O  O250  1  0.50598060  0.75941160  0.86657156  1
  O  O251  1  0.24217979  0.12267315  0.50159467  1
  O  O252  1  0.23191866  0.11915428  1.00111251  1
  O  O253  1  0.24304049  0.62531158  0.49123049  1
  O  O254  1  0.25757252  0.63739540  0.98570931  1
  O  O255  1  0.74284939  0.14222605  0.50440326  1
  O  O256  1  0.74093921  0.13004551  0.99301291  1
  O  O257  1  0.74587749  0.63456310  0.49439905  1
  O  O258  1  0.72900901  0.63696134  1.00142678  1
  O  O259  1  0.26433836  0.37415187  -0.00224109  1
  O  O260  1  0.25721427  0.37247752  0.50717351  1
  O  O261  1  0.25107080  0.87082692  0.01001467  1
  O  O262  1  0.25882283  0.87578516  0.50785205  1
  O  O263  1  0.73979664  0.36338357  0.01218011  1
  O  O264  1  0.74828157  0.36159614  0.50389699  1
  O  O265  1  0.76314221  0.87649717  -0.00559344  1
  O  O266  1  0.74989589  0.87086600  0.50375913  1
  O  O267  1  0.13874666  0.49818302  0.25103487  1
  O  O268  1  0.13074120  0.50102453  0.73567065  1
  O  O269  1  0.13414776  1.00762710  0.24093495  1
  O  O270  1  0.13837904  1.00066745  0.75090001  1
  O  O271  1  0.63634655  0.50013628  0.24396897  1
  O  O272  1  0.62885930  0.49551932  0.74382876  1
  O  O273  1  0.63254963  0.99013978  0.24583867  1
  O  O274  1  0.62891030  0.98779880  0.75631841  1
  O  O275  1  0.36982374  0.00404162  0.26198035  1
  O  O276  1  0.36560372  0.00799557  0.75894075  1
  O  O277  1  0.36647834  0.50429901  0.25765776  1
  O  O278  1  0.36914978  0.50590200  0.75322840  1
  O  O279  1  0.86671217  0.01097494  0.24982148  1
  O  O280  1  0.87316471  -0.00295453  0.76235649  1
  O  O281  1  0.86269175  0.50744679  0.25666902  1
  O  O282  1  0.86350618  0.51429829  0.74454322  1
  O  O283  1  0.11702249  0.36510608  0.37317360  1
  O  O284  1  0.11865280  0.36499453  0.87058791  1
  O  O285  1  0.10864218  0.87120818  0.38293039  1
  O  O286  1  0.11131742  0.87906036  0.87418910  1
  O  O287  1  0.61529248  0.38429847  0.36108141  1
  O  O288  1  0.61011124  0.38073193  0.86418397  1
  O  O289  1  0.62084598  0.86522634  0.36181177  1
  O  O290  1  0.61858277  0.87030716  0.86802307  1
  O  O291  1  0.38132532  0.12608921  0.13119251  1
  O  O292  1  0.37692953  0.12978478  0.64014011  1
  O  O293  1  0.37468050  0.61707832  0.13570375  1
  O  O294  1  0.38584020  0.62084205  0.62847804  1
  O  O295  1  0.88207227  0.13154677  0.13058187  1
  O  O296  1  0.88858335  0.12554274  0.62610402  1
  O  O297  1  0.87764369  0.63569024  0.14099150  1
  O  O298  1  0.88082975  0.63371044  0.63118325  1
  O  O299  1  0.26775453  0.24676626  0.13051960  1
  O  O300  1  0.26153689  0.25408766  0.62658757  1
  O  O301  1  0.24639871  0.76104308  0.11897177  1
  O  O302  1  0.24822957  0.76427880  0.62686332  1
  O  O303  1  0.75443251  0.25492919  0.11879378  1
  O  O304  1  0.75982387  0.25854642  0.62043790  1
  O  O305  1  0.76484653  0.74988524  0.12801891  1
  O  O306  1  0.75200436  0.75760997  0.61547747  1
  O  O307  1  0.24109624  0.24522180  0.38002855  1
  O  O308  1  0.22964095  0.24945106  0.87612533  1
  O  O309  1  0.24564182  0.73514529  0.37283796  1
  O  O310  1  0.24704754  0.74463593  0.87767882  1
  O  O311  1  0.75133313  0.25224899  0.38867144  1
  O  O312  1  0.75678648  0.24513161  0.88575261  1
  O  O313  1  0.74743544  0.74581155  0.37982032  1
  O  O314  1  0.73567958  0.75737839  0.87383149  1
  O  O315  1  0.00812185  0.12151119  0.01178689  1
  O  O316  1  0.00655855  0.11926343  0.50585031  1
  O  O317  1  0.00221520  0.61673300  -0.00140408  1
  O  O318  1  0.00460302  0.63153767  0.51144047  1
  O  O319  1  0.51498912  0.12697174  0.00227254  1
  O  O320  1  0.48663500  0.12212900  0.53127777  1
  O  O321  1  0.50008058  0.62353048  0.00583131  1
  O  O322  1  0.50021766  0.62090679  0.50592297  1
  O  O323  1  0.49473120  0.38150862  0.49400993  1
  O  O324  1  0.49554189  0.37782572  0.99309921  1
  O  O325  1  0.49285439  0.86565327  0.49020715  1
  O  O326  1  0.49922196  0.87258767  0.98733053  1
  O  O327  1  1.00694809  0.38286899  0.48161606  1
  O  O328  1  1.00139871  0.38564625  0.98301531  1
  O  O329  1  0.99810747  0.88656361  0.49463132  1
  O  O330  1  0.99305985  0.88098549  0.99247321  1
  O  O331  1  0.49299133  0.49706460  0.38121534  1
  O  O332  1  0.49243906  0.49316713  0.87963325  1
  O  O333  1  0.49112983  0.98267024  0.36909908  1
  O  O334  1  0.48981717  0.99042377  0.86724780  1
  O  O335  1  0.98508652  0.49912328  0.37683579  1
  O  O336  1  1.00038420  0.48748441  0.87433482  1
  O  O337  1  1.00382061  0.99056725  0.38068208  1
  O  O338  1  0.99407118  0.99785812  0.88069786  1
  O  O339  1  0.00698318  0.00735978  0.12254294  1
  O  O340  1  0.00193118  0.01039755  0.61765739  1
  O  O341  1  -0.00356607  0.50081539  0.12074376  1
  O  O342  1  0.00592283  0.51130154  0.63021420  1
  O  O343  1  0.50336640  0.01135875  0.12444578  1
  O  O344  1  0.50056632  0.01177514  0.63975048  1
  O  O345  1  0.50146312  0.50533728  0.12057944  1
  O  O346  1  0.50413062  0.50800322  0.61827573  1
  O  O347  1  0.24842043  0.38448064  0.25737225  1
  O  O348  1  0.24613317  0.38210169  0.74191980  1
  O  O349  1  0.25304898  0.88556345  0.24526538  1
  O  O350  1  0.25108054  0.88247708  0.74403199  1
  O  O351  1  0.74187100  0.37999720  0.24676976  1
  O  O352  1  0.74109908  0.38398840  0.74600940  1
  O  O353  1  0.74561028  0.88483021  0.25233634  1
  O  O354  1  0.74249426  0.87724266  0.73977286  1
  O  O355  1  0.26152706  0.11014616  0.25362957  1
  O  O356  1  0.25675793  0.11915409  0.75477568  1
  O  O357  1  0.25432403  0.61512298  0.25525910  1
  O  O358  1  0.25504763  0.62212801  0.75163172  1
  O  O359  1  0.76358609  0.11783883  0.25163246  1
  O  O360  1  0.74032327  0.12844839  0.76520163  1
  O  O361  1  0.75559638  0.61733437  0.25579938  1
  O  O362  1  0.75700866  0.61975127  0.74286759  1
  O  O363  1  0.37754003  0.11608176  0.36959276  1
  O  O364  1  0.37416928  0.12101689  0.86779572  1
  O  O365  1  0.36570843  0.61714787  0.36795035  1
  O  O366  1  0.36579967  0.62050204  0.86565954  1
  O  O367  1  0.88614460  0.13252444  0.36015734  1
  O  O368  1  0.86748799  0.11901780  0.88246796  1
  O  O369  1  0.87019381  0.61605590  0.36802187  1
  O  O370  1  0.87211099  0.64153770  0.86156598  1
  O  O371  1  0.12647394  0.37400212  0.12880078  1
  O  O372  1  0.12670713  0.38086242  0.62353290  1
  O  O373  1  0.13091024  0.88760330  0.12030757  1
  O  O374  1  0.13475092  0.88107222  0.62626974  1
  O  O375  1  0.62896400  0.37790130  0.13302902  1
  O  O376  1  0.61695810  0.39002760  0.63489653  1
  O  O377  1  0.62091843  0.87328201  0.13675091  1
  O  O378  1  0.63477581  0.87031838  0.63467526  1
  O  O379  1  0.12828274  0.24464696  0.26294130  1
  O  O380  1  0.12222633  0.24707276  0.76255547  1
  O  O381  1  0.11216930  0.74578786  0.25054650  1
  O  O382  1  0.11024503  0.75283012  0.75186840  1
  O  O383  1  0.62885034  0.25731654  0.24618217  1
  O  O384  1  0.61659204  0.26578065  0.74326626  1
  O  O385  1  0.61971160  0.75324570  0.25178163  1
  O  O386  1  0.61576689  0.75600999  0.75647071  1
  O  O387  1  0.37344346  0.23560255  0.24660674  1
  O  O388  1  0.37940623  0.24405880  0.74672323  1
  O  O389  1  0.38321321  0.73757166  0.25568979  1
  O  O390  1  0.38918494  0.74596150  0.75358071  1
  O  O391  1  0.86659250  0.23761209  0.24018420  1
  O  O392  1  0.87047822  0.24192875  0.72684236  1
  O  O393  1  0.88311908  0.74542252  0.24684958  1
  O  O394  1  0.88277028  0.74897483  0.74317304  1
  O  O395  1  0.37995105  0.49379619  0.49363545  1
  O  O396  1  0.37681942  0.49093013  0.99186269  1
  O  O397  1  0.39246177  0.99750881  0.48677283  1
  O  O398  1  0.37005500  1.00100925  0.98835055  1
  O  O399  1  0.86809445  0.50708732  0.48689143  1
  O  O400  1  0.85380651  0.50527529  0.99418176  1
  O  O401  1  0.88677983  1.00409482  0.49989268  1
  O  O402  1  0.88064035  0.99595626  0.99557601  1
  O  O403  1  0.11754497  0.00982529  0.00877621  1
  O  O404  1  0.11576811  0.01258628  0.50102561  1
  O  O405  1  0.16505676  0.51085844  0.01151788  1
  O  O406  1  0.13002534  0.51101086  0.51249194  1
  O  O407  1  0.63164176  0.01373610  0.00131949  1
  O  O408  1  0.60667969  -0.01214336  0.49823912  1
  O  O409  1  0.61100896  0.51162532  0.00826970  1
  O  O410  1  0.61885689  0.50119175  0.50762228  1
  O  O411  1  0.37739883  0.36322899  0.11458455  1
  O  O412  1  0.37172552  0.36619884  0.61991656  1
  O  O413  1  0.36299349  0.88306096  0.12493488  1
  O  O414  1  0.36965316  0.88188591  0.61324046  1
  O  O415  1  0.86116110  0.36554132  0.13525783  1
  O  O416  1  0.88032367  0.36624678  0.62745673  1
  O  O417  1  0.88144180  0.87090332  0.11567589  1
  O  O418  1  0.86599836  0.86944848  0.62019820  1
  O  O419  1  0.12453615  0.13157084  0.38274071  1
  O  O420  1  0.12036969  0.13634102  0.88863984  1
  O  O421  1  0.12962343  0.62200724  0.38364832  1
  O  O422  1  0.13770569  0.62540965  0.87063069  1
  O  O423  1  0.55594907  0.11205602  0.40376384  1
  O  O424  1  0.63111928  0.12406666  0.88673070  1
  O  O425  1  0.63175159  0.63119712  0.37374147  1
  O  O426  1  0.61354939  0.63656200  0.88357233  1
