# generated using pymatgen
data_V85Zn86O256
_symmetry_space_group_name_H-M   'P 1'
_cell_length_a   16.90599556
_cell_length_b   16.90540774
_cell_length_c   16.90540070
_cell_angle_alpha   90.04788031
_cell_angle_beta   90.07870319
_cell_angle_gamma   90.01417775
_symmetry_Int_Tables_number   1
_chemical_formula_structural   V85Zn86O256
_chemical_formula_sum   'V85 Zn86 O256'
_cell_volume   4831.60358320
_cell_formula_units_Z   1
loop_
 _symmetry_equiv_pos_site_id
 _symmetry_equiv_pos_as_xyz
  1  'x, y, z'
loop_
 _atom_site_type_symbol
 _atom_site_label
 _atom_site_symmetry_multiplicity
 _atom_site_fract_x
 _atom_site_fract_y
 _atom_site_fract_z
 _atom_site_occupancy
  V  V0  1  0.24954273  0.61874696  0.36294440  1
  V  V1  1  -0.00175029  0.61934879  0.12762451  1
  V  V2  1  0.37863819  0.12052039  0.75336660  1
  V  V3  1  0.74710728  0.38122437  0.61896336  1
  V  V4  1  0.24991980  0.75208712  0.01058401  1
  V  V5  1  0.24989552  0.37702607  0.12504220  1
  V  V6  1  0.37705606  0.24999626  0.62583735  1
  V  V7  1  0.37247538  0.12338969  0.24918107  1
  V  V8  1  0.00605802  -0.00118903  -0.00010896  1
  V  V9  1  0.50011602  0.24888190  0.24910199  1
  V  V10  1  0.12174050  0.75031253  0.87601882  1
  V  V11  1  0.37572743  -0.00305959  0.37216406  1
  V  V12  1  0.25138139  0.62493195  0.87706351  1
  V  V13  1  0.37667265  0.37120184  -0.00285763  1
  V  V14  1  0.24803195  0.50260410  0.74849009  1
  V  V15  1  0.62432698  0.13190135  -0.00406762  1
  V  V16  1  0.87299905  0.87596237  -0.00231340  1
  V  V17  1  0.37365267  0.50329178  0.36225254  1
  V  V18  1  0.12558530  0.25028552  0.88065594  1
  V  V19  1  0.62829932  0.62993920  0.50974742  1
  V  V20  1  0.74642937  0.50263695  0.25292117  1
  V  V21  1  -0.00683198  0.37552978  0.38018766  1
  V  V22  1  0.37960055  0.49753295  0.87822312  1
  V  V23  1  0.25228298  0.12685029  0.87695939  1
  V  V24  1  0.45552982  0.81596477  0.31338541  1
  V  V25  1  0.24839894  0.37831148  0.62538330  1
  V  V26  1  0.87528630  0.12552217  0.25117266  1
  V  V27  1  0.12587873  0.61595938  0.51458067  1
  V  V28  1  0.25282651  0.87432939  0.62523010  1
  V  V29  1  0.50627423  0.12838260  0.62133472  1
  V  V30  1  0.37929782  0.87253930  0.49921730  1
  V  V31  1  0.49304705  0.63065213  0.13743019  1
  V  V32  1  -0.00382715  0.49838507  0.51481429  1
  V  V33  1  0.25287552  -0.00132596  0.75431194  1
  V  V34  1  0.75424111  0.86324000  0.61999662  1
  V  V35  1  0.11699148  0.74773751  0.37413066  1
  V  V36  1  0.00588836  0.24911416  0.25791780  1
  V  V37  1  0.63371038  0.75179565  0.37726062  1
  V  V38  1  0.88612413  0.37930439  0.00089773  1
  V  V39  1  0.12496184  0.87414454  0.74855023  1
  V  V40  1  0.62945929  0.00510644  0.61720542  1
  V  V41  1  0.74787760  0.00054986  0.24685170  1
  V  V42  1  0.49768178  0.50562576  0.50741900  1
  V  V43  1  0.75068551  0.25417385  -0.00477906  1
  V  V44  1  0.36742553  0.24830365  0.12157562  1
  V  V45  1  0.12496599  0.37608223  0.75068190  1
  V  V46  1  0.62464475  0.37667493  0.24140114  1
  V  V47  1  0.87421373  0.25707068  0.62018266  1
  V  V48  1  0.11869521  0.61734596  -0.00133288  1
  V  V49  1  0.75343422  0.00111818  0.74758175  1
  V  V50  1  0.11859964  0.87259205  0.23699958  1
  V  V51  1  -0.00036232  0.12787138  0.62653064  1
  V  V52  1  0.62011481  0.87040804  0.75120399  1
  V  V53  1  0.62592016  0.62596875  0.00850724  1
  V  V54  1  0.74915695  0.12953065  0.87272790  1
  V  V55  1  0.24785556  0.12498799  0.37477182  1
  V  V56  1  0.49939678  0.37758203  0.37531961  1
  V  V57  1  0.36808088  0.87919073  -0.00183933  1
  V  V58  1  0.88291044  0.50772969  0.88058063  1
  V  V59  1  0.12969993  0.12463617  0.00473909  1
  V  V60  1  0.25031241  0.74634032  0.50266399  1
  V  V61  1  0.38964748  0.74671191  0.63062740  1
  V  V62  1  0.87429835  0.62679264  0.73627500  1
  V  V63  1  0.87307990  0.85971908  0.50098110  1
  V  V64  1  0.87837894  0.62719448  0.25467357  1
  V  V65  1  0.12542558  0.12717796  0.49621870  1
  V  V66  1  -0.00029392  -0.00372173  0.49995279  1
  V  V67  1  0.12921786  0.37660732  0.25979844  1
  V  V68  1  0.24200233  -0.00324841  0.23617359  1
  V  V69  1  0.50214824  0.12711222  0.12338233  1
  V  V70  1  0.62281947  0.24899694  0.38338623  1
  V  V71  1  0.12750828  0.49855249  0.12803977  1
  V  V72  1  0.49904500  -0.00085399  -0.01359258  1
  V  V73  1  -0.00326914  0.74566209  0.73556185  1
  V  V74  1  0.50422128  0.49890992  0.00809116  1
  V  V75  1  0.62346790  0.86991965  0.24980469  1
  V  V76  1  0.87334612  -0.00181738  0.37684407  1
  V  V77  1  0.74991680  0.37939406  0.12476125  1
  V  V78  1  0.24797419  0.25091954  0.49503306  1
  V  V79  1  0.87725432  0.75088795  0.12823389  1
  V  V80  1  0.62192130  0.37110203  0.76494282  1
  V  V81  1  0.74425048  0.12477604  0.38250502  1
  V  V82  1  0.50236398  0.00068899  0.49436787  1
  V  V83  1  0.00207276  0.12175571  0.12553712  1
  V  V84  1  0.39104410  0.62697368  0.74943877  1
  Zn  Zn85  1  0.87661177  0.25154952  0.12592116  1
  Zn  Zn86  1  0.74749448  0.87237036  0.12393269  1
  Zn  Zn87  1  -0.00142839  0.25229412  0.75169957  1
  Zn  Zn88  1  0.37442837  0.37919447  0.49893998  1
  Zn  Zn89  1  0.75206827  0.62614206  0.38093242  1
  Zn  Zn90  1  0.74735287  0.75323488  -0.00255071  1
  Zn  Zn91  1  0.49125242  0.86828157  0.86813692  1
  Zn  Zn92  1  0.50225091  0.25199885  0.76585430  1
  Zn  Zn93  1  0.62265681  -0.00329746  0.12179219  1
  Zn  Zn94  1  0.75133413  0.25253585  0.49893102  1
  Zn  Zn95  1  0.61677415  0.50393197  0.63434123  1
  Zn  Zn96  1  0.37498534  0.75228932  0.13553432  1
  Zn  Zn97  1  0.61923230  0.74300533  0.87181593  1
  Zn  Zn98  1  0.87373986  0.49833566  0.38172101  1
  Zn  Zn99  1  0.74856647  0.50023086  0.75422366  1
  Zn  Zn100  1  -0.00307453  0.87621153  0.87109546  1
  Zn  Zn101  1  0.00411099  0.37915033  0.87970475  1
  Zn  Zn102  1  0.87541669  0.12907212  0.74994536  1
  Zn  Zn103  1  0.12701537  0.00067939  0.62453159  1
  Zn  Zn104  1  -0.00165350  0.86870124  0.37209951  1
  Zn  Zn105  1  0.87656009  0.00171250  0.87392188  1
  Zn  Zn106  1  0.75085905  0.62784259  0.87649067  1
  Zn  Zn107  1  0.18586828  0.18932512  0.18853948  1
  Zn  Zn108  1  0.18719436  0.18958562  0.68752577  1
  Zn  Zn109  1  0.18262953  0.68892235  0.18770450  1
  Zn  Zn110  1  0.19365543  0.68907127  0.69005244  1
  Zn  Zn111  1  0.68725854  0.19158830  0.18650050  1
  Zn  Zn112  1  0.68721455  0.19403521  0.68795967  1
  Zn  Zn113  1  0.68689593  0.68784227  0.18550145  1
  Zn  Zn114  1  0.68931549  0.68751158  0.68744154  1
  Zn  Zn115  1  0.31252903  0.31442249  0.31202792  1
  Zn  Zn116  1  0.31381776  0.30885461  0.81364937  1
  Zn  Zn117  1  0.28942307  0.81171112  0.31309462  1
  Zn  Zn118  1  0.31531488  0.80917847  0.81669552  1
  Zn  Zn119  1  0.81394554  0.31107164  0.31305816  1
  Zn  Zn120  1  0.81420057  0.31686204  0.81012573  1
  Zn  Zn121  1  0.81257601  0.81167729  0.31172519  1
  Zn  Zn122  1  0.80880323  0.80935441  0.81435877  1
  Zn  Zn123  1  0.18644217  0.44007580  0.43812916  1
  Zn  Zn124  1  0.19186700  0.43717518  0.94054865  1
  Zn  Zn125  1  0.18741336  0.93669016  0.43484323  1
  Zn  Zn126  1  0.18775296  0.93796097  0.93646917  1
  Zn  Zn127  1  0.68275088  0.44136828  0.43659853  1
  Zn  Zn128  1  0.69495944  0.44838204  0.94019459  1
  Zn  Zn129  1  0.68564177  0.93368192  0.43544515  1
  Zn  Zn130  1  0.68828828  0.94195247  0.93575848  1
  Zn  Zn131  1  0.31328506  0.05955730  0.05918651  1
  Zn  Zn132  1  0.31518214  0.06140111  0.56395691  1
  Zn  Zn133  1  0.31234511  0.56406124  0.06722653  1
  Zn  Zn134  1  0.31524973  0.56349454  0.56291347  1
  Zn  Zn135  1  0.81473148  0.06281299  0.06257989  1
  Zn  Zn136  1  0.81669264  0.06276121  0.56185780  1
  Zn  Zn137  1  0.81196658  0.55945682  0.06523456  1
  Zn  Zn138  1  0.81008372  0.56095786  0.56342476  1
  Zn  Zn139  1  0.43939384  0.43815900  0.18510975  1
  Zn  Zn140  1  0.43749705  0.43596305  0.69187994  1
  Zn  Zn141  1  0.43126913  0.94227251  0.17452918  1
  Zn  Zn142  1  0.43882338  0.94056710  0.68319911  1
  Zn  Zn143  1  0.93793005  0.44027847  0.18993284  1
  Zn  Zn144  1  0.93463648  0.43859031  0.69073533  1
  Zn  Zn145  1  0.93924086  0.93851006  0.18577406  1
  Zn  Zn146  1  0.93653516  0.93598194  0.68536830  1
  Zn  Zn147  1  0.06391608  0.05886450  0.31477668  1
  Zn  Zn148  1  0.06459508  0.06134060  0.81331179  1
  Zn  Zn149  1  0.06146637  0.55911030  0.31498718  1
  Zn  Zn150  1  0.06018378  0.56263755  0.80914057  1
  Zn  Zn151  1  0.56345482  0.06039033  0.31166438  1
  Zn  Zn152  1  0.56768760  0.06382232  0.80862845  1
  Zn  Zn153  1  0.56500565  0.56405506  0.31737454  1
  Zn  Zn154  1  0.56497638  0.55652503  0.82176533  1
  Zn  Zn155  1  0.43572073  0.18657460  0.43811460  1
  Zn  Zn156  1  0.43084345  0.18461851  0.93927892  1
  Zn  Zn157  1  0.43569569  0.68010637  0.44222496  1
  Zn  Zn158  1  0.44171323  0.69036335  0.93724930  1
  Zn  Zn159  1  0.93626150  0.18932722  0.43847624  1
  Zn  Zn160  1  0.93703496  0.19046742  0.93700599  1
  Zn  Zn161  1  0.94154182  0.67911516  0.44128325  1
  Zn  Zn162  1  0.93873695  0.68953782  0.93760456  1
  Zn  Zn163  1  0.06491534  0.30717831  0.06634987  1
  Zn  Zn164  1  0.06480915  0.31404299  0.56272142  1
  Zn  Zn165  1  0.05596450  0.80650568  0.06126038  1
  Zn  Zn166  1  0.06546554  0.81141702  0.55950879  1
  Zn  Zn167  1  0.56037418  0.31580640  -0.05881023  1
  Zn  Zn168  1  0.56333798  0.31878325  0.56452631  1
  Zn  Zn169  1  0.55731284  0.81070070  0.06219065  1
  Zn  Zn170  1  0.56622319  0.81608115  0.56125052  1
  O  O171  1  0.12029540  0.13061606  0.11209446  1
  O  O172  1  0.11943376  0.12465642  0.61460282  1
  O  O173  1  0.11887218  0.61826304  0.12096515  1
  O  O174  1  0.13203867  0.62744836  0.61298281  1
  O  O175  1  0.61678279  0.12624914  0.11749810  1
  O  O176  1  0.61535083  0.12126561  0.62807328  1
  O  O177  1  0.61370968  0.62655219  0.11602779  1
  O  O178  1  0.62509827  0.62444451  0.61476811  1
  O  O179  1  0.38095279  0.38287950  0.37642844  1
  O  O180  1  0.36445834  0.38260618  0.88655629  1
  O  O181  1  0.38124457  0.87328588  0.37511532  1
  O  O182  1  0.37474649  0.87448001  0.88934970  1
  O  O183  1  0.88888596  0.37537727  0.37366425  1
  O  O184  1  0.87840416  0.38311890  0.88378205  1
  O  O185  1  0.87626333  0.88002114  0.38177677  1
  O  O186  1  0.87623776  0.87781259  0.88342188  1
  O  O187  1  0.25674975  0.00565536  0.36830065  1
  O  O188  1  0.24367066  0.01011510  0.86156120  1
  O  O189  1  0.25596588  0.51101543  0.37744078  1
  O  O190  1  0.25948776  0.50543876  0.87093492  1
  O  O191  1  0.75047687  0.00618762  0.36545105  1
  O  O192  1  0.75315744  0.00918951  0.86447026  1
  O  O193  1  0.75475052  0.50002197  0.36794802  1
  O  O194  1  0.76628814  0.50608268  0.87216463  1
  O  O195  1  0.23787716  0.49389790  0.12533069  1
  O  O196  1  0.25778115  0.49011404  0.63538722  1
  O  O197  1  0.24821507  1.00447665  0.13780728  1
  O  O198  1  0.25096203  0.99369615  0.63536340  1
  O  O199  1  0.75173443  0.48636189  0.13374113  1
  O  O200  1  0.74665751  0.49016832  0.63071385  1
  O  O201  1  0.74851350  1.00166245  0.13777711  1
  O  O202  1  0.74414161  0.99981915  0.62852870  1
  O  O203  1  0.00610339  0.36770058  0.25725835  1
  O  O204  1  0.01613541  0.37735636  0.75008374  1
  O  O205  1  0.01420723  0.88399798  0.25503083  1
  O  O206  1  0.00387025  0.86420036  0.74912556  1
  O  O207  1  0.50726144  0.37063942  0.25370577  1
  O  O208  1  0.51614121  0.37346532  0.74804381  1
  O  O209  1  0.50469736  0.88358226  0.24866521  1
  O  O210  1  0.51690668  0.88684883  0.74786515  1
  O  O211  1  0.49385385  0.12579249  0.24156153  1
  O  O212  1  0.49446459  0.12666547  0.74162429  1
  O  O213  1  0.50529753  0.61782688  0.23559720  1
  O  O214  1  0.48956541  0.61385132  0.75329166  1
  O  O215  1  0.99979040  0.12913516  0.24610448  1
  O  O216  1  1.00286352  0.12469670  0.73614718  1
  O  O217  1  0.99056647  0.61961722  0.24283016  1
  O  O218  1  0.99208521  0.63715835  0.75065905  1
  O  O219  1  0.37475746  0.25798819  0.01078046  1
  O  O220  1  0.36501229  0.25128233  0.50784882  1
  O  O221  1  0.36333185  0.75787884  -0.00125138  1
  O  O222  1  0.37063511  0.75354351  0.50732211  1
  O  O223  1  0.86784210  0.25897299  0.00322696  1
  O  O224  1  0.87298703  0.24918937  0.51400591  1
  O  O225  1  0.87602134  0.76210107  0.00617748  1
  O  O226  1  0.88186152  0.76038222  0.49621379  1
  O  O227  1  0.13885228  0.24204191  0.50526033  1
  O  O228  1  0.12395851  0.24175458  0.98952326  1
  O  O229  1  0.12925288  0.73814111  0.49417040  1
  O  O230  1  0.12997773  0.74413444  0.99343711  1
  O  O231  1  0.62390883  0.25351202  0.48665517  1
  O  O232  1  0.63295624  0.23933437  0.99934369  1
  O  O233  1  0.61857896  0.73817178  0.49429929  1
  O  O234  1  0.62587338  0.73723786  1.00272464  1
  O  O235  1  0.48642497  0.23602963  0.13115495  1
  O  O236  1  0.49007049  0.24530250  0.62176743  1
  O  O237  1  0.49576640  0.73582698  0.12560376  1
  O  O238  1  0.48845063  0.75720923  0.62273695  1
  O  O239  1  0.99896660  0.23777796  0.13375774  1
  O  O240  1  0.99478344  0.24514577  0.62574308  1
  O  O241  1  0.98773976  0.73622430  0.12363117  1
  O  O242  1  1.00444877  0.75075347  0.63721351  1
  O  O243  1  0.00005197  0.25696321  0.36927665  1
  O  O244  1  0.01010498  0.25339083  0.87150612  1
  O  O245  1  0.01338868  0.74647037  0.37784174  1
  O  O246  1  0.01246546  0.75143526  0.86942514  1
  O  O247  1  0.50398826  0.25381132  0.36962077  1
  O  O248  1  0.49635503  0.24972379  0.87850237  1
  O  O249  1  0.50504904  0.74803812  0.37420338  1
  O  O250  1  0.50614735  0.75557142  0.87445723  1
  O  O251  1  0.24460349  0.12986009  0.49733261  1
  O  O252  1  0.24137107  0.11692146  0.99044668  1
  O  O253  1  0.23968834  0.62616994  0.49517507  1
  O  O254  1  0.24110824  0.63190430  0.99629497  1
  O  O255  1  0.75266726  0.12487733  0.48584797  1
  O  O256  1  0.74528288  0.13236912  0.99556154  1
  O  O257  1  0.73357055  0.61948235  0.49950404  1
  O  O258  1  0.73530232  0.62226287  1.00602210  1
  O  O259  1  0.25983136  0.37762872  0.01573252  1
  O  O260  1  0.24990435  0.36853562  0.50706932  1
  O  O261  1  0.25757720  0.86922765  -0.00323071  1
  O  O262  1  0.25772837  0.86921350  0.50419227  1
  O  O263  1  0.75536379  0.37078105  0.00738640  1
  O  O264  1  0.74257938  0.37620804  0.51468317  1
  O  O265  1  0.75861071  0.87904866  0.00381099  1
  O  O266  1  0.75695158  0.88077967  0.51172810  1
  O  O267  1  0.12006109  0.48881112  0.24087972  1
  O  O268  1  0.13951694  0.49316638  0.75783425  1
  O  O269  1  0.13409023  0.98991225  0.25348416  1
  O  O270  1  0.13284851  0.99254505  0.74648510  1
  O  O271  1  0.63723511  0.49176844  0.25731888  1
  O  O272  1  0.62695725  0.48880997  0.75211672  1
  O  O273  1  0.63170552  0.99009940  0.24920390  1
  O  O274  1  0.63617249  0.99561477  0.73750220  1
  O  O275  1  0.36257134  0.00256875  0.25123602  1
  O  O276  1  0.36915116  0.01212531  0.74442857  1
  O  O277  1  0.37772683  0.49683084  0.26260506  1
  O  O278  1  0.36734024  0.50288858  0.75906481  1
  O  O279  1  0.86783576  0.00375828  0.25658652  1
  O  O280  1  0.86385549  0.00365457  0.74751710  1
  O  O281  1  0.86533963  0.50991566  0.25122188  1
  O  O282  1  0.87728721  0.51515543  0.75669969  1
  O  O283  1  0.11933500  0.37939581  0.36410746  1
  O  O284  1  0.12848011  0.36728382  0.87145272  1
  O  O285  1  0.12433163  0.86317886  0.37106317  1
  O  O286  1  0.12416375  0.86639693  0.86694253  1
  O  O287  1  0.61923644  0.36750529  0.36627454  1
  O  O288  1  0.63004007  0.37870219  0.87008351  1
  O  O289  1  0.62089472  0.86574478  0.36813357  1
  O  O290  1  0.62915329  0.88091207  0.85598480  1
  O  O291  1  0.37718383  0.13021906  0.12843862  1
  O  O292  1  0.38323066  0.13115680  0.63114174  1
  O  O293  1  0.38647705  0.63021610  0.12477090  1
  O  O294  1  0.37103179  0.63442683  0.63614566  1
  O  O295  1  0.88355125  0.12699152  0.13269826  1
  O  O296  1  0.88421039  0.13290521  0.62573033  1
  O  O297  1  0.88168262  0.62815010  0.13021851  1
  O  O298  1  0.87460751  0.62427738  0.63727039  1
  O  O299  1  0.26055063  0.25608877  0.13033351  1
  O  O300  1  0.26081121  0.25367868  0.61979555  1
  O  O301  1  0.25141796  0.74513740  0.11389906  1
  O  O302  1  0.25718185  0.75753076  0.62009330  1
  O  O303  1  0.75218974  0.26008553  0.11553220  1
  O  O304  1  0.75517673  0.26046697  0.62148513  1
  O  O305  1  0.76372353  0.75006172  0.12086691  1
  O  O306  1  0.74881317  0.76497134  0.62309498  1
  O  O307  1  0.25626552  0.24145264  0.38474384  1
  O  O308  1  0.24247591  0.23519063  0.87020052  1
  O  O309  1  0.24055467  0.73722110  0.38411967  1
  O  O310  1  0.23802031  0.74358664  0.88077910  1
  O  O311  1  0.74199604  0.24349017  0.37576083  1
  O  O312  1  0.75554186  0.24625842  0.88708096  1
  O  O313  1  0.73753455  0.74968455  0.37543149  1
  O  O314  1  0.74007054  0.74644458  0.87929298  1
  O  O315  1  0.00519301  0.12004213  0.00688797  1
  O  O316  1  0.00689459  0.12048591  0.50740649  1
  O  O317  1  0.01219361  0.62985281  0.00791077  1
  O  O318  1  0.01500704  0.61115498  0.49954898  1
  O  O319  1  0.50663943  0.12041481  0.00424978  1
  O  O320  1  0.49294757  0.11392339  0.50969233  1
  O  O321  1  0.50716765  0.61795840  0.00857439  1
  O  O322  1  0.51140078  0.61559570  0.49767445  1
  O  O323  1  0.49915274  0.38386184  0.49165062  1
  O  O324  1  0.48686134  0.38380998  1.00436028  1
  O  O325  1  0.49404243  0.89071858  0.50626423  1
  O  O326  1  0.49333250  0.88465941  0.99701641  1
  O  O327  1  1.01206093  0.38825462  0.49305957  1
  O  O328  1  0.98919090  0.36945529  1.00331580  1
  O  O329  1  0.99368169  0.88182079  0.49982114  1
  O  O330  1  0.99486940  0.88324410  0.99864712  1
  O  O331  1  0.49268576  0.49705512  0.38218073  1
  O  O332  1  0.48573650  0.50161626  0.88920116  1
  O  O333  1  0.49148035  1.00654212  0.38346091  1
  O  O334  1  0.50460475  1.00005731  0.88377451  1
  O  O335  1  0.99794416  0.49104942  0.38420742  1
  O  O336  1  0.98960517  0.49794682  0.87329407  1
  O  O337  1  0.99504765  0.99978735  0.38818138  1
  O  O338  1  0.99673850  0.99946946  0.88385799  1
  O  O339  1  -0.00122072  0.01372875  0.11859459  1
  O  O340  1  0.00018068  0.00735670  0.61462356  1
  O  O341  1  0.00926501  0.51027150  0.12635745  1
  O  O342  1  0.00233630  0.49231636  0.61376091  1
  O  O343  1  0.49965493  0.01402555  0.11438064  1
  O  O344  1  0.50891420  0.00965668  0.61792116  1
  O  O345  1  0.49269571  0.51043958  0.11420388  1
  O  O346  1  0.49774080  0.49276532  0.61144190  1
  O  O347  1  0.24033477  0.36930030  0.23942563  1
  O  O348  1  0.24475105  0.38027067  0.74552986  1
  O  O349  1  0.23626648  0.88839500  0.24954828  1
  O  O350  1  0.24801552  0.88138320  0.74709428  1
  O  O351  1  0.74664156  0.37922091  0.24490280  1
  O  O352  1  0.73795921  0.37603663  0.74425308  1
  O  O353  1  0.74215701  0.88374131  0.24913399  1
  O  O354  1  0.74666634  0.88263729  0.73800653  1
  O  O355  1  0.24903721  0.11517022  0.25460793  1
  O  O356  1  0.25619971  0.11800547  0.75336727  1
  O  O357  1  0.24520658  0.62811217  0.26409725  1
  O  O358  1  0.25475908  0.61670943  0.75766689  1
  O  O359  1  0.75402570  0.11991535  0.25632367  1
  O  O360  1  0.74897914  0.12088105  0.75632035  1
  O  O361  1  0.75456307  0.61665639  0.25056477  1
  O  O362  1  0.76345895  0.62631572  0.75081736  1
  O  O363  1  0.36860516  0.11881733  0.36699979  1
  O  O364  1  0.36462993  0.12441521  0.86603242  1
  O  O365  1  0.35853570  0.61981318  0.37877040  1
  O  O366  1  0.36934584  0.61804383  0.87109607  1
  O  O367  1  0.86796247  0.11909477  0.37006720  1
  O  O368  1  0.86360843  0.12443971  0.87339757  1
  O  O369  1  0.87221189  0.62356267  0.36808288  1
  O  O370  1  0.87547771  0.62114219  0.87101387  1
  O  O371  1  0.13068198  0.38017900  0.13012705  1
  O  O372  1  0.14047443  0.36675957  0.63527063  1
  O  O373  1  0.11845511  0.86804289  0.13778863  1
  O  O374  1  0.13515201  0.87520367  0.62996178  1
  O  O375  1  0.63413561  0.37033326  0.13996265  1
  O  O376  1  0.63525880  0.37767330  0.63389513  1
  O  O377  1  0.62552677  0.87618169  0.13358720  1
  O  O378  1  0.63589783  0.88433154  0.62953852  1
  O  O379  1  0.11357633  0.25889278  0.24660836  1
  O  O380  1  0.12606945  0.25767022  0.76092448  1
  O  O381  1  0.13161720  0.76434678  0.25831697  1
  O  O382  1  0.11677361  0.75181276  0.75577940  1
  O  O383  1  0.61803671  0.25646115  0.25697484  1
  O  O384  1  0.62271375  0.26577602  0.75078479  1
  O  O385  1  0.62704235  0.76188976  0.25727252  1
  O  O386  1  0.62793245  0.76786204  0.74460197  1
  O  O387  1  0.38026203  0.24280341  0.24515015  1
  O  O388  1  0.37687852  0.23925569  0.74218156  1
  O  O389  1  0.38120334  0.76720635  0.25670775  1
  O  O390  1  0.37056684  0.73909434  0.74325390  1
  O  O391  1  0.88706734  0.24331252  0.24975796  1
  O  O392  1  0.87856621  0.24918271  0.73834710  1
  O  O393  1  0.87063665  0.73777256  0.24358233  1
  O  O394  1  0.88777584  0.74097197  0.75417292  1
  O  O395  1  0.38242523  0.50094611  0.49149598  1
  O  O396  1  0.37769676  0.49342507  0.99605161  1
  O  O397  1  0.37978993  0.99268046  0.49288788  1
  O  O398  1  0.38219316  0.98943781  1.00092250  1
  O  O399  1  0.89169660  0.50655659  0.50128912  1
  O  O400  1  0.87303105  0.49166266  0.99423885  1
  O  O401  1  0.88271722  0.99319659  0.49456309  1
  O  O402  1  0.88547198  0.99131438  1.00187108  1
  O  O403  1  0.11438308  0.00755152  -0.00391063  1
  O  O404  1  0.11828864  0.00597095  0.50224823  1
  O  O405  1  0.12888886  0.50871151  0.00791598  1
  O  O406  1  0.12020532  0.51044200  0.50134549  1
  O  O407  1  0.61938691  0.01225728  0.00154438  1
  O  O408  1  0.61899435  -0.00242175  0.50892876  1
  O  O409  1  0.61458475  0.50807030  0.00005520  1
  O  O410  1  0.61503158  0.51171570  0.50135344  1
  O  O411  1  0.36860584  0.36805734  0.12227774  1
  O  O412  1  0.36604937  0.36607776  0.62611335  1
  O  O413  1  0.37761024  0.86851113  0.10611014  1
  O  O414  1  0.36937757  0.86960223  0.62146735  1
  O  O415  1  0.86912753  0.37480236  0.11951243  1
  O  O416  1  0.85837532  0.37145762  0.63321986  1
  O  O417  1  0.87605661  0.86672284  0.12019504  1
  O  O418  1  0.86197540  0.87906261  0.61696793  1
  O  O419  1  0.12997991  0.12126434  0.38862606  1
  O  O420  1  0.12976894  0.13115218  0.88309851  1
  O  O421  1  0.13380696  0.62751196  0.38041418  1
  O  O422  1  0.12838006  0.62894930  0.88220477  1
  O  O423  1  0.63291625  0.13532163  0.36710524  1
  O  O424  1  0.63907290  0.12183331  0.88145724  1
  O  O425  1  0.62714394  0.63466013  0.38444034  1
  O  O426  1  0.62694527  0.62242264  0.89190519  1
