# generated using pymatgen
data_V85Zn86O256
_symmetry_space_group_name_H-M   'P 1'
_cell_length_a   16.93227415
_cell_length_b   16.92694848
_cell_length_c   16.93214605
_cell_angle_alpha   90.01499057
_cell_angle_beta   89.90940387
_cell_angle_gamma   90.04081120
_symmetry_Int_Tables_number   1
_chemical_formula_structural   V85Zn86O256
_chemical_formula_sum   'V85 Zn86 O256'
_cell_volume   4852.94424731
_cell_formula_units_Z   1
loop_
 _symmetry_equiv_pos_site_id
 _symmetry_equiv_pos_as_xyz
  1  'x, y, z'
loop_
 _atom_site_type_symbol
 _atom_site_label
 _atom_site_symmetry_multiplicity
 _atom_site_fract_x
 _atom_site_fract_y
 _atom_site_fract_z
 _atom_site_occupancy
  V  V0  1  0.74086337  0.49188219  0.25881074  1
  V  V1  1  -0.00185305  0.38040887  0.37270223  1
  V  V2  1  -0.00235447  0.61957184  0.62957849  1
  V  V3  1  0.75479915  0.76789197  0.50334101  1
  V  V4  1  0.12651812  0.37642259  0.24763327  1
  V  V5  1  0.62697573  0.87684732  0.23871375  1
  V  V6  1  -0.00741181  0.00318468  0.49884553  1
  V  V7  1  0.37788584  0.63144401  0.24924505  1
  V  V8  1  0.11871361  0.12158990  -0.00009063  1
  V  V9  1  0.11170185  0.37016064  0.74966629  1
  V  V10  1  0.62375616  0.74752323  0.87722209  1
  V  V11  1  0.25011818  0.50195031  0.24956760  1
  V  V12  1  0.50653956  0.25348086  0.74889411  1
  V  V13  1  0.37107829  0.87278770  0.49796159  1
  V  V14  1  0.24076667  0.86900435  0.61686069  1
  V  V15  1  0.37573150  0.49841743  0.87540243  1
  V  V16  1  0.87932501  0.12265603  0.24738640  1
  V  V17  1  0.62453792  0.12640323  0.49969213  1
  V  V18  1  0.07902914  0.68984327  0.93776548  1
  V  V19  1  0.37196332  0.62562918  0.74705281  1
  V  V20  1  -0.00058392  0.74818070  0.75560799  1
  V  V21  1  0.87443896  0.88536714  0.00193053  1
  V  V22  1  0.24994384  0.25200458  0.49688745  1
  V  V23  1  0.37616411  0.23518328  0.12963045  1
  V  V24  1  0.36979782  0.74959775  0.61853537  1
  V  V25  1  0.62854949  0.49421676  0.63233824  1
  V  V26  1  0.50459868  0.51838383  0.00608842  1
  V  V27  1  0.50163640  0.50050087  0.50095022  1
  V  V28  1  0.63203479  0.87504116  0.74118061  1
  V  V29  1  0.51266504  0.00360260  -0.00362758  1
  V  V30  1  0.12900887  0.24536952  0.87355368  1
  V  V31  1  0.37026242  0.01050915  0.87620202  1
  V  V32  1  0.25400769  0.37362445  0.12188106  1
  V  V33  1  0.49986936  0.75148669  0.74601408  1
  V  V34  1  -0.00157488  0.89467965  0.88351295  1
  V  V35  1  0.24846129  0.87241063  0.11939539  1
  V  V36  1  -0.00897543  0.87933910  0.37390478  1
  V  V37  1  0.12506258  0.00111489  0.62519071  1
  V  V38  1  0.10985385  0.00585000  0.12326581  1
  V  V39  1  0.62322225  0.74906496  0.36904161  1
  V  V40  1  0.24873959  0.00632854  0.75242787  1
  V  V41  1  0.87600458  0.25092729  0.12298777  1
  V  V42  1  0.37624368  0.75009041  0.12501018  1
  V  V43  1  0.50038727  0.87475937  0.36605299  1
  V  V44  1  0.37532971  0.00175996  0.37177024  1
  V  V45  1  0.24843695  0.49825153  0.75140005  1
  V  V46  1  0.74517210  0.11636589  0.87998100  1
  V  V47  1  0.37333182  0.37513856  0.49645248  1
  V  V48  1  0.37652230  0.24658531  0.62567034  1
  V  V49  1  0.25490511  0.12732647  0.36842951  1
  V  V50  1  0.74712383  0.24977991  0.49875528  1
  V  V51  1  0.25158372  0.63582772  0.88541251  1
  V  V52  1  0.00150197  0.24736471  0.24551018  1
  V  V53  1  0.86807799  0.62222042  0.75037484  1
  V  V54  1  0.51551990  0.11796205  0.12444058  1
  V  V55  1  0.00180113  0.37327786  0.88953834  1
  V  V56  1  0.74432759  0.75570966  0.00712492  1
  V  V57  1  0.88174228  0.61283654  0.25775411  1
  V  V58  1  0.00283170  0.74767434  0.25067447  1
  V  V59  1  0.62931408  0.25732978  0.87097709  1
  V  V60  1  0.74438096  0.25054474  0.00067562  1
  V  V61  1  0.38447138  0.37199599  0.00057840  1
  V  V62  1  0.12289836  0.50613185  0.11062477  1
  V  V63  1  0.88366296  0.12648765  0.75888300  1
  V  V64  1  0.25388407  0.00419187  0.24536175  1
  V  V65  1  0.75773554  -0.00190190  0.74319013  1
  V  V66  1  0.87306111  0.37770340  0.49862048  1
  V  V67  1  0.37225343  0.50038347  0.37438814  1
  V  V68  1  0.87834164  0.49793839  0.88562845  1
  V  V69  1  0.36915390  0.87282299  -0.00457541  1
  V  V70  1  0.63054233  0.62682251  0.50162473  1
  V  V71  1  0.88102427  0.24829584  0.62825061  1
  V  V72  1  0.12488012  0.12700577  0.49818770  1
  V  V73  1  0.12617285  0.87446460  0.25009506  1
  V  V74  1  0.12532591  0.87002497  0.75773559  1
  V  V75  1  0.74559153  -0.00269746  0.23777349  1
  V  V76  1  0.74889706  0.12729645  0.37277039  1
  V  V77  1  0.24541544  0.63591812  0.38230221  1
  V  V78  1  -0.00265565  0.50305223  0.49716082  1
  V  V79  1  0.50028067  -0.00086521  0.49893035  1
  V  V80  1  0.87248001  0.75273668  0.12853325  1
  V  V81  1  0.51422420  0.36888723  0.37147723  1
  V  V82  1  0.49867229  0.87753302  0.86988926  1
  V  V83  1  0.74350352  0.62253750  0.88357594  1
  V  V84  1  0.24857093  0.37521451  0.62531380  1
  Zn  Zn85  1  0.87067575  -0.00179824  0.37734508  1
  Zn  Zn86  1  0.74228458  0.48881315  0.76146145  1
  Zn  Zn87  1  0.00482471  0.13052995  0.63193994  1
  Zn  Zn88  1  0.51203963  0.26173069  0.24270028  1
  Zn  Zn89  1  0.12437454  0.49848704  0.62380770  1
  Zn  Zn90  1  0.12607887  0.64003583  0.51177722  1
  Zn  Zn91  1  0.63067237  -0.00463281  0.62128343  1
  Zn  Zn92  1  0.49983802  0.62585083  0.62463905  1
  Zn  Zn93  1  0.50680935  0.37928982  0.87091907  1
  Zn  Zn94  1  0.86392652  0.77002410  0.63124686  1
  Zn  Zn95  1  0.76005672  0.62341412  0.38036187  1
  Zn  Zn96  1  0.00335281  0.62258169  0.11637356  1
  Zn  Zn97  1  0.12701782  0.25228745  0.37083376  1
  Zn  Zn98  1  0.25669188  0.23779692  -0.00726848  1
  Zn  Zn99  1  0.61956785  0.50289761  0.12931458  1
  Zn  Zn100  1  0.73955268  0.37608326  0.12954161  1
  Zn  Zn101  1  0.37371985  0.12776681  0.75369250  1
  Zn  Zn102  1  0.74582813  0.36736030  0.63370039  1
  Zn  Zn103  1  0.50220600  0.12225672  0.62704347  1
  Zn  Zn104  1  0.12534447  0.76080874  0.39483784  1
  Zn  Zn105  1  0.54262669  0.68280909  0.18167150  1
  Zn  Zn106  1  0.87438755  0.37954345  0.00601001  1
  Zn  Zn107  1  0.18713919  0.18630308  0.18180641  1
  Zn  Zn108  1  0.18770717  0.18973800  0.68786004  1
  Zn  Zn109  1  0.19049871  0.68802851  0.18661291  1
  Zn  Zn110  1  0.18345164  0.68718154  0.69059405  1
  Zn  Zn111  1  0.68689901  0.19064536  0.18629082  1
  Zn  Zn112  1  0.69090890  0.18430143  0.68723448  1
  Zn  Zn113  1  0.70134038  0.67901803  0.18885095  1
  Zn  Zn114  1  0.68891257  0.68601142  0.68582274  1
  Zn  Zn115  1  0.31983582  0.31101564  0.30685408  1
  Zn  Zn116  1  0.31290347  0.31288371  0.81198181  1
  Zn  Zn117  1  0.31164559  0.81297778  0.30943262  1
  Zn  Zn118  1  0.31122188  0.81575162  0.80796552  1
  Zn  Zn119  1  0.81443640  0.31083714  0.31558582  1
  Zn  Zn120  1  0.81459810  0.31156925  0.81322906  1
  Zn  Zn121  1  0.80955468  0.81083362  0.31276595  1
  Zn  Zn122  1  0.81351649  0.81407631  0.81810045  1
  Zn  Zn123  1  0.18263725  0.44288173  0.43687860  1
  Zn  Zn124  1  0.19310507  0.43265465  0.93566516  1
  Zn  Zn125  1  0.18387974  0.94052634  0.43597737  1
  Zn  Zn126  1  0.18446419  0.94141810  0.93879237  1
  Zn  Zn127  1  0.69184915  0.44035249  0.43785257  1
  Zn  Zn128  1  0.68543460  0.43562190  0.94586758  1
  Zn  Zn129  1  0.68409121  0.94195591  0.42881941  1
  Zn  Zn130  1  0.69076605  0.93270279  0.93037988  1
  Zn  Zn131  1  0.30556599  0.05893701  0.05546600  1
  Zn  Zn132  1  0.31057363  0.06133594  0.56132046  1
  Zn  Zn133  1  0.31614326  0.56139944  0.06310034  1
  Zn  Zn134  1  0.31059252  0.56274413  0.56151850  1
  Zn  Zn135  1  0.81351068  0.06757785  0.06470104  1
  Zn  Zn136  1  0.81359963  0.06604258  0.56715815  1
  Zn  Zn137  1  0.80857413  0.56578028  0.06980026  1
  Zn  Zn138  1  0.81238391  0.56277342  0.56366461  1
  Zn  Zn139  1  0.43940482  0.43827075  0.18726680  1
  Zn  Zn140  1  0.43835999  0.43419666  0.68658901  1
  Zn  Zn141  1  0.43915052  0.94317744  0.18389931  1
  Zn  Zn142  1  0.43438073  0.93730503  0.68525988  1
  Zn  Zn143  1  0.94097942  0.43592512  0.18140243  1
  Zn  Zn144  1  0.92840315  0.43689093  0.69120492  1
  Zn  Zn145  1  0.93191057  0.93537370  0.18920917  1
  Zn  Zn146  1  0.93940860  0.94104919  0.68807647  1
  Zn  Zn147  1  0.06541121  0.06383239  0.31147779  1
  Zn  Zn148  1  0.06550721  0.06424842  0.81636225  1
  Zn  Zn149  1  0.06668022  0.56187861  0.31266600  1
  Zn  Zn150  1  0.06007614  0.55319817  0.81195264  1
  Zn  Zn151  1  0.58083063  0.09537977  0.29273058  1
  Zn  Zn152  1  0.56492089  0.06581791  0.80892866  1
  Zn  Zn153  1  0.56253816  0.56091699  0.31954020  1
  Zn  Zn154  1  0.55792026  0.56554208  0.81433774  1
  Zn  Zn155  1  0.43787499  0.18709369  0.43633087  1
  Zn  Zn156  1  0.44364791  0.18774230  0.93859515  1
  Zn  Zn157  1  0.43943109  0.68803096  0.43623830  1
  Zn  Zn158  1  0.43143212  0.69239272  0.93475250  1
  Zn  Zn159  1  0.93670451  0.19123257  0.43298939  1
  Zn  Zn160  1  0.94007246  0.18969647  0.93673268  1
  Zn  Zn161  1  0.94090715  0.69369756  0.43997524  1
  Zn  Zn162  1  0.91702103  0.68930992  0.93915290  1
  Zn  Zn163  1  0.06656835  0.30746884  0.06284796  1
  Zn  Zn164  1  0.06177878  0.31320869  0.56102219  1
  Zn  Zn165  1  0.05758154  0.81835387  0.06799002  1
  Zn  Zn166  1  0.03370949  0.81850346  0.56933642  1
  Zn  Zn167  1  0.56745467  0.31403655  0.06350158  1
  Zn  Zn168  1  0.56189293  0.31255381  0.55932454  1
  Zn  Zn169  1  0.55849620  0.81828134  0.05647610  1
  Zn  Zn170  1  0.56111454  0.81192903  0.55891506  1
  O  O171  1  0.12422071  0.11743922  0.11534726  1
  O  O172  1  0.12530392  0.12258608  0.61571734  1
  O  O173  1  0.12820635  0.61084867  0.12633944  1
  O  O174  1  0.11420395  0.61769638  0.62925997  1
  O  O175  1  0.61417449  0.11947211  0.11941197  1
  O  O176  1  0.62517096  0.11942246  0.61298796  1
  O  O177  1  0.62183720  0.61954911  0.13773953  1
  O  O178  1  0.62160267  0.61659414  0.61705740  1
  O  O179  1  0.37473698  0.38398641  0.38105389  1
  O  O180  1  0.37565420  0.38066920  0.88402956  1
  O  O181  1  0.38014811  0.87725015  0.37934441  1
  O  O182  1  0.37910837  0.88102991  0.87853406  1
  O  O183  1  0.88416812  0.36907800  0.38969007  1
  O  O184  1  0.88467895  0.38090430  0.87952408  1
  O  O185  1  0.88689163  0.87768103  0.36879709  1
  O  O186  1  0.89136565  0.86726305  0.88570724  1
  O  O187  1  0.25355937  0.00731877  0.36636779  1
  O  O188  1  0.25837320  -0.00805473  0.86423408  1
  O  O189  1  0.25322047  0.50912406  0.36926160  1
  O  O190  1  0.25590355  0.50585604  0.86778609  1
  O  O191  1  0.75402810  0.01240670  0.36996025  1
  O  O192  1  0.74831305  0.01186709  0.86657932  1
  O  O193  1  0.75473830  0.50342768  0.36469712  1
  O  O194  1  0.75104734  0.50839673  0.87953892  1
  O  O195  1  0.24606879  0.49300942  0.12990609  1
  O  O196  1  0.24938131  0.49353632  0.63279680  1
  O  O197  1  0.24382207  0.99078946  0.13112910  1
  O  O198  1  0.24445598  0.99080570  0.63072761  1
  O  O199  1  0.75202363  0.49985163  0.14457925  1
  O  O200  1  0.73457720  0.50093941  0.62603849  1
  O  O201  1  0.74974090  1.00430166  0.13906879  1
  O  O202  1  0.75039430  1.00054531  0.63782126  1
  O  O203  1  0.00396584  0.37084701  0.25653295  1
  O  O204  1  0.00941094  0.38031023  0.75632077  1
  O  O205  1  0.00711098  0.86909144  0.25492032  1
  O  O206  1  0.00393505  0.86590402  0.76864381  1
  O  O207  1  0.49911024  0.37857792  0.26619899  1
  O  O208  1  0.49497177  0.35966625  0.75271184  1
  O  O209  1  0.50540512  0.88507735  0.26111981  1
  O  O210  1  0.50557522  0.87144880  0.75317901  1
  O  O211  1  0.49005653  0.09772239  0.22156295  1
  O  O212  1  0.49550357  0.13535444  0.74594147  1
  O  O213  1  0.48315321  0.62349408  0.26247188  1
  O  O214  1  0.48948946  0.63279548  0.74723051  1
  O  O215  1  0.99268632  0.13532498  0.25689827  1
  O  O216  1  0.98760060  0.12161077  0.75261411  1
  O  O217  1  0.99588336  0.63114309  0.24954823  1
  O  O218  1  0.99100900  0.62639862  0.75064628  1
  O  O219  1  0.37569745  0.25577401  0.00714843  1
  O  O220  1  0.36875762  0.25504077  0.50589717  1
  O  O221  1  0.37544329  0.76529114  0.00418797  1
  O  O222  1  0.37798450  0.75484525  0.51097077  1
  O  O223  1  0.86719783  0.24819641  0.00893596  1
  O  O224  1  0.86647765  0.25392982  0.50568609  1
  O  O225  1  0.86494312  0.75804087  0.01043365  1
  O  O226  1  0.85703668  0.74804129  0.49932264  1
  O  O227  1  0.13188916  0.24432974  0.49628363  1
  O  O228  1  0.13068969  0.24132309  0.99422700  1
  O  O229  1  0.10279921  0.75145943  0.50571579  1
  O  O230  1  0.12699055  0.75226134  0.99799809  1
  O  O231  1  0.63831352  0.24304095  0.50584327  1
  O  O232  1  0.63748944  0.24859992  0.99150808  1
  O  O233  1  0.63334364  0.74424560  0.49520505  1
  O  O234  1  0.63081754  0.75866259  0.98945595  1
  O  O235  1  0.49459403  0.23268840  0.12075151  1
  O  O236  1  0.49313558  0.24910360  0.62913828  1
  O  O237  1  0.48288913  0.75812875  0.12128566  1
  O  O238  1  0.49028101  0.74946770  0.62865086  1
  O  O239  1  0.99316305  0.25588167  0.13765688  1
  O  O240  1  0.98652658  0.24737044  0.61786007  1
  O  O241  1  0.99607542  0.74653918  0.13695540  1
  O  O242  1  1.00275883  0.73006242  0.64727027  1
  O  O243  1  0.00254917  0.26192489  0.36444316  1
  O  O244  1  0.01364703  0.26105236  0.87632635  1
  O  O245  1  0.00229050  0.75966524  0.36444603  1
  O  O246  1  0.00903155  0.74079369  0.87450347  1
  O  O247  1  0.49266436  0.26749250  0.37640647  1
  O  O248  1  0.51177218  0.24876168  0.86780771  1
  O  O249  1  0.51276951  0.76021927  0.38133111  1
  O  O250  1  0.50536627  0.75552053  0.86774574  1
  O  O251  1  0.24154842  0.13006183  0.49276455  1
  O  O252  1  0.23240503  0.12485192  1.00092893  1
  O  O253  1  0.24524165  0.62075940  0.48664262  1
  O  O254  1  0.25750848  0.62410967  0.98447810  1
  O  O255  1  0.74654552  0.13035665  0.49443639  1
  O  O256  1  0.75746478  0.12942321  0.98489848  1
  O  O257  1  0.74054994  0.62678298  0.49839779  1
  O  O258  1  0.75480206  0.63801908  0.99048571  1
  O  O259  1  0.26266788  0.37434565  0.01108744  1
  O  O260  1  0.25232173  0.37225553  0.50398730  1
  O  O261  1  0.25585595  0.88176190  0.00784707  1
  O  O262  1  0.25037137  0.87978341  0.51057687  1
  O  O263  1  0.75503183  0.36435101  0.00396879  1
  O  O264  1  0.75739978  0.36760162  0.50209606  1
  O  O265  1  0.75821607  0.86330987  -0.00806939  1
  O  O266  1  0.74516408  0.86651404  0.49586285  1
  O  O267  1  0.13308094  0.49389007  0.24273283  1
  O  O268  1  0.13345590  0.48927723  0.74934378  1
  O  O269  1  0.13428995  0.99525182  0.24362695  1
  O  O270  1  0.12966003  0.99252977  0.74712333  1
  O  O271  1  0.63871979  0.50080886  0.25822517  1
  O  O272  1  0.62058558  0.50573158  0.73520049  1
  O  O273  1  0.63939085  0.99511681  0.25592412  1
  O  O274  1  0.63375988  0.99184513  0.74812819  1
  O  O275  1  0.36035873  -0.00844032  0.25508383  1
  O  O276  1  0.36694398  -0.00007351  0.75728448  1
  O  O277  1  0.36842503  0.50773370  0.25432337  1
  O  O278  1  0.36863363  0.50326784  0.75367946  1
  O  O279  1  0.86516857  0.00670200  0.25077084  1
  O  O280  1  0.87104048  0.01196141  0.74732814  1
  O  O281  1  0.88014640  0.51142904  0.24700851  1
  O  O282  1  0.87086186  0.50817919  0.76412693  1
  O  O283  1  0.11811704  0.37440868  0.36635468  1
  O  O284  1  0.11851966  0.37136561  0.86962015  1
  O  O285  1  0.12106545  0.87726317  0.36094027  1
  O  O286  1  0.11093302  0.88104445  0.87105910  1
  O  O287  1  0.61239083  0.37570541  0.38329367  1
  O  O288  1  0.62650477  0.36173905  0.87660690  1
  O  O289  1  0.61733662  0.86870566  0.36601854  1
  O  O290  1  0.61968111  0.86475623  0.86264138  1
  O  O291  1  0.37409598  0.13446988  0.11520132  1
  O  O292  1  0.37462851  0.13776906  0.62213182  1
  O  O293  1  0.36588049  0.63700576  0.13523210  1
  O  O294  1  0.37363260  0.63310815  0.62844029  1
  O  O295  1  0.87208464  0.13597415  0.13842519  1
  O  O296  1  0.87857923  0.13190297  0.63740280  1
  O  O297  1  0.88167090  0.63465547  0.13501488  1
  O  O298  1  0.87782248  0.62422371  0.63930752  1
  O  O299  1  0.26261895  0.25616119  0.12433315  1
  O  O300  1  0.25714551  0.25625687  0.61903235  1
  O  O301  1  0.25755421  0.76498384  0.12928473  1
  O  O302  1  0.25542588  0.75863545  0.63142008  1
  O  O303  1  0.75584751  0.24938758  0.11815595  1
  O  O304  1  0.76131429  0.24732539  0.61629848  1
  O  O305  1  0.75880926  0.74919832  0.11842208  1
  O  O306  1  0.74973880  0.75129095  0.61061856  1
  O  O307  1  0.25212057  0.24414580  0.37670250  1
  O  O308  1  0.23535742  0.25936356  0.87726592  1
  O  O309  1  0.24634085  0.73961735  0.37409753  1
  O  O310  1  0.25311340  0.73478155  0.86738256  1
  O  O311  1  0.75495680  0.23688103  0.38291995  1
  O  O312  1  0.74658351  0.24133292  0.88099809  1
  O  O313  1  0.73999898  0.74838337  0.38466048  1
  O  O314  1  0.74182836  0.74381285  0.88217465  1
  O  O315  1  0.01694166  0.13124761  -0.00240836  1
  O  O316  1  0.01324158  0.12257419  0.49279525  1
  O  O317  1  0.00989639  0.63837695  -0.00547723  1
  O  O318  1  -0.00645941  0.61787605  0.51166308  1
  O  O319  1  0.49794963  0.11020827  0.00503070  1
  O  O320  1  0.50757775  0.11840986  0.49956528  1
  O  O321  1  0.49153697  0.61660745  -0.00357664  1
  O  O322  1  0.50953489  0.61680010  0.49974222  1
  O  O323  1  0.49366688  0.38164098  0.49211201  1
  O  O324  1  0.49091011  0.37657402  0.99624515  1
  O  O325  1  0.49466362  0.88147717  0.49068943  1
  O  O326  1  0.49084273  0.88614790  0.98955687  1
  O  O327  1  0.99500464  0.38134121  0.49259644  1
  O  O328  1  0.99869065  0.37231740  0.99298265  1
  O  O329  1  1.01508022  0.89424376  0.48120909  1
  O  O330  1  0.99380342  0.87278449  0.98941261  1
  O  O331  1  0.49467279  0.49161279  0.38614770  1
  O  O332  1  0.49291182  0.49920866  0.88332386  1
  O  O333  1  0.49236735  0.99329223  0.38537589  1
  O  O334  1  0.49282347  0.99864588  0.87956164  1
  O  O335  1  1.00330567  0.48980134  0.38165482  1
  O  O336  1  0.99041491  0.48951625  0.87592290  1
  O  O337  1  0.99762055  0.99660885  0.37808123  1
  O  O338  1  0.99552491  0.99267946  0.87627870  1
  O  O339  1  0.01155484  -0.00345234  0.13422354  1
  O  O340  1  0.00953225  0.00951317  0.61525164  1
  O  O341  1  0.01764142  0.50141367  0.12348959  1
  O  O342  1  -0.00306229  0.50733275  0.62262756  1
  O  O343  1  0.49549561  0.00373206  0.10336837  1
  O  O344  1  0.49682688  0.00014637  0.61036354  1
  O  O345  1  0.49409911  0.50265840  0.10973625  1
  O  O346  1  0.50665940  0.49948172  0.61467779  1
  O  O347  1  0.24976181  0.37920915  0.23842228  1
  O  O348  1  0.24486242  0.38497791  0.74598403  1
  O  O349  1  0.24197141  0.88174704  0.24375673  1
  O  O350  1  0.24036182  0.88184904  0.74215503  1
  O  O351  1  0.75813055  0.38900022  0.25401085  1
  O  O352  1  0.75716563  0.37804220  0.74548567  1
  O  O353  1  0.74336151  0.88849548  0.25533110  1
  O  O354  1  0.74494631  0.88422054  0.75768609  1
  O  O355  1  0.24595486  0.11708333  0.25604009  1
  O  O356  1  0.25149907  0.11041639  0.74358323  1
  O  O357  1  0.25779527  0.62265762  0.26109584  1
  O  O358  1  0.25172458  0.61337838  0.75531004  1
  O  O359  1  0.75656042  0.11657195  0.25606654  1
  O  O360  1  0.75937820  0.11693487  0.75849779  1
  O  O361  1  0.76784600  0.61411600  0.25777810  1
  O  O362  1  0.75416108  0.62301726  0.76165335  1
  O  O363  1  0.36248815  0.11946917  0.37954771  1
  O  O364  1  0.37566274  0.11406602  0.87598196  1
  O  O365  1  0.36391325  0.62257620  0.37265820  1
  O  O366  1  0.36571762  0.62078296  0.86674372  1
  O  O367  1  0.86885788  0.12511524  0.36312479  1
  O  O368  1  0.86557402  0.13201402  0.86396125  1
  O  O369  1  0.88094151  0.63045909  0.36089714  1
  O  O370  1  0.86454740  0.61820251  0.86823700  1
  O  O371  1  0.13566352  0.38133135  0.12761347  1
  O  O372  1  0.12949989  0.37440680  0.63329096  1
  O  O373  1  0.12989338  0.88209495  0.13323143  1
  O  O374  1  0.12675563  0.88068779  0.63643233  1
  O  O375  1  0.62505070  0.38480685  0.12617786  1
  O  O376  1  0.62516420  0.39105978  0.61726491  1
  O  O377  1  0.61635543  0.87098801  0.13974040  1
  O  O378  1  0.62010955  0.87431202  0.63775977  1
  O  O379  1  0.11832176  0.25677993  0.24712412  1
  O  O380  1  0.12957093  0.25949021  0.75754937  1
  O  O381  1  0.11843874  0.75891383  0.24903043  1
  O  O382  1  0.11767880  0.76203346  0.75243541  1
  O  O383  1  0.60746393  0.20681836  0.26144731  1
  O  O384  1  0.61882782  0.24445234  0.75605696  1
  O  O385  1  0.62757820  0.75462985  0.25651526  1
  O  O386  1  0.62124902  0.75530876  0.75415627  1
  O  O387  1  0.38681229  0.25161928  0.23271733  1
  O  O388  1  0.37887142  0.24787069  0.74135969  1
  O  O389  1  0.37185846  0.74389892  0.24054742  1
  O  O390  1  0.37866087  0.74811279  0.73786362  1
  O  O391  1  0.88162394  0.24356307  0.24500176  1
  O  O392  1  0.87249483  0.23568343  0.74303373  1
  O  O393  1  0.88122246  0.74367383  0.24537593  1
  O  O394  1  0.88085176  0.74205067  0.75268446  1
  O  O395  1  0.38352733  0.49664839  0.49658355  1
  O  O396  1  0.38315299  0.49248714  0.99530056  1
  O  O397  1  0.37850450  0.99296569  0.49324994  1
  O  O398  1  0.37793713  0.99076217  0.99077607  1
  O  O399  1  0.88505866  0.49127887  0.50581189  1
  O  O400  1  0.86930515  0.50309611  0.99016199  1
  O  O401  1  0.88903267  1.01045988  0.49883578  1
  O  O402  1  0.86903040  0.98493810  1.00968404  1
  O  O403  1  0.12327091  0.01054827  0.00848021  1
  O  O404  1  0.12116660  0.01170292  0.50384849  1
  O  O405  1  0.13397830  0.49628185  0.01263795  1
  O  O406  1  0.10871485  0.50336336  0.50383940  1
  O  O407  1  0.61090447  -0.00799502  -0.01087574  1
  O  O408  1  0.61599880  0.00357591  0.50172990  1
  O  O409  1  0.60704784  0.50259734  -0.00230679  1
  O  O410  1  0.61974101  0.50772123  0.50584751  1
  O  O411  1  0.37244172  0.36643687  0.11887128  1
  O  O412  1  0.37006034  0.36520371  0.61760110  1
  O  O413  1  0.36678190  0.87343895  0.11644493  1
  O  O414  1  0.36329581  0.86834473  0.61886265  1
  O  O415  1  0.87188135  0.36245955  0.12556337  1
  O  O416  1  0.87544732  0.36694327  0.61447625  1
  O  O417  1  0.88229354  0.86071530  0.11849545  1
  O  O418  1  0.93009612  0.85926147  0.61500657  1
  O  O419  1  0.13775628  0.12803872  0.38011889  1
  O  O420  1  0.12470759  0.13315864  0.88350549  1
  O  O421  1  0.13733172  0.62897014  0.37612130  1
  O  O422  1  0.13399130  0.62294065  0.87702662  1
  O  O423  1  0.63517340  0.11710335  0.39234309  1
  O  O424  1  0.64149951  0.13284652  0.86965240  1
  O  O425  1  0.62663828  0.63361818  0.38394350  1
  O  O426  1  0.63009321  0.63799578  0.87024605  1
