# generated using pymatgen
data_V85Zn86O256
_symmetry_space_group_name_H-M   'P 1'
_cell_length_a   16.93363669
_cell_length_b   16.92426718
_cell_length_c   16.92956780
_cell_angle_alpha   90.06986408
_cell_angle_beta   90.00652787
_cell_angle_gamma   89.96128758
_symmetry_Int_Tables_number   1
_chemical_formula_structural   V85Zn86O256
_chemical_formula_sum   'V85 Zn86 O256'
_cell_volume   4851.82979120
_cell_formula_units_Z   1
loop_
 _symmetry_equiv_pos_site_id
 _symmetry_equiv_pos_as_xyz
  1  'x, y, z'
loop_
 _atom_site_type_symbol
 _atom_site_label
 _atom_site_symmetry_multiplicity
 _atom_site_fract_x
 _atom_site_fract_y
 _atom_site_fract_z
 _atom_site_occupancy
  V  V0  1  0.00367115  0.61026203  0.61971961  1
  V  V1  1  0.25042873  0.62366558  0.37365765  1
  V  V2  1  0.37400112  0.86481895  0.00132913  1
  V  V3  1  0.61860294  0.50782749  0.62411400  1
  V  V4  1  0.62662923  0.75278074  0.36034500  1
  V  V5  1  0.85949044  0.50520533  0.37698557  1
  V  V6  1  0.37200960  0.37564150  0.50092953  1
  V  V7  1  0.62682447  0.36573349  0.25333420  1
  V  V8  1  0.62388679  0.62319944  -0.00039649  1
  V  V9  1  0.62395448  0.13113790  0.00049211  1
  V  V10  1  0.00158965  0.74857489  0.74558155  1
  V  V11  1  0.12862713  0.37335441  0.24460781  1
  V  V12  1  0.49234590  0.86472781  0.35705486  1
  V  V13  1  0.12446655  0.61039023  0.50225942  1
  V  V14  1  0.12403087  0.74870269  0.37835283  1
  V  V15  1  0.37366029  0.00121650  0.87708149  1
  V  V16  1  0.75182430  0.75264699  -0.00176427  1
  V  V17  1  0.87514082  0.75512257  0.12559250  1
  V  V18  1  -0.00358051  0.24891805  0.25402780  1
  V  V19  1  0.37770604  0.63729538  0.24410841  1
  V  V20  1  0.87179392  0.24806626  0.12012369  1
  V  V21  1  -0.00882915  0.87600944  0.38161301  1
  V  V22  1  0.36287989  0.11562794  0.24395175  1
  V  V23  1  0.12133090  0.37759843  0.73572975  1
  V  V24  1  0.75318380  0.62654482  0.87391357  1
  V  V25  1  0.00042882  0.87629396  0.87483743  1
  V  V26  1  0.62692666  0.74968725  0.87246418  1
  V  V27  1  0.37971016  0.48540858  0.87734979  1
  V  V28  1  0.74969010  0.50146552  0.74854582  1
  V  V29  1  0.87894460  0.49091708  0.87389312  1
  V  V30  1  0.00476112  0.13139358  0.62271946  1
  V  V31  1  0.55329629  0.06683555  0.17539664  1
  V  V32  1  0.24970961  0.12868375  0.87942405  1
  V  V33  1  0.48767159  -0.01876837  0.50764192  1
  V  V34  1  0.00129462  0.38910525  0.37717992  1
  V  V35  1  0.75212260  0.00164538  0.75240563  1
  V  V36  1  0.50042089  0.87413012  0.87385472  1
  V  V37  1  0.50536179  0.00423686  -0.00073469  1
  V  V38  1  0.12206362  0.26428067  0.87901237  1
  V  V39  1  0.12428056  0.62259089  -0.00015178  1
  V  V40  1  0.75225690  0.37819174  0.12073279  1
  V  V41  1  0.13064220  0.00095873  0.12963167  1
  V  V42  1  0.50086558  0.48632210  -0.00190606  1
  V  V43  1  0.74799413  0.24565155  0.49064526  1
  V  V44  1  0.74707680  0.37662999  0.62110322  1
  V  V45  1  0.12849385  0.87678366  0.74609104  1
  V  V46  1  0.12664383  0.00685048  0.62068451  1
  V  V47  1  0.87473005  0.25213604  0.62576514  1
  V  V48  1  0.00022281  0.74847055  0.25176081  1
  V  V49  1  0.87824873  0.75329506  0.61355212  1
  V  V50  1  0.24992997  0.86653342  0.12662881  1
  V  V51  1  0.37673914  0.75368675  0.62255869  1
  V  V52  1  0.24365898  0.25161261  0.49890078  1
  V  V53  1  0.00041282  0.62275569  0.12512249  1
  V  V54  1  0.12687257  0.12726786  0.00120739  1
  V  V55  1  0.37615112  0.12714694  0.75176153  1
  V  V56  1  0.73408614  0.88442773  0.12680972  1
  V  V57  1  0.25327712  0.49503377  0.23922939  1
  V  V58  1  0.62883959  0.50400056  0.13663472  1
  V  V59  1  0.00210396  0.00074038  0.00038782  1
  V  V60  1  0.36920182  0.25562078  0.62507780  1
  V  V61  1  0.25537243  0.26550092  0.01302125  1
  V  V62  1  0.63072546  0.62891508  0.49465437  1
  V  V63  1  0.86757572  0.11811332  0.25987407  1
  V  V64  1  0.61747745  0.37297838  0.75340286  1
  V  V65  1  0.37893188  0.62205063  0.74570701  1
  V  V66  1  0.12828455  0.87862428  0.25348090  1
  V  V67  1  0.87783872  0.62585276  0.74789102  1
  V  V68  1  0.50218104  0.74439238  0.74537480  1
  V  V69  1  0.24898148  0.49317663  0.73666128  1
  V  V70  1  0.12605811  0.74767453  0.87393074  1
  V  V71  1  0.49614988  0.63658877  0.12418883  1
  V  V72  1  -0.00649071  0.00169813  0.50158248  1
  V  V73  1  0.37736350  0.49907066  0.36918397  1
  V  V74  1  -0.00076157  0.48990441  -0.00215762  1
  V  V75  1  0.38535036  0.26019765  0.13302853  1
  V  V76  1  0.74935616  0.13485504  0.87958326  1
  V  V77  1  0.49806713  0.50693933  0.50021553  1
  V  V78  1  0.75484577  0.87579243  0.61558061  1
  V  V79  1  0.86115658  0.62116814  0.25033998  1
  V  V80  1  0.24400982  0.11818019  0.37943272  1
  V  V81  1  0.25210696  0.75541212  0.50083653  1
  V  V82  1  0.62463874  -0.00092747  0.62570373  1
  V  V83  1  0.49842547  0.12937198  0.62009424  1
  V  V84  1  0.25160769  0.62083479  0.87371428  1
  Zn  Zn85  1  0.73041759  -0.00088293  0.25469003  1
  Zn  Zn86  1  0.87908430  0.38288273  0.50120731  1
  Zn  Zn87  1  0.87530031  0.00370391  0.87586283  1
  Zn  Zn88  1  0.49861074  0.36887363  0.36765430  1
  Zn  Zn89  1  0.36798567  -0.00737758  0.37789280  1
  Zn  Zn90  1  0.12167076  0.24731086  0.37797818  1
  Zn  Zn91  1  0.49427890  0.25545863  0.75968848  1
  Zn  Zn92  1  0.62947715  0.12061186  0.49783198  1
  Zn  Zn93  1  0.25462065  0.74251889  0.00354170  1
  Zn  Zn94  1  0.61535929  0.23549278  0.36874031  1
  Zn  Zn95  1  0.62729075  0.87421574  0.75094616  1
  Zn  Zn96  1  0.87760284  0.12710429  0.75237645  1
  Zn  Zn97  1  0.87552949  0.87771233  0.00100731  1
  Zn  Zn98  1  0.12886643  0.49539650  0.12121365  1
  Zn  Zn99  1  0.87195960  0.36694514  -0.00579900  1
  Zn  Zn100  1  0.25405217  0.88048571  0.61930659  1
  Zn  Zn101  1  0.24953671  0.00224813  0.74948228  1
  Zn  Zn102  1  -0.00082631  0.12332223  0.12928516  1
  Zn  Zn103  1  -0.00304441  0.25510704  0.75784344  1
  Zn  Zn104  1  0.61829083  0.26077413  0.88749220  1
  Zn  Zn105  1  0.85845731  -0.00139298  0.38625184  1
  Zn  Zn106  1  0.75269134  0.75007233  0.49043879  1
  Zn  Zn107  1  0.18752507  0.18801325  0.19121447  1
  Zn  Zn108  1  0.18875414  0.19092198  0.68997394  1
  Zn  Zn109  1  0.18757763  0.68540126  0.18895484  1
  Zn  Zn110  1  0.18860243  0.68375024  0.68437464  1
  Zn  Zn111  1  0.69621227  0.19100990  0.18828597  1
  Zn  Zn112  1  0.68723530  0.18744045  0.68560656  1
  Zn  Zn113  1  0.68602663  0.69283968  0.18347458  1
  Zn  Zn114  1  0.68996936  0.68772179  0.68277877  1
  Zn  Zn115  1  0.31429426  0.30815580  0.31103671  1
  Zn  Zn116  1  0.30709898  0.31157442  0.81270094  1
  Zn  Zn117  1  0.31007627  0.81385770  0.31399900  1
  Zn  Zn118  1  0.31258562  0.81041716  0.81207988  1
  Zn  Zn119  1  0.81188170  0.31900054  0.30690964  1
  Zn  Zn120  1  0.80591177  0.31246111  0.80853208  1
  Zn  Zn121  1  0.80764594  0.81793517  0.30862187  1
  Zn  Zn122  1  0.81590714  0.81591842  0.80696851  1
  Zn  Zn123  1  0.19140470  0.43432572  0.43077121  1
  Zn  Zn124  1  0.19101310  0.43964643  0.93589351  1
  Zn  Zn125  1  0.18132688  0.93840165  0.44102356  1
  Zn  Zn126  1  0.18829799  0.93679899  0.93911531  1
  Zn  Zn127  1  0.68693675  0.43690494  0.43792264  1
  Zn  Zn128  1  0.68999662  0.43959625  0.93966313  1
  Zn  Zn129  1  0.67863784  0.93542536  0.43514222  1
  Zn  Zn130  1  0.68776993  0.94027925  0.93913637  1
  Zn  Zn131  1  0.31203380  0.05901941  0.06236530  1
  Zn  Zn132  1  0.31097330  0.06661642  0.56219470  1
  Zn  Zn133  1  0.31782454  0.55872298  0.06029587  1
  Zn  Zn134  1  0.31386231  0.56846542  0.56080500  1
  Zn  Zn135  1  0.81345190  0.06438671  0.06375966  1
  Zn  Zn136  1  0.81548928  0.06609186  0.56589088  1
  Zn  Zn137  1  0.81255408  0.56233214  0.06204122  1
  Zn  Zn138  1  0.81270113  0.56484959  0.56004435  1
  Zn  Zn139  1  0.44478632  0.44106689  0.18497269  1
  Zn  Zn140  1  0.43650442  0.43918903  0.68297716  1
  Zn  Zn141  1  0.42627179  0.93318476  0.18889983  1
  Zn  Zn142  1  0.43707371  0.93497055  0.69159033  1
  Zn  Zn143  1  0.93674342  0.43832700  0.18902202  1
  Zn  Zn144  1  0.93783584  0.43456836  0.68921269  1
  Zn  Zn145  1  0.94178210  0.93754636  0.18923321  1
  Zn  Zn146  1  0.93768122  0.93936940  0.68709288  1
  Zn  Zn147  1  0.06028965  0.06236483  0.31492933  1
  Zn  Zn148  1  0.06369164  0.06726291  0.80953118  1
  Zn  Zn149  1  0.06465641  0.56264582  0.30909048  1
  Zn  Zn150  1  0.06269950  0.55767979  0.80992145  1
  Zn  Zn151  1  0.55424923  0.06077035  0.33696401  1
  Zn  Zn152  1  0.56247283  0.06856843  0.81243485  1
  Zn  Zn153  1  0.56043315  0.56804052  0.31237850  1
  Zn  Zn154  1  0.56188423  0.56015364  0.81401092  1
  Zn  Zn155  1  0.43452005  0.18539615  0.43362747  1
  Zn  Zn156  1  0.43962618  0.19497380  0.94369141  1
  Zn  Zn157  1  0.43888825  0.68680052  0.43719322  1
  Zn  Zn158  1  0.44015337  0.68096818  0.93331741  1
  Zn  Zn159  1  0.93585054  0.18976253  0.43994068  1
  Zn  Zn160  1  0.94019219  0.18534372  0.93764485  1
  Zn  Zn161  1  0.93971044  0.68103081  0.43654640  1
  Zn  Zn162  1  0.93887569  0.68544152  0.93746527  1
  Zn  Zn163  1  0.06028830  0.31038058  0.06621263  1
  Zn  Zn164  1  0.06079512  0.31672224  0.55954870  1
  Zn  Zn165  1  0.06455404  0.81071164  0.06199446  1
  Zn  Zn166  1  0.06474995  0.81163625  0.56098799  1
  Zn  Zn167  1  0.56358931  0.31077918  0.07113473  1
  Zn  Zn168  1  0.55863378  0.31504352  0.55679316  1
  Zn  Zn169  1  0.56109709  0.81273144  0.05871888  1
  Zn  Zn170  1  0.56745307  0.80860063  0.56653079  1
  O  O171  1  0.12502902  0.11672926  0.12157491  1
  O  O172  1  0.11872145  0.11901764  0.63129693  1
  O  O173  1  0.11933243  0.62197098  0.11747118  1
  O  O174  1  0.11584395  0.62698538  0.61571030  1
  O  O175  1  0.62148471  0.12643409  0.12312416  1
  O  O176  1  0.61667672  0.11804475  0.62109543  1
  O  O177  1  0.62060941  0.62051743  0.11914426  1
  O  O178  1  0.62818958  0.61346688  0.61794630  1
  O  O179  1  0.37612528  0.38599090  0.37802590  1
  O  O180  1  0.37224186  0.38639480  0.86961733  1
  O  O181  1  0.38623967  0.87389689  0.37381301  1
  O  O182  1  0.37780234  0.88290956  0.87998806  1
  O  O183  1  0.88274755  0.39087486  0.37003874  1
  O  O184  1  0.86697705  0.38631795  0.87446468  1
  O  O185  1  0.88892387  0.87588057  0.36739078  1
  O  O186  1  0.89015530  0.87688344  0.87508422  1
  O  O187  1  0.24995507  0.01285920  0.38641799  1
  O  O188  1  0.25692451  0.00853377  0.87665135  1
  O  O189  1  0.25965945  0.50584791  0.36532451  1
  O  O190  1  0.25815750  0.50788660  0.86823889  1
  O  O191  1  0.74942768  -0.01790645  0.36514397  1
  O  O192  1  0.75167814  0.00576243  0.86651525  1
  O  O193  1  0.76110501  0.49864257  0.37243568  1
  O  O194  1  0.75766977  0.50778418  0.86914714  1
  O  O195  1  0.25110265  0.50083167  0.13555240  1
  O  O196  1  0.25503653  0.50448939  0.63865003  1
  O  O197  1  0.23621855  0.98705661  0.11706025  1
  O  O198  1  0.24241632  1.00004182  0.62743176  1
  O  O199  1  0.73973721  0.49550784  0.12014710  1
  O  O200  1  0.74433331  0.49462955  0.62816219  1
  O  O201  1  0.75312658  0.98669282  0.12617634  1
  O  O202  1  0.74390214  0.99637889  0.62984570  1
  O  O203  1  0.00379576  0.37004695  0.25974068  1
  O  O204  1  0.01634503  0.37596334  0.75012729  1
  O  O205  1  0.01039653  0.86794836  0.25624233  1
  O  O206  1  0.01086461  0.87168577  0.75507259  1
  O  O207  1  0.52168857  0.38195585  0.24807378  1
  O  O208  1  0.51463182  0.37807412  0.74418063  1
  O  O209  1  0.49643171  0.87505644  0.25880443  1
  O  O210  1  0.50242930  0.86525122  0.75815616  1
  O  O211  1  0.49109130  0.11381580  0.24322825  1
  O  O212  1  0.49350317  0.12617052  0.73734931  1
  O  O213  1  0.48893387  0.61961964  0.23740983  1
  O  O214  1  0.49079661  0.63138516  0.75529094  1
  O  O215  1  0.99270998  0.13402499  0.25090020  1
  O  O216  1  0.99910849  0.13173700  0.73824738  1
  O  O217  1  0.99533559  0.63096033  0.24248233  1
  O  O218  1  0.99823276  0.62916889  0.74162912  1
  O  O219  1  0.36203570  0.24454930  0.01671632  1
  O  O220  1  0.36759335  0.25872729  0.50594724  1
  O  O221  1  0.37557418  0.76150285  -0.01003308  1
  O  O222  1  0.36705386  0.73913544  0.51186792  1
  O  O223  1  0.88543816  0.25057496  0.01521247  1
  O  O224  1  0.86545515  0.25617536  0.50923909  1
  O  O225  1  0.87137398  0.75034417  0.00892274  1
  O  O226  1  0.87243514  0.74274739  0.50961625  1
  O  O227  1  0.13948035  0.25865939  0.49832785  1
  O  O228  1  0.13413612  0.24834714  0.99736231  1
  O  O229  1  0.13315691  0.74208973  0.49459383  1
  O  O230  1  0.12593943  0.74048502  0.99081987  1
  O  O231  1  0.64115158  0.25286010  0.50442493  1
  O  O232  1  0.62252706  0.23600752  1.00492236  1
  O  O233  1  0.62584717  0.74136251  0.49592584  1
  O  O234  1  0.63088312  0.74346921  0.99139713  1
  O  O235  1  0.48368311  0.24618814  0.12242916  1
  O  O236  1  0.48893163  0.24350509  0.62301428  1
  O  O237  1  0.50267781  0.73642955  0.11788911  1
  O  O238  1  0.49439132  0.75138041  0.63804299  1
  O  O239  1  0.99268632  0.25031082  0.13975583  1
  O  O240  1  0.99296315  0.24728987  0.62384873  1
  O  O241  1  0.99309477  0.74394987  0.12868764  1
  O  O242  1  0.99410523  0.74574870  0.62854696  1
  O  O243  1  -0.00255018  0.25974147  0.36691011  1
  O  O244  1  0.01595560  0.24475124  0.87504380  1
  O  O245  1  0.00477580  0.75650540  0.37299402  1
  O  O246  1  0.00602265  0.75623965  0.86813470  1
  O  O247  1  0.50532486  0.25809282  0.38986031  1
  O  O248  1  0.50644261  0.24606075  0.87188363  1
  O  O249  1  0.50274036  0.75984668  0.37582276  1
  O  O250  1  0.50561702  0.75270294  0.86506831  1
  O  O251  1  0.25629547  0.13537759  0.48701949  1
  O  O252  1  0.24588235  0.12989768  0.99276435  1
  O  O253  1  0.24420776  0.63308974  0.49353291  1
  O  O254  1  0.24527793  0.62231159  0.99143211  1
  O  O255  1  0.75191608  0.14244868  0.50731007  1
  O  O256  1  0.73913269  0.11503393  0.99067644  1
  O  O257  1  0.73541259  0.62670650  0.50059101  1
  O  O258  1  0.74537172  0.63280243  0.99439219  1
  O  O259  1  0.24935165  0.36397686  0.00180967  1
  O  O260  1  0.26376502  0.36937831  0.49246833  1
  O  O261  1  0.25699698  0.87004789  0.00514357  1
  O  O262  1  0.24477302  0.86012419  0.49965030  1
  O  O263  1  0.75257558  0.37805438  0.01339978  1
  O  O264  1  0.75189504  0.37071274  0.51001320  1
  O  O265  1  0.75486747  0.87132107  0.00804491  1
  O  O266  1  0.74625385  0.87357086  0.51347437  1
  O  O267  1  0.13577419  0.49320849  0.24829444  1
  O  O268  1  0.13755811  0.48867529  0.75409275  1
  O  O269  1  0.11862990  0.99075331  0.24192800  1
  O  O270  1  0.12538760  0.99333072  0.74038098  1
  O  O271  1  0.62393053  0.50111038  0.23911364  1
  O  O272  1  0.62855143  0.49471158  0.74207721  1
  O  O273  1  0.60990610  1.01099421  0.23881507  1
  O  O274  1  0.62977500  1.00096269  0.73929944  1
  O  O275  1  0.37099245  0.01145815  0.25417397  1
  O  O276  1  0.37334580  0.00490112  0.76295806  1
  O  O277  1  0.37067405  0.50326810  0.25455748  1
  O  O278  1  0.36732587  0.50381943  0.75353559  1
  O  O279  1  0.88276832  0.01488436  0.25076792  1
  O  O280  1  0.86598940  0.00419495  0.75179795  1
  O  O281  1  0.87767451  0.51442946  0.25641665  1
  O  O282  1  0.87085021  0.50487452  0.75638772  1
  O  O283  1  0.11316287  0.37521583  0.36594920  1
  O  O284  1  0.13191692  0.36719197  0.86859172  1
  O  O285  1  0.11872864  0.87032077  0.36862738  1
  O  O286  1  0.11729598  0.87073946  0.86903551  1
  O  O287  1  0.62840414  0.37757125  0.35936382  1
  O  O288  1  0.63540519  0.37737592  0.85681814  1
  O  O289  1  0.60493321  0.86040209  0.38187143  1
  O  O290  1  0.61943243  0.86805564  0.87387891  1
  O  O291  1  0.36346521  0.12690446  0.13982224  1
  O  O292  1  0.37990790  0.13191036  0.63209605  1
  O  O293  1  0.38343800  0.62199035  0.13115946  1
  O  O294  1  0.37084563  0.63452882  0.63924558  1
  O  O295  1  0.87774990  0.13246215  0.13432840  1
  O  O296  1  0.88297105  0.13666766  0.62924534  1
  O  O297  1  0.87854950  0.63347539  0.13309341  1
  O  O298  1  0.88203136  0.63184288  0.62905184  1
  O  O299  1  0.25211146  0.24919628  0.11581195  1
  O  O300  1  0.26173574  0.24257380  0.61602649  1
  O  O301  1  0.24201541  0.76165847  0.12095167  1
  O  O302  1  0.25727259  0.75035673  0.61769860  1
  O  O303  1  0.76226271  0.26050561  0.12737726  1
  O  O304  1  0.75625473  0.25911980  0.62081145  1
  O  O305  1  0.75692447  0.75950187  0.11770893  1
  O  O306  1  0.76035266  0.75937589  0.62527854  1
  O  O307  1  0.24909614  0.24051535  0.38249633  1
  O  O308  1  0.24600106  0.24513692  0.88851609  1
  O  O309  1  0.24518324  0.74307681  0.38173655  1
  O  O310  1  0.24531219  0.73563058  0.87362385  1
  O  O311  1  0.75239731  0.25934858  0.38994423  1
  O  O312  1  0.74196527  0.23828676  0.87025456  1
  O  O313  1  0.73217953  0.76111246  0.37480505  1
  O  O314  1  0.74850254  0.74762446  0.87733237  1
  O  O315  1  0.00914956  0.11680895  0.00421630  1
  O  O316  1  -0.00210114  0.12054927  0.51265856  1
  O  O317  1  0.00542545  0.61725546  0.00577447  1
  O  O318  1  0.01172126  0.62731765  0.50792007  1
  O  O319  1  0.50730532  0.11487259  -0.00037096  1
  O  O320  1  0.49517247  0.11276199  0.51281210  1
  O  O321  1  0.50693842  0.61883191  0.00431153  1
  O  O322  1  0.50870929  0.61335760  0.49627710  1
  O  O323  1  0.48831814  0.38886029  0.49915197  1
  O  O324  1  0.50984558  0.38726697  1.00334935  1
  O  O325  1  0.49496296  0.88109648  0.51127573  1
  O  O326  1  0.49197365  0.88163073  0.99398715  1
  O  O327  1  0.99721141  0.37285129  0.48163290  1
  O  O328  1  0.99712236  0.38674652  1.00401790  1
  O  O329  1  1.00505338  0.88375281  0.49168897  1
  O  O330  1  1.00267205  0.88139774  0.99100154  1
  O  O331  1  0.49217865  0.49771899  0.38032927  1
  O  O332  1  0.49246214  0.50332747  0.88515324  1
  O  O333  1  0.49481551  0.98019830  0.39217657  1
  O  O334  1  0.49306743  0.99615404  0.88037126  1
  O  O335  1  0.99446385  0.49114451  0.36882768  1
  O  O336  1  0.98937431  0.50623697  0.88330718  1
  O  O337  1  1.00073317  0.99314588  0.38654653  1
  O  O338  1  1.00300350  0.99384829  0.88120329  1
  O  O339  1  0.01214334  -0.00180893  0.11674002  1
  O  O340  1  0.00523187  0.00895337  0.62127583  1
  O  O341  1  -0.00048323  0.50720517  0.11663239  1
  O  O342  1  -0.00562976  0.51100928  0.62553745  1
  O  O343  1  0.49606619  0.00036036  0.11822175  1
  O  O344  1  0.50356676  0.00245106  0.62158882  1
  O  O345  1  0.50986948  0.50850585  0.11462541  1
  O  O346  1  0.50757673  0.50016180  0.61559182  1
  O  O347  1  0.24046143  0.38273835  0.25907585  1
  O  O348  1  0.24261569  0.38706644  0.75045734  1
  O  O349  1  0.23716698  0.87130140  0.24365033  1
  O  O350  1  0.23703245  0.87676988  0.75300569  1
  O  O351  1  0.73798701  0.37724183  0.23802898  1
  O  O352  1  0.74121695  0.38217489  0.73765625  1
  O  O353  1  0.74835616  0.87578540  0.23017058  1
  O  O354  1  0.74928725  0.88788078  0.74362395  1
  O  O355  1  0.25617395  0.12576264  0.26266658  1
  O  O356  1  0.25619141  0.12662610  0.76451246  1
  O  O357  1  0.25568147  0.61569045  0.25416508  1
  O  O358  1  0.25367975  0.61371361  0.75561745  1
  O  O359  1  0.76398360  0.11796198  0.24659130  1
  O  O360  1  0.74863440  0.11580548  0.75615879  1
  O  O361  1  0.76303819  0.63021847  0.24430250  1
  O  O362  1  0.75692215  0.61949683  0.75241427  1
  O  O363  1  0.36524007  0.12086954  0.36407102  1
  O  O364  1  0.36879224  0.11943501  0.87499065  1
  O  O365  1  0.37238571  0.61556497  0.36709902  1
  O  O366  1  0.36772924  0.61795854  0.86399335  1
  O  O367  1  0.87738169  0.12255519  0.36333631  1
  O  O368  1  0.86579157  0.12507971  0.87359451  1
  O  O369  1  0.87800947  0.61514569  0.36326363  1
  O  O370  1  0.87083694  0.61937869  0.86735052  1
  O  O371  1  0.11899364  0.37723633  0.14000073  1
  O  O372  1  0.12560412  0.37362272  0.63691268  1
  O  O373  1  0.12867297  0.87948695  0.13268502  1
  O  O374  1  0.12757616  0.88228993  0.63258522  1
  O  O375  1  0.63183854  0.38261603  0.13336751  1
  O  O376  1  0.62981036  0.38659777  0.62920547  1
  O  O377  1  0.63543639  0.87558378  0.11747599  1
  O  O378  1  0.63447389  0.88168142  0.63059354  1
  O  O379  1  0.11601909  0.25651273  0.25363628  1
  O  O380  1  0.12982761  0.26544827  0.75814835  1
  O  O381  1  0.11950469  0.75464257  0.25816201  1
  O  O382  1  0.12125579  0.75616800  0.75324623  1
  O  O383  1  0.62863967  0.26128442  0.25077937  1
  O  O384  1  0.62355779  0.26754735  0.74244489  1
  O  O385  1  0.62258710  0.74761616  0.26140348  1
  O  O386  1  0.61849728  0.74798963  0.75351257  1
  O  O387  1  0.37037528  0.23569212  0.23960100  1
  O  O388  1  0.37387942  0.24722865  0.74218576  1
  O  O389  1  0.36704712  0.73605207  0.25145507  1
  O  O390  1  0.38180466  0.74060388  0.74789990  1
  O  O391  1  0.87855118  0.24070017  0.24622056  1
  O  O392  1  0.87664344  0.25326865  0.73852335  1
  O  O393  1  0.87967465  0.74152376  0.24481907  1
  O  O394  1  0.88286853  0.74407547  0.74158487  1
  O  O395  1  0.37878616  0.49801080  0.49271224  1
  O  O396  1  0.38767882  0.50127509  0.99013780  1
  O  O397  1  0.38519200  0.99787473  0.50396856  1
  O  O398  1  0.38213841  0.99359719  0.99157456  1
  O  O399  1  0.87264881  0.50296994  0.48237824  1
  O  O400  1  0.88257664  0.50075876  0.99051259  1
  O  O401  1  0.88744286  1.00228889  0.50227951  1
  O  O402  1  0.89058791  0.99922869  0.99989088  1
  O  O403  1  0.11782047  0.00435158  0.00520346  1
  O  O404  1  0.11414257  -0.00205343  0.51497642  1
  O  O405  1  0.11795334  0.50474795  -0.00084868  1
  O  O406  1  0.13403926  0.51117840  0.49389216  1
  O  O407  1  0.61145647  0.00631213  -0.00228399  1
  O  O408  1  0.61163708  -0.00339456  0.51355886  1
  O  O409  1  0.61944999  0.50736845  0.00448915  1
  O  O410  1  0.61763089  0.50462030  0.50415312  1
  O  O411  1  0.37748849  0.36025534  0.13719081  1
  O  O412  1  0.37633108  0.36710603  0.61574422  1
  O  O413  1  0.36260838  0.87775923  0.11413877  1
  O  O414  1  0.36956219  0.85878158  0.63685088  1
  O  O415  1  0.86811054  0.36876528  0.12726448  1
  O  O416  1  0.86665569  0.37179279  0.62271172  1
  O  O417  1  0.87738209  0.86318279  0.12502275  1
  O  O418  1  0.86905777  0.86485335  0.63067511  1
  O  O419  1  0.13952652  0.12735261  0.37037557  1
  O  O420  1  0.13433362  0.13293761  0.87978350  1
  O  O421  1  0.12953959  0.62997496  0.38008698  1
  O  O422  1  0.13271668  0.62584744  0.87824232  1
  O  O423  1  0.62811664  0.12435482  0.38514149  1
  O  O424  1  0.63213358  0.12481801  0.88482146  1
  O  O425  1  0.61740375  0.64173345  0.38071182  1
  O  O426  1  0.63361732  0.62922909  0.87846774  1
