# generated using pymatgen
data_V85Zn86O256
_symmetry_space_group_name_H-M   'P 1'
_cell_length_a   16.93629981
_cell_length_b   16.93881921
_cell_length_c   16.92552962
_cell_angle_alpha   90.01492168
_cell_angle_beta   90.03202147
_cell_angle_gamma   90.08189093
_symmetry_Int_Tables_number   1
_chemical_formula_structural   V85Zn86O256
_chemical_formula_sum   'V85 Zn86 O256'
_cell_volume   4855.60563540
_cell_formula_units_Z   1
loop_
 _symmetry_equiv_pos_site_id
 _symmetry_equiv_pos_as_xyz
  1  'x, y, z'
loop_
 _atom_site_type_symbol
 _atom_site_label
 _atom_site_symmetry_multiplicity
 _atom_site_fract_x
 _atom_site_fract_y
 _atom_site_fract_z
 _atom_site_occupancy
  V  V0  1  0.88348162  0.87883726  0.50654608  1
  V  V1  1  0.87718957  0.49043038  0.87583507  1
  V  V2  1  0.88272413  0.87827578  0.00131602  1
  V  V3  1  0.00340345  0.61832765  0.62718651  1
  V  V4  1  0.75796795  0.75289682  0.50512881  1
  V  V5  1  0.37352723  0.87311836  0.00120089  1
  V  V6  1  0.62602396  0.00480049  0.62154819  1
  V  V7  1  0.24986437  0.62335213  0.36471493  1
  V  V8  1  0.24571059  -0.00035737  0.75250571  1
  V  V9  1  0.00742939  0.87499549  0.37480310  1
  V  V10  1  0.74587185  0.12595370  0.88298490  1
  V  V11  1  0.88118199  0.00276997  0.87889345  1
  V  V12  1  0.12291575  0.48896348  0.12803699  1
  V  V13  1  0.87042491  0.26492930  0.12172563  1
  V  V14  1  0.74224741  0.24946730  0.50269866  1
  V  V15  1  0.75658936  0.62891968  0.37718443  1
  V  V16  1  0.39083013  0.49453773  0.87781737  1
  V  V17  1  0.24686033  0.87371953  0.63133569  1
  V  V18  1  0.74522629  0.12450411  0.38079670  1
  V  V19  1  0.50172792  0.87182500  0.37616461  1
  V  V20  1  0.24971752  0.13509872  0.88051233  1
  V  V21  1  0.87282195  0.13041870  0.25213561  1
  V  V22  1  -0.00357560  0.48439382  -0.00568153  1
  V  V23  1  0.24273403  0.38818863  0.62678901  1
  V  V24  1  0.38074744  0.73562253  0.12938314  1
  V  V25  1  0.00027920  0.12326236  0.62365704  1
  V  V26  1  0.88115634  0.00245166  0.38217615  1
  V  V27  1  0.74702782  0.50496414  0.75857140  1
  V  V28  1  0.12026485  -0.00558684  0.62676222  1
  V  V29  1  0.61158131  0.37287700  0.75368924  1
  V  V30  1  0.01021617  0.87764147  0.87556785  1
  V  V31  1  0.62927311  0.73780194  0.87331585  1
  V  V32  1  0.00483415  0.75809632  0.74343981  1
  V  V33  1  0.37118471  0.61920524  0.74866394  1
  V  V34  1  0.24786421  0.24623127  0.50236627  1
  V  V35  1  0.62150028  0.62040409  0.02013044  1
  V  V36  1  0.74900749  0.37585229  0.62675152  1
  V  V37  1  0.62620184  0.49896879  0.61922000  1
  V  V38  1  0.49857582  0.24413447  0.24752220  1
  V  V39  1  0.12576664  0.39095479  0.75456896  1
  V  V40  1  0.87153157  0.63314601  0.75255066  1
  V  V41  1  0.00009429  0.62336471  0.12082775  1
  V  V42  1  0.62811753  0.87700906  0.25045797  1
  V  V43  1  0.50014625  0.12129476  0.12352486  1
  V  V44  1  0.72797605  0.38019297  0.12866658  1
  V  V45  1  0.24874189  0.87781981  0.14197006  1
  V  V46  1  0.75439867  0.87384954  0.62789821  1
  V  V47  1  0.87810210  0.50098304  0.37623901  1
  V  V48  1  0.37428533  -0.00204387  0.87175586  1
  V  V49  1  0.61086342  0.25046195  0.87505085  1
  V  V50  1  -0.00146504  0.25985142  0.25018948  1
  V  V51  1  0.50291022  0.87374412  0.87391785  1
  V  V52  1  0.50295659  0.13066021  0.62821480  1
  V  V53  1  0.37364733  0.49808087  0.36644384  1
  V  V54  1  0.12166203  0.11902061  0.50067452  1
  V  V55  1  0.87857089  0.75145844  0.12321146  1
  V  V56  1  0.62687342  0.62759953  0.49976029  1
  V  V57  1  0.00583170  0.25532321  0.75660335  1
  V  V58  1  0.12268508  0.25602340  0.37337242  1
  V  V59  1  0.75586294  0.87765468  0.12392466  1
  V  V60  1  0.37109621  -0.00265200  0.36900405  1
  V  V61  1  0.50589839  0.00223899  -0.00317924  1
  V  V62  1  0.24659656  0.74616781  0.50039121  1
  V  V63  1  0.62664951  0.87477708  0.75002528  1
  V  V64  1  0.12251046  0.62184323  -0.00174397  1
  V  V65  1  0.74605167  0.25880823  -0.00272939  1
  V  V66  1  0.37586249  0.25089027  0.63383219  1
  V  V67  1  0.37728124  0.36580093  0.00340011  1
  V  V68  1  0.87505915  0.25020805  0.62643638  1
  V  V69  1  0.49704407  0.37101785  0.36986679  1
  V  V70  1  0.25146891  0.61493042  0.87368980  1
  V  V71  1  0.62237982  0.24958067  0.37311459  1
  V  V72  1  -0.00803321  0.12186127  0.11415778  1
  V  V73  1  0.25111184  0.74890079  -0.00103498  1
  V  V74  1  0.24431783  0.48398634  0.24930578  1
  V  V75  1  0.62972965  0.00415503  0.12002529  1
  V  V76  1  0.24600506  0.11794568  0.36647353  1
  V  V77  1  0.37451915  0.74985543  0.62244180  1
  V  V78  1  0.50160853  0.00536754  0.49923471  1
  V  V79  1  0.75312695  0.74398268  -0.00551508  1
  V  V80  1  0.87909089  0.62713280  0.24903888  1
  V  V81  1  0.49937979  0.74957386  0.74770496  1
  V  V82  1  0.87501738  0.12782530  0.75302793  1
  V  V83  1  0.37380917  0.37248279  0.49940127  1
  V  V84  1  0.87329287  0.37622382  0.50041322  1
  Zn  Zn85  1  0.00497689  0.49274717  0.50849459  1
  Zn  Zn86  1  0.36693945  0.11734956  0.24412630  1
  Zn  Zn87  1  0.01226575  0.75300723  0.24511139  1
  Zn  Zn88  1  0.37668538  0.12815151  0.75029777  1
  Zn  Zn89  1  0.49753558  0.62579605  0.61712453  1
  Zn  Zn90  1  0.74920863  0.00270373  0.75269252  1
  Zn  Zn91  1  0.50731171  0.74223719  0.23591030  1
  Zn  Zn92  1  0.50367743  0.50135635  0.02814258  1
  Zn  Zn93  1  0.12874445  0.74969277  0.36831433  1
  Zn  Zn94  1  0.12875009  0.61378599  0.50475392  1
  Zn  Zn95  1  0.37477891  0.87608182  0.50137742  1
  Zn  Zn96  1  0.50003940  0.49956338  0.49660462  1
  Zn  Zn97  1  0.00371103  0.37912443  0.37469503  1
  Zn  Zn98  1  0.12352953  0.12641397  0.00081327  1
  Zn  Zn99  1  0.13133089  -0.00164772  0.12948568  1
  Zn  Zn100  1  0.36566992  0.24005427  0.12071056  1
  Zn  Zn101  1  0.62991548  0.75325033  0.37346905  1
  Zn  Zn102  1  0.74343163  0.50219142  0.23897087  1
  Zn  Zn103  1  0.12671354  0.25937917  0.88114031  1
  Zn  Zn104  1  0.24136625  0.35816549  0.11761260  1
  Zn  Zn105  1  0.12854694  0.75359349  0.87208526  1
  Zn  Zn106  1  0.75536881  0.00014846  0.25014123  1
  Zn  Zn107  1  0.17897328  0.18720396  0.18699298  1
  Zn  Zn108  1  0.18873489  0.18904318  0.69206703  1
  Zn  Zn109  1  0.18953775  0.68482011  0.18625297  1
  Zn  Zn110  1  0.18484220  0.68564786  0.69094348  1
  Zn  Zn111  1  0.68529602  0.18949563  0.18839380  1
  Zn  Zn112  1  0.68548248  0.18726248  0.69335809  1
  Zn  Zn113  1  0.69546409  0.69324611  0.19004172  1
  Zn  Zn114  1  0.68978555  0.68798596  0.68553434  1
  Zn  Zn115  1  0.31095119  0.30377293  0.30787180  1
  Zn  Zn116  1  0.31281847  0.32057789  0.81011627  1
  Zn  Zn117  1  0.31841388  0.80665236  0.31346176  1
  Zn  Zn118  1  0.31164404  0.81068120  0.81180880  1
  Zn  Zn119  1  0.80734565  0.31737033  0.31162507  1
  Zn  Zn120  1  0.80611110  0.31402439  0.81004095  1
  Zn  Zn121  1  0.82043780  0.81498082  0.31251421  1
  Zn  Zn122  1  0.81659491  0.81392527  0.81352439  1
  Zn  Zn123  1  0.18611844  0.43947583  0.44227266  1
  Zn  Zn124  1  0.19216136  0.43744697  0.93884901  1
  Zn  Zn125  1  0.18870243  0.93704273  0.44384663  1
  Zn  Zn126  1  0.18446271  0.94730475  0.94757890  1
  Zn  Zn127  1  0.65426512  0.46845045  0.38997338  1
  Zn  Zn128  1  0.68399471  0.43793273  0.93772314  1
  Zn  Zn129  1  0.69013128  0.94041274  0.44012025  1
  Zn  Zn130  1  0.69180147  0.93439539  0.93652862  1
  Zn  Zn131  1  0.31186365  0.05654916  0.06088181  1
  Zn  Zn132  1  0.31331947  0.06195292  0.56000640  1
  Zn  Zn133  1  0.31036856  0.55484301  0.06150204  1
  Zn  Zn134  1  0.31451624  0.56283471  0.55585229  1
  Zn  Zn135  1  0.81666004  0.06727960  0.06100325  1
  Zn  Zn136  1  0.81187408  0.06257144  0.56284589  1
  Zn  Zn137  1  0.80959115  0.56012975  0.05834514  1
  Zn  Zn138  1  0.81838165  0.56423344  0.56834202  1
  Zn  Zn139  1  0.43432149  0.43053801  0.18518821  1
  Zn  Zn140  1  0.43574093  0.44162336  0.68471706  1
  Zn  Zn141  1  0.43872080  0.93201914  0.18723796  1
  Zn  Zn142  1  0.43684196  0.93820566  0.68649284  1
  Zn  Zn143  1  0.93469835  0.44099663  0.18809495  1
  Zn  Zn144  1  0.93685862  0.43741422  0.69390719  1
  Zn  Zn145  1  0.96924999  0.95654175  0.20647753  1
  Zn  Zn146  1  0.93691562  0.94047512  0.69302070  1
  Zn  Zn147  1  0.06186622  0.06430226  0.30864031  1
  Zn  Zn148  1  0.06449042  0.06360567  0.81197724  1
  Zn  Zn149  1  0.06514719  0.56539308  0.31394501  1
  Zn  Zn150  1  0.05785656  0.56531893  0.81383771  1
  Zn  Zn151  1  0.56458133  0.06142690  0.31121432  1
  Zn  Zn152  1  0.56416831  0.06573618  0.80876482  1
  Zn  Zn153  1  0.55459327  0.55190923  0.23031522  1
  Zn  Zn154  1  0.56048723  0.56409576  0.80688182  1
  Zn  Zn155  1  0.43387367  0.18305101  0.44014281  1
  Zn  Zn156  1  0.43594177  0.18154434  0.93645415  1
  Zn  Zn157  1  0.47079130  0.65315399  0.38730286  1
  Zn  Zn158  1  0.44155178  0.68444185  0.93868737  1
  Zn  Zn159  1  0.93715610  0.18991568  0.44012642  1
  Zn  Zn160  1  0.93077693  0.20005162  0.93739755  1
  Zn  Zn161  1  0.93985430  0.69315959  0.44307705  1
  Zn  Zn162  1  0.93838668  0.68620552  0.93008389  1
  Zn  Zn163  1  0.06128145  0.30450771  0.05779935  1
  Zn  Zn164  1  0.06276927  0.31153414  0.56486782  1
  Zn  Zn165  1  0.06626312  0.81194218  0.06106598  1
  Zn  Zn166  1  0.06319821  0.80927271  0.56277382  1
  Zn  Zn167  1  0.55538038  0.31085644  0.05568152  1
  Zn  Zn168  1  0.56172694  0.31304290  0.56083155  1
  Zn  Zn169  1  0.56495419  0.81375837  0.06037146  1
  Zn  Zn170  1  0.56428764  0.81452093  0.56037602  1
  O  O171  1  0.09836409  0.12557650  0.12930148  1
  O  O172  1  0.11944885  0.11914304  0.62071998  1
  O  O173  1  0.12275869  0.61534767  0.11188967  1
  O  O174  1  0.10835528  0.62855004  0.62743344  1
  O  O175  1  0.61848895  0.11123375  0.12879602  1
  O  O176  1  0.61832606  0.11701442  0.62969250  1
  O  O177  1  0.62901893  0.62877512  0.12075073  1
  O  O178  1  0.62585173  0.61898746  0.61437650  1
  O  O179  1  0.37557270  0.37271362  0.38253515  1
  O  O180  1  0.37267158  0.38912035  0.88112779  1
  O  O181  1  0.38352651  0.87930112  0.37846422  1
  O  O182  1  0.38271046  0.87669227  0.88096071  1
  O  O183  1  0.87147754  0.38508033  0.38357342  1
  O  O184  1  0.87167064  0.39122270  0.86686492  1
  O  O185  1  0.87932286  0.88467709  0.38709645  1
  O  O186  1  0.88350300  0.88428505  0.88121888  1
  O  O187  1  0.25869803  0.00474091  0.38283483  1
  O  O188  1  0.25468796  0.00217971  0.86697011  1
  O  O189  1  0.25278374  0.50124870  0.36759446  1
  O  O190  1  0.26235140  0.51262053  0.87945166  1
  O  O191  1  0.75641917  0.01042250  0.37474630  1
  O  O192  1  0.75471421  0.00971109  0.87464665  1
  O  O193  1  0.76687968  0.51880214  0.38621005  1
  O  O194  1  0.75646939  0.49869183  0.86484558  1
  O  O195  1  0.24010581  0.49706744  0.13352631  1
  O  O196  1  0.25518872  0.48599608  0.62144340  1
  O  O197  1  0.25541053  0.98258508  0.12888972  1
  O  O198  1  0.24504363  0.99289242  0.63068546  1
  O  O199  1  0.75015729  0.48439980  0.12163280  1
  O  O200  1  0.74082752  0.49795328  0.63198012  1
  O  O201  1  0.74539089  0.99765557  0.12430783  1
  O  O202  1  0.74218682  0.99402613  0.62664174  1
  O  O203  1  -0.00739907  0.36428579  0.25387905  1
  O  O204  1  0.01719416  0.36929056  0.74053866  1
  O  O205  1  -0.01685789  0.86523381  0.27284564  1
  O  O206  1  -0.00490770  0.86437174  0.75788894  1
  O  O207  1  0.49052858  0.35970960  0.26308213  1
  O  O208  1  0.51287283  0.37989304  0.74342084  1
  O  O209  1  0.51067020  0.87138458  0.25744670  1
  O  O210  1  0.50564245  0.86880855  0.75328144  1
  O  O211  1  0.49913363  0.12533998  0.23943872  1
  O  O212  1  0.49420799  0.11846235  0.73320756  1
  O  O213  1  0.50878634  0.63995492  0.28177253  1
  O  O214  1  0.48843450  0.63248834  0.74508294  1
  O  O215  1  0.98343569  0.13795263  0.24518316  1
  O  O216  1  0.99641061  0.13294685  0.74180260  1
  O  O217  1  0.99011838  0.62373738  0.24228451  1
  O  O218  1  0.99494381  0.63591314  0.74447119  1
  O  O219  1  0.38137469  0.26248895  -0.00328810  1
  O  O220  1  0.36813529  0.25779305  0.50559729  1
  O  O221  1  0.37122987  0.75504185  0.00412768  1
  O  O222  1  0.36325687  0.75087340  0.51652342  1
  O  O223  1  0.85920012  0.25289303  0.00919996  1
  O  O224  1  0.86574917  0.25529355  0.50637022  1
  O  O225  1  0.86936949  0.75399775  0.00023484  1
  O  O226  1  0.86524746  0.76228739  0.50190898  1
  O  O227  1  0.12696953  0.23778502  0.49542917  1
  O  O228  1  0.12156382  0.24042678  0.99193645  1
  O  O229  1  0.13830954  0.74768189  0.49901042  1
  O  O230  1  0.13506565  0.74021034  0.99680809  1
  O  O231  1  0.63734531  0.25109206  0.49632086  1
  O  O232  1  0.62913742  0.25261604  0.98432510  1
  O  O233  1  0.63989618  0.74652117  0.50166133  1
  O  O234  1  0.63258451  0.74253720  0.99399874  1
  O  O235  1  0.50008837  0.23680015  0.13029348  1
  O  O236  1  0.49117017  0.24083852  0.61600503  1
  O  O237  1  0.48568154  0.75551528  0.12040907  1
  O  O238  1  0.49174018  0.74954213  0.62765847  1
  O  O239  1  0.98710379  0.24746557  0.13244883  1
  O  O240  1  0.99522362  0.24280402  0.63431232  1
  O  O241  1  0.99508390  0.74215941  0.12244955  1
  O  O242  1  1.00023975  0.74637897  0.63920803  1
  O  O243  1  0.00506603  0.25071388  0.36874878  1
  O  O244  1  -0.00190835  0.24933832  0.85964966  1
  O  O245  1  0.00339331  0.76327865  0.37928435  1
  O  O246  1  0.00320223  0.75971337  0.86606905  1
  O  O247  1  0.50477725  0.24686227  0.37125876  1
  O  O248  1  0.51234458  0.24170998  0.87428628  1
  O  O249  1  0.50719657  0.76829708  0.38629911  1
  O  O250  1  0.50799807  0.75488931  0.86908989  1
  O  O251  1  0.24048759  0.12869329  0.49410668  1
  O  O252  1  0.25734403  0.12084825  0.98233021  1
  O  O253  1  0.24857759  0.63175193  0.49380792  1
  O  O254  1  0.24370196  0.62944585  0.99416809  1
  O  O255  1  0.75637679  0.13446230  0.48892293  1
  O  O256  1  0.75154404  0.13527997  0.98878417  1
  O  O257  1  0.75331858  0.63611970  0.49993442  1
  O  O258  1  0.73952852  0.63708453  1.00388740  1
  O  O259  1  0.27044268  0.38516851  0.00241426  1
  O  O260  1  0.25401443  0.36720686  0.51034275  1
  O  O261  1  0.26242527  0.86664104  -0.00325948  1
  O  O262  1  0.25252185  0.86735338  0.51305504  1
  O  O263  1  0.74204981  0.36691524  0.01061908  1
  O  O264  1  0.76208908  0.36531135  0.50881435  1
  O  O265  1  0.76095559  0.86564261  0.00342653  1
  O  O266  1  0.75844178  0.87147724  0.50766533  1
  O  O267  1  0.13036164  0.50316710  0.23940132  1
  O  O268  1  0.12107252  0.48985725  0.75138669  1
  O  O269  1  0.08022328  0.98978650  0.22937035  1
  O  O270  1  0.13748525  1.00339506  0.74103965  1
  O  O271  1  0.63992116  0.50204748  0.28269732  1
  O  O272  1  0.63086665  0.49745999  0.74179812  1
  O  O273  1  0.62940524  0.99081877  0.24161077  1
  O  O274  1  0.62635882  0.99333768  0.73962077  1
  O  O275  1  0.38308168  -0.00113563  0.26497443  1
  O  O276  1  0.36413456  -0.00185342  0.75476638  1
  O  O277  1  0.36322357  0.48988853  0.26104469  1
  O  O278  1  0.37957015  0.50751427  0.76222262  1
  O  O279  1  0.87501300  0.01248836  0.26348754  1
  O  O280  1  0.87173687  0.00828908  0.76257129  1
  O  O281  1  0.86836904  0.50843549  0.25854973  1
  O  O282  1  0.86736203  0.50648722  0.75838507  1
  O  O283  1  0.12407291  0.35894751  0.38231555  1
  O  O284  1  0.13549040  0.37697451  0.85888651  1
  O  O285  1  0.11005649  0.87782570  0.38385811  1
  O  O286  1  0.11324915  0.87708130  0.88385095  1
  O  O287  1  0.61076892  0.35812636  0.38295325  1
  O  O288  1  0.62643471  0.36327619  0.86745605  1
  O  O289  1  0.62209365  0.87910815  0.36707069  1
  O  O290  1  0.62073174  0.86728661  0.86894536  1
  O  O291  1  0.38671572  0.11888701  0.12496342  1
  O  O292  1  0.38106677  0.13449957  0.62355906  1
  O  O293  1  0.37118200  0.63783589  0.11734029  1
  O  O294  1  0.37516547  0.62937636  0.63127944  1
  O  O295  1  0.87177142  0.14163401  0.13434994  1
  O  O296  1  0.88179900  0.12848667  0.63088320  1
  O  O297  1  0.87770871  0.62809466  0.13069432  1
  O  O298  1  0.88565514  0.62413344  0.64218166  1
  O  O299  1  0.25329763  0.24628725  0.13327307  1
  O  O300  1  0.25768459  0.25414910  0.61966057  1
  O  O301  1  0.26152923  0.75486669  0.11438892  1
  O  O302  1  0.25259146  0.75570317  0.62376955  1
  O  O303  1  0.74936221  0.25887574  0.11815115  1
  O  O304  1  0.75350387  0.25208035  0.61968427  1
  O  O305  1  0.75885705  0.75802066  0.11545038  1
  O  O306  1  0.74843379  0.76533518  0.62073270  1
  O  O307  1  0.24086366  0.23886053  0.37995405  1
  O  O308  1  0.25402169  0.23680204  0.86645323  1
  O  O309  1  0.25520118  0.74060830  0.38385347  1
  O  O310  1  0.25188810  0.74090167  0.88502728  1
  O  O311  1  0.74176146  0.24676699  0.38129114  1
  O  O312  1  0.74620020  0.24603751  0.88250391  1
  O  O313  1  0.75603803  0.74410699  0.38383886  1
  O  O314  1  0.74214294  0.75724845  0.88379317  1
  O  O315  1  -0.01064497  0.13572401  0.01279344  1
  O  O316  1  0.00543213  0.13022038  0.51499600  1
  O  O317  1  0.00790057  0.61979398  0.00119201  1
  O  O318  1  -0.00450253  0.62924868  0.52027850  1
  O  O319  1  0.49764155  0.10972308  0.00576930  1
  O  O320  1  0.49713450  0.11233066  0.50894611  1
  O  O321  1  0.51907203  0.62722158  0.00142467  1
  O  O322  1  0.51367739  0.62305492  0.49400063  1
  O  O323  1  0.48919072  0.37141062  0.49019780  1
  O  O324  1  0.48459549  0.38492027  1.00443120  1
  O  O325  1  0.49966559  0.88770447  0.49577312  1
  O  O326  1  0.49288871  0.88225847  0.99521109  1
  O  O327  1  0.98547763  0.36983940  0.49981438  1
  O  O328  1  0.99678018  0.38574643  1.00290706  1
  O  O329  1  0.98894802  0.87154023  0.49579102  1
  O  O330  1  0.98913807  0.86884780  0.99269947  1
  O  O331  1  0.48734420  0.48338853  0.37724366  1
  O  O332  1  0.49079776  0.50487226  0.87700941  1
  O  O333  1  0.49747551  0.99305940  0.38204729  1
  O  O334  1  0.49789091  0.99587436  0.87964182  1
  O  O335  1  0.98831659  0.49935366  0.37557982  1
  O  O336  1  0.98722721  0.50034245  0.87950221  1
  O  O337  1  0.99087336  0.99004660  0.37782034  1
  O  O338  1  0.99243421  0.99284481  0.86880241  1
  O  O339  1  -0.03345109  0.02421789  0.11439933  1
  O  O340  1  0.01020539  0.00897126  0.63437609  1
  O  O341  1  0.00370949  0.50529858  0.11742247  1
  O  O342  1  -0.00516945  0.51524624  0.63021540  1
  O  O343  1  0.50795957  0.00131180  0.11729186  1
  O  O344  1  0.50621873  0.00469005  0.61801539  1
  O  O345  1  0.50315039  0.50523552  0.14224918  1
  O  O346  1  0.51321206  0.50266384  0.61862952  1
  O  O347  1  0.24747182  0.38138485  0.24895098  1
  O  O348  1  0.23956412  0.37428187  0.73612709  1
  O  O349  1  0.25378097  0.86946415  0.24027122  1
  O  O350  1  0.25109675  0.88001698  0.73934601  1
  O  O351  1  0.74770075  0.37421465  0.23233797  1
  O  O352  1  0.74116842  0.38599060  0.74323771  1
  O  O353  1  0.74777317  0.87831972  0.24330397  1
  O  O354  1  0.74714509  0.87769260  0.74343239  1
  O  O355  1  0.24432531  0.11991444  0.26328672  1
  O  O356  1  0.25503229  0.11560691  0.75658009  1
  O  O357  1  0.25028380  0.61425420  0.26145686  1
  O  O358  1  0.26218013  0.63115163  0.75843613  1
  O  O359  1  0.75823061  0.12814574  0.26086371  1
  O  O360  1  0.75882235  0.12686155  0.76219867  1
  O  O361  1  0.76276361  0.62828668  0.26011517  1
  O  O362  1  0.75894635  0.61810498  0.74455786  1
  O  O363  1  0.36276905  0.11561240  0.37539069  1
  O  O364  1  0.36720922  0.11649746  0.87023493  1
  O  O365  1  0.36410503  0.60546885  0.38557147  1
  O  O366  1  0.37222720  0.61785397  0.86912013  1
  O  O367  1  0.86972662  0.12165142  0.37182878  1
  O  O368  1  0.86952830  0.12006257  0.87350941  1
  O  O369  1  0.87668330  0.62366692  0.36924057  1
  O  O370  1  0.87879820  0.61542757  0.85928473  1
  O  O371  1  0.12272519  0.38587381  0.11836724  1
  O  O372  1  0.13756514  0.37170784  0.63126284  1
  O  O373  1  0.14745427  0.86905496  0.11772732  1
  O  O374  1  0.13043877  0.88625819  0.62005254  1
  O  O375  1  0.62948332  0.37129998  0.12404150  1
  O  O376  1  0.62997814  0.38207725  0.62793386  1
  O  O377  1  0.63245351  0.88385068  0.12978721  1
  O  O378  1  0.63280752  0.88227969  0.63059818  1
  O  O379  1  0.11005537  0.24243596  0.26227710  1
  O  O380  1  0.11885344  0.25844904  0.75387748  1
  O  O381  1  0.12454951  0.74385893  0.25359647  1
  O  O382  1  0.10993311  0.74914208  0.75462471  1
  O  O383  1  0.61065756  0.24411192  0.25958306  1
  O  O384  1  0.63016918  0.26089723  0.76267738  1
  O  O385  1  0.62901578  0.76558817  0.25102812  1
  O  O386  1  0.62120056  0.75388374  0.75513205  1
  O  O387  1  0.38720009  0.23782655  0.25088430  1
  O  O388  1  0.37379506  0.25317332  0.73705243  1
  O  O389  1  0.37890419  0.75027626  0.23276838  1
  O  O390  1  0.37855184  0.74369159  0.74061849  1
  O  O391  1  0.87634382  0.24752127  0.24627445  1
  O  O392  1  0.87995119  0.24794804  0.74388422  1
  O  O393  1  0.87828810  0.74150403  0.24165767  1
  O  O394  1  0.88730499  0.74296039  0.75683347  1
  O  O395  1  0.37430809  0.48436146  0.49258436  1
  O  O396  1  0.38311501  0.49990131  0.98980863  1
  O  O397  1  0.38380085  0.99775631  0.49095346  1
  O  O398  1  0.38308318  0.98899565  0.99256757  1
  O  O399  1  0.88034788  0.49201116  0.49709907  1
  O  O400  1  0.88030699  0.50794814  0.98326807  1
  O  O401  1  0.87115175  0.99423523  0.49132661  1
  O  O402  1  0.86779944  0.99150381  0.98707926  1
  O  O403  1  0.12823975  0.01315048  0.01586164  1
  O  O404  1  0.12766247  0.01199009  0.51116232  1
  O  O405  1  0.11633601  0.50434157  0.00227082  1
  O  O406  1  0.11651586  0.50010547  0.50160520  1
  O  O407  1  0.61756133  -0.00887230  0.00729099  1
  O  O408  1  0.61889158  -0.00318302  0.51300600  1
  O  O409  1  0.62606759  0.51834510  -0.00235612  1
  O  O410  1  0.62781477  0.50842264  0.50131089  1
  O  O411  1  0.37074503  0.36670999  0.11358029  1
  O  O412  1  0.36720511  0.37031133  0.61900887  1
  O  O413  1  0.36673525  0.86861487  0.11695635  1
  O  O414  1  0.36660722  0.86708065  0.62541061  1
  O  O415  1  0.86855499  0.36684904  0.12814121  1
  O  O416  1  0.86949128  0.37085246  0.62203044  1
  O  O417  1  0.87444315  0.87098997  0.11546863  1
  O  O418  1  0.86646973  0.88685980  0.61878826  1
  O  O419  1  0.12643913  0.12590564  0.38334639  1
  O  O420  1  0.14192185  0.12457426  0.87188450  1
  O  O421  1  0.13634814  0.62631833  0.38137228  1
  O  O422  1  0.13326301  0.62389980  0.88299225  1
  O  O423  1  0.63377977  0.13409081  0.37353371  1
  O  O424  1  0.63367699  0.13867699  0.86628905  1
  O  O425  1  0.64386394  0.63326661  0.39157981  1
  O  O426  1  0.62415338  0.63653598  0.87320375  1
