# generated using pymatgen
data_V85Zn86O256
_symmetry_space_group_name_H-M   'P 1'
_cell_length_a   16.95416932
_cell_length_b   16.94543701
_cell_length_c   16.94314321
_cell_angle_alpha   90.04986441
_cell_angle_beta   89.99285231
_cell_angle_gamma   89.98526414
_symmetry_Int_Tables_number   1
_chemical_formula_structural   V85Zn86O256
_chemical_formula_sum   'V85 Zn86 O256'
_cell_volume   4867.69198178
_cell_formula_units_Z   1
loop_
 _symmetry_equiv_pos_site_id
 _symmetry_equiv_pos_as_xyz
  1  'x, y, z'
loop_
 _atom_site_type_symbol
 _atom_site_label
 _atom_site_symmetry_multiplicity
 _atom_site_fract_x
 _atom_site_fract_y
 _atom_site_fract_z
 _atom_site_occupancy
  V  V0  1  0.36643860  0.12263513  0.76098739  1
  V  V1  1  0.49713224  0.12392468  0.62918295  1
  V  V2  1  0.12382130  0.37571758  0.74985517  1
  V  V3  1  0.50119682  0.62868735  0.13164591  1
  V  V4  1  0.00426522  0.25839467  0.24426097  1
  V  V5  1  0.50063404  0.12281412  0.12647302  1
  V  V6  1  0.12672477  0.24206922  0.87247204  1
  V  V7  1  0.62420973  0.87240969  0.75037309  1
  V  V8  1  0.85325312  0.37315753  0.00040865  1
  V  V9  1  -0.00264736  0.24980656  0.73849523  1
  V  V10  1  0.74697833  -0.00066067  0.74985843  1
  V  V11  1  0.62117023  0.75187526  0.88383392  1
  V  V12  1  0.00727126  0.74811717  0.23700104  1
  V  V13  1  0.37342860  0.24869219  0.62624191  1
  V  V14  1  0.37485073  0.37622816  0.00260963  1
  V  V15  1  0.12945623  0.24981274  0.36761602  1
  V  V16  1  0.62609878  0.25342903  0.37722599  1
  V  V17  1  0.00308507  0.50662593  0.49635949  1
  V  V18  1  0.50143335  0.49965902  0.00424083  1
  V  V19  1  0.74997376  0.50837087  0.25846414  1
  V  V20  1  0.24522309  0.49906579  0.24816389  1
  V  V21  1  0.87426661  0.00333085  0.87484929  1
  V  V22  1  0.62484950  0.12490327  0.50815873  1
  V  V23  1  0.85435013  0.74866251  0.12391755  1
  V  V24  1  0.37717537  0.63626753  0.25042395  1
  V  V25  1  0.24817075  0.37470977  0.62341325  1
  V  V26  1  0.85928988  0.25316930  0.11989960  1
  V  V27  1  0.50420703  0.25190472  0.75174230  1
  V  V28  1  0.24903707  0.62650981  0.87634679  1
  V  V29  1  0.37857919  0.87436627  0.49885619  1
  V  V30  1  0.63131156  0.62280961  0.00281163  1
  V  V31  1  0.62583923  0.12626954  0.00108760  1
  V  V32  1  -0.00289633  0.87354462  0.87377158  1
  V  V33  1  0.11654197  0.50360484  0.12670112  1
  V  V34  1  0.86989496  0.74987802  0.61392440  1
  V  V35  1  0.11703869  0.62655792  0.00069161  1
  V  V36  1  0.37282155  0.00587161  0.37703818  1
  V  V37  1  0.63368107  0.49281495  0.12266942  1
  V  V38  1  0.71885797  0.10587173  0.34320985  1
  V  V39  1  0.49900513  0.74425824  0.74654944  1
  V  V40  1  0.00118439  0.62460711  0.62256898  1
  V  V41  1  0.24445543  0.74623744  0.50017153  1
  V  V42  1  0.74915509  0.62856042  0.87475954  1
  V  V43  1  0.24910350  0.87744738  0.62710327  1
  V  V44  1  0.75293213  0.25024761  0.50750312  1
  V  V45  1  0.12419214  0.75553218  0.37023299  1
  V  V46  1  0.37445304  0.50151972  0.37325369  1
  V  V47  1  0.50151494  0.37945100  0.37448413  1
  V  V48  1  0.24678261  0.00178358  0.25467110  1
  V  V49  1  0.50452003  0.86428292  0.35935940  1
  V  V50  1  0.50332704  0.37534739  0.87546637  1
  V  V51  1  0.74974641  0.12873410  0.87838236  1
  V  V52  1  0.00063909  0.37591427  0.37268798  1
  V  V53  1  -0.00250245  0.75011962  0.74811399  1
  V  V54  1  0.74274528  0.38226274  0.63532578  1
  V  V55  1  0.00444941  0.88337285  0.37492904  1
  V  V56  1  -0.00016866  0.37550807  0.87952312  1
  V  V57  1  0.87240667  0.12860368  0.73871754  1
  V  V58  1  0.49530107  -0.00344388  0.00314329  1
  V  V59  1  0.63617741  0.37116916  0.24914232  1
  V  V60  1  0.11491747  -0.00053484  0.62126657  1
  V  V61  1  0.00600554  0.12922961  0.12020621  1
  V  V62  1  0.37237421  0.49959014  0.87553554  1
  V  V63  1  0.63302899  0.62848559  0.50781860  1
  V  V64  1  0.12573890  0.50572924  0.62133743  1
  V  V65  1  0.24213715  0.37497632  0.12853625  1
  V  V66  1  0.12302665  -0.01053530  0.12911637  1
  V  V67  1  0.87914354  0.11890012  0.25054666  1
  V  V68  1  0.25027238  0.24295476  0.49469870  1
  V  V69  1  0.86937906  0.62295596  0.74618154  1
  V  V70  1  0.62938119  0.25686542  0.87559284  1
  V  V71  1  0.37640179  0.37628474  0.50016628  1
  V  V72  1  0.64613626  0.74210373  0.37059315  1
  V  V73  1  0.37769368  0.74103007  0.62349555  1
  V  V74  1  0.49137064  0.87458904  0.88028093  1
  V  V75  1  0.24984821  0.24453581  -0.00450444  1
  V  V76  1  0.24383613  0.62552610  0.37624355  1
  V  V77  1  0.37573041  0.25119363  0.12810485  1
  V  V78  1  0.11960539  0.12212873  0.49557682  1
  V  V79  1  0.00054548  -0.00008567  -0.00169349  1
  V  V80  1  0.87547399  0.37318840  0.50805641  1
  V  V81  1  0.87050553  0.50109270  0.87323392  1
  V  V82  1  0.74629577  0.87256148  0.60067081  1
  V  V83  1  0.26020124  0.87474742  0.12185859  1
  V  V84  1  0.62140943  -0.00205596  0.62647934  1
  Zn  Zn85  1  0.24915484  0.49955870  0.74961134  1
  Zn  Zn86  1  0.12323888  0.87618435  0.74907358  1
  Zn  Zn87  1  0.24264843  0.00487241  0.75671634  1
  Zn  Zn88  1  0.88439155  0.00921524  0.38647574  1
  Zn  Zn89  1  0.88227942  0.62421642  0.24960484  1
  Zn  Zn90  1  0.38457068  0.75783042  0.12104610  1
  Zn  Zn91  1  0.36298904  -0.00428099  0.88482640  1
  Zn  Zn92  1  -0.00989159  0.12006819  0.61407977  1
  Zn  Zn93  1  0.86936634  0.50492504  0.37883543  1
  Zn  Zn94  1  0.37467525  0.62066377  0.74669968  1
  Zn  Zn95  1  0.71224154  -0.10228408  0.18846244  1
  Zn  Zn96  1  0.37075197  0.12927357  0.25672713  1
  Zn  Zn97  1  0.49858856  0.51284384  0.51002984  1
  Zn  Zn98  1  0.86748063  0.87468321  0.01444544  1
  Zn  Zn99  1  -0.00625332  0.50260212  0.00574325  1
  Zn  Zn100  1  0.50100246  -0.00326009  0.50013794  1
  Zn  Zn101  1  0.88901122  0.88622810  0.50259124  1
  Zn  Zn102  1  0.13150308  0.11982116  -0.00716816  1
  Zn  Zn103  1  0.61598930  0.50807639  0.63918527  1
  Zn  Zn104  1  0.50061710  0.25079294  0.25005152  1
  Zn  Zn105  1  0.25442694  0.75655206  -0.00362593  1
  Zn  Zn106  1  0.12396051  0.74985591  0.87394978  1
  Zn  Zn107  1  0.18846170  0.18338685  0.18701074  1
  Zn  Zn108  1  0.18396681  0.18648971  0.68230222  1
  Zn  Zn109  1  0.18663536  0.68806360  0.18709203  1
  Zn  Zn110  1  0.18785713  0.68706673  0.69044910  1
  Zn  Zn111  1  0.68777025  0.07645113  0.17416232  1
  Zn  Zn112  1  0.68908484  0.19338028  0.68717595  1
  Zn  Zn113  1  0.68188332  0.68785614  0.19315518  1
  Zn  Zn114  1  0.68889301  0.68971540  0.68708101  1
  Zn  Zn115  1  0.31159645  0.31547118  0.31096197  1
  Zn  Zn116  1  0.31267234  0.31284192  0.81185454  1
  Zn  Zn117  1  0.31071826  0.81896529  0.30965211  1
  Zn  Zn118  1  0.31145628  0.81102498  0.81047878  1
  Zn  Zn119  1  0.81356356  0.30409107  0.31571688  1
  Zn  Zn120  1  0.81754871  0.30868445  0.81377649  1
  Zn  Zn121  1  0.82627209  0.81002338  0.31308186  1
  Zn  Zn122  1  0.77712811  0.84526934  0.86229323  1
  Zn  Zn123  1  0.18506769  0.43417271  0.43605671  1
  Zn  Zn124  1  0.18593638  0.43657042  0.94154327  1
  Zn  Zn125  1  0.18842451  0.93650428  0.43838810  1
  Zn  Zn126  1  0.18579030  0.93703498  0.93617787  1
  Zn  Zn127  1  0.68586809  0.44356435  0.44469551  1
  Zn  Zn128  1  0.68986238  0.43849874  0.81272882  1
  Zn  Zn129  1  0.70713011  0.92025554  0.38753375  1
  Zn  Zn130  1  0.68868468  0.93861101  1.02796094  1
  Zn  Zn131  1  0.31323722  0.06272414  0.06578594  1
  Zn  Zn132  1  0.30878329  0.06129258  0.56448496  1
  Zn  Zn133  1  0.31095275  0.56873570  0.06199446  1
  Zn  Zn134  1  0.31117546  0.56149411  0.55888784  1
  Zn  Zn135  1  0.81794896  0.06675281  0.06064961  1
  Zn  Zn136  1  0.80837535  0.05609873  0.55722183  1
  Zn  Zn137  1  0.81290753  0.56364244  0.06594004  1
  Zn  Zn138  1  0.81027362  0.56063337  0.55816621  1
  Zn  Zn139  1  0.43944581  0.44037287  0.19106164  1
  Zn  Zn140  1  0.43850274  0.43672384  0.69067546  1
  Zn  Zn141  1  0.43742472  0.94329221  0.18986800  1
  Zn  Zn142  1  0.43549042  0.93482126  0.68983845  1
  Zn  Zn143  1  0.93187714  0.43301430  0.18574761  1
  Zn  Zn144  1  0.93559689  0.43760469  0.68690727  1
  Zn  Zn145  1  0.93980865  0.92992788  0.19072577  1
  Zn  Zn146  1  0.93244242  0.93580482  0.68662622  1
  Zn  Zn147  1  0.06625725  0.06889047  0.30871903  1
  Zn  Zn148  1  0.06060756  0.06248547  0.80615886  1
  Zn  Zn149  1  0.06172660  0.56767410  0.31210621  1
  Zn  Zn150  1  0.05996185  0.56160533  0.81243788  1
  Zn  Zn151  1  0.54731681  0.06234026  0.31646427  1
  Zn  Zn152  1  0.56028162  0.06149020  0.81763920  1
  Zn  Zn153  1  0.56593027  0.56631036  0.31724062  1
  Zn  Zn154  1  0.55750974  0.56522437  0.81424032  1
  Zn  Zn155  1  0.44104744  0.19000940  0.43976763  1
  Zn  Zn156  1  0.43907850  0.18833365  0.94025127  1
  Zn  Zn157  1  0.44027804  0.68584287  0.43969398  1
  Zn  Zn158  1  0.43576852  0.68731209  0.94266246  1
  Zn  Zn159  1  0.93834799  0.19232399  0.43526109  1
  Zn  Zn160  1  0.93736463  0.19040040  0.93597183  1
  Zn  Zn161  1  0.93653341  0.68615206  0.43013308  1
  Zn  Zn162  1  0.93392090  0.69059884  0.94224224  1
  Zn  Zn163  1  0.06380072  0.31491730  0.05864855  1
  Zn  Zn164  1  0.06503845  0.31434815  0.55816417  1
  Zn  Zn165  1  0.06590643  0.81431640  0.05602573  1
  Zn  Zn166  1  0.06435422  0.80975349  0.55919361  1
  Zn  Zn167  1  0.56792408  0.30980757  0.06270874  1
  Zn  Zn168  1  0.56133963  0.32017966  0.56498257  1
  Zn  Zn169  1  0.56477952  0.81216552  0.06812104  1
  Zn  Zn170  1  0.56304315  0.80463456  0.55729384  1
  O  O171  1  0.11493605  0.11861591  0.12095295  1
  O  O172  1  0.12130796  0.11692023  0.61483905  1
  O  O173  1  0.13473214  0.61436942  0.11380316  1
  O  O174  1  0.12218972  0.61157874  0.62895666  1
  O  O175  1  0.61207483  0.13623063  0.11421025  1
  O  O176  1  0.61507434  0.12242109  0.62638370  1
  O  O177  1  0.62066054  0.61728895  0.12087906  1
  O  O178  1  0.62728536  0.62785383  0.61451140  1
  O  O179  1  0.38226532  0.38125546  0.37779345  1
  O  O180  1  0.37926878  0.38142620  0.88262531  1
  O  O181  1  0.38093080  0.88294260  0.38126917  1
  O  O182  1  0.38763631  0.87430045  0.86903957  1
  O  O183  1  0.88606074  0.37461077  0.38365589  1
  O  O184  1  0.87998390  0.38188428  0.88077708  1
  O  O185  1  0.89512817  0.87907692  0.38002068  1
  O  O186  1  0.88922292  0.88753472  0.86620572  1
  O  O187  1  0.25890222  -0.00608048  0.36702033  1
  O  O188  1  0.25153631  -0.00442204  0.86963875  1
  O  O189  1  0.25039226  0.50670227  0.36872006  1
  O  O190  1  0.25904567  0.50195713  0.87634118  1
  O  O191  1  0.75812167  0.02799084  0.39537278  1
  O  O192  1  0.75490729  0.01806091  0.86250900  1
  O  O193  1  0.75069793  0.49153542  0.36145967  1
  O  O194  1  0.76338340  0.51126002  0.87144007  1
  O  O195  1  0.24449460  0.49334484  0.13085021  1
  O  O196  1  0.24235473  0.49362669  0.62383945  1
  O  O197  1  0.24293613  0.99299048  0.12834057  1
  O  O198  1  0.24101892  0.99127703  0.62772744  1
  O  O199  1  0.73778225  0.50020253  0.13428222  1
  O  O200  1  0.74904308  0.48409213  0.62175927  1
  O  O201  1  0.74705313  0.99914929  0.11705621  1
  O  O202  1  0.74119796  0.98886455  0.63154999  1
  O  O203  1  -0.00366492  0.36588429  0.25643669  1
  O  O204  1  0.00145712  0.36833600  0.75854352  1
  O  O205  1  0.00153828  0.86128687  0.26302643  1
  O  O206  1  -0.00024788  0.86600250  0.75327458  1
  O  O207  1  0.50971398  0.37460628  0.25939060  1
  O  O208  1  0.48899181  0.35902885  0.76205294  1
  O  O209  1  0.50210607  0.88015216  0.26085363  1
  O  O210  1  0.50463572  0.86595831  0.75621421  1
  O  O211  1  0.49315387  0.12977316  0.24080744  1
  O  O212  1  0.49016007  0.13273367  0.74700744  1
  O  O213  1  0.48947179  0.61446943  0.24359710  1
  O  O214  1  0.49271224  0.64062464  0.75644861  1
  O  O215  1  0.99540406  0.13731140  0.24008749  1
  O  O216  1  0.99033523  0.13333851  0.74519619  1
  O  O217  1  1.00429441  0.64240673  0.24792583  1
  O  O218  1  0.99226487  0.62942449  0.74307845  1
  O  O219  1  0.36842106  0.25640628  0.00659937  1
  O  O220  1  0.36761964  0.25425715  0.50476065  1
  O  O221  1  0.36554922  0.73756976  0.01129489  1
  O  O222  1  0.36608399  0.75559797  0.50517003  1
  O  O223  1  0.87896566  0.25679037  0.01101813  1
  O  O224  1  0.86154881  0.25643736  0.49359734  1
  O  O225  1  0.87617950  0.75120747  0.01974692  1
  O  O226  1  0.88450096  0.75187080  0.51228014  1
  O  O227  1  0.13340147  0.24535658  0.49243861  1
  O  O228  1  0.13265752  0.24975316  0.98972837  1
  O  O229  1  0.13914855  0.75036979  0.49182771  1
  O  O230  1  0.13045725  0.74072722  0.99593109  1
  O  O231  1  0.63272466  0.25044542  0.49460581  1
  O  O232  1  0.61834185  0.23926077  0.98689632  1
  O  O233  1  0.62314354  0.73843090  0.48847655  1
  O  O234  1  0.61676784  0.73814553  0.99015297  1
  O  O235  1  0.48995716  0.24585101  0.12503462  1
  O  O236  1  0.49504426  0.24724745  0.63429080  1
  O  O237  1  0.50253322  0.73325590  0.12511506  1
  O  O238  1  0.48855371  0.75716859  0.63368033  1
  O  O239  1  1.00286495  0.24510529  0.12887920  1
  O  O240  1  1.00598174  0.25094933  0.63617947  1
  O  O241  1  1.00779236  0.75646245  0.13657870  1
  O  O242  1  0.99695501  0.74267058  0.62813317  1
  O  O243  1  0.00657774  0.25740927  0.36383613  1
  O  O244  1  0.00738857  0.25805406  0.86722816  1
  O  O245  1  0.01064581  0.75552831  0.36733352  1
  O  O246  1  -0.00453127  0.75717885  0.86637216  1
  O  O247  1  0.50630630  0.26197959  0.37592147  1
  O  O248  1  0.50701384  0.25407973  0.87014182  1
  O  O249  1  0.48710516  0.76558497  0.37093865  1
  O  O250  1  0.50323420  0.75386784  0.87070159  1
  O  O251  1  0.24274749  0.13833210  0.50395804  1
  O  O252  1  0.24889062  0.14048411  1.00692029  1
  O  O253  1  0.25602558  0.63396568  0.48790979  1
  O  O254  1  0.23941630  0.62080684  0.98717298  1
  O  O255  1  0.73334649  0.13644756  0.51789961  1
  O  O256  1  0.74068970  0.12269567  0.98920551  1
  O  O257  1  0.73448130  0.62084380  0.49970378  1
  O  O258  1  0.73795968  0.61882053  0.99285901  1
  O  O259  1  0.25535758  0.36661960  0.00883002  1
  O  O260  1  0.25551580  0.36646859  0.50403356  1
  O  O261  1  0.24441068  0.87661572  0.01745768  1
  O  O262  1  0.25938947  0.86762972  0.50758887  1
  O  O263  1  0.75800150  0.37308377  -0.00801067  1
  O  O264  1  0.75668522  0.36904154  0.50549714  1
  O  O265  1  0.76531530  0.88705447  -0.03360190  1
  O  O266  1  0.75031902  0.88225954  0.50083887  1
  O  O267  1  0.13731669  0.50814081  0.24294396  1
  O  O268  1  0.12407951  0.49192182  0.74155362  1
  O  O269  1  0.13282746  1.00669654  0.23990527  1
  O  O270  1  0.12581498  0.99819395  0.73752784  1
  O  O271  1  0.63493132  0.49205743  0.24686354  1
  O  O272  1  0.62627686  0.50604864  0.75289440  1
  O  O273  1  0.65212284  1.04403054  0.27787429  1
  O  O274  1  0.62592128  0.99458814  0.74540001  1
  O  O275  1  0.36822432  0.00342695  0.26108759  1
  O  O276  1  0.37406009  0.01581222  0.74901410  1
  O  O277  1  0.36302098  0.50549948  0.25589258  1
  O  O278  1  0.37158585  0.49983814  0.76184433  1
  O  O279  1  0.88697891  0.01748453  0.24865404  1
  O  O280  1  0.86897261  0.00929470  0.75442721  1
  O  O281  1  0.85729495  0.49546273  0.24532061  1
  O  O282  1  0.88217868  0.51166007  0.75846134  1
  O  O283  1  0.11155492  0.36285598  0.38023562  1
  O  O284  1  0.11672049  0.37018475  0.86973203  1
  O  O285  1  0.12259960  0.86349087  0.37646790  1
  O  O286  1  0.10958842  0.87241319  0.87203969  1
  O  O287  1  0.61960337  0.37122940  0.37413333  1
  O  O288  1  0.62158120  0.36398342  0.87381228  1
  O  O289  1  0.60942734  0.85848498  0.38575727  1
  O  O290  1  0.61134366  0.86156187  0.86766999  1
  O  O291  1  0.38181924  0.13833934  0.12443234  1
  O  O292  1  0.38064608  0.13077857  0.63038686  1
  O  O293  1  0.38437835  0.61883545  0.13591688  1
  O  O294  1  0.36758481  0.63721508  0.62566574  1
  O  O295  1  0.88795904  0.13575337  0.12865764  1
  O  O296  1  0.87243601  0.12249684  0.63547293  1
  O  O297  1  0.86919465  0.64054908  0.13115059  1
  O  O298  1  0.87702246  0.62865003  0.62936490  1
  O  O299  1  0.25495763  0.25797104  0.12086853  1
  O  O300  1  0.25221714  0.25593427  0.61562790  1
  O  O301  1  0.24690646  0.76941155  0.13000962  1
  O  O302  1  0.25352118  0.75493504  0.61748271  1
  O  O303  1  0.76487703  0.24486799  0.12409896  1
  O  O304  1  0.74810606  0.26422916  0.61647545  1
  O  O305  1  0.75431983  0.75451289  0.13344059  1
  O  O306  1  0.75819193  0.76285241  0.62815045  1
  O  O307  1  0.24179291  0.25722677  0.38169364  1
  O  O308  1  0.23998551  0.25823715  0.88382900  1
  O  O309  1  0.24615831  0.74629102  0.37898851  1
  O  O310  1  0.24634747  0.74085653  0.87466590  1
  O  O311  1  0.74010073  0.23051226  0.38014714  1
  O  O312  1  0.74184782  0.23959026  0.86678847  1
  O  O313  1  0.74491319  0.75082927  0.37516112  1
  O  O314  1  0.73620627  0.73603179  0.87238387  1
  O  O315  1  0.00317687  0.11973749  0.00511195  1
  O  O316  1  0.01424996  0.13685574  0.50061436  1
  O  O317  1  0.01258273  0.62177811  -0.00622332  1
  O  O318  1  -0.00166820  0.61239785  0.50506620  1
  O  O319  1  0.50453333  0.12178637  0.00724725  1
  O  O320  1  0.50891901  0.12915457  0.51316322  1
  O  O321  1  0.50946992  0.61606522  0.00754098  1
  O  O322  1  0.51494233  0.62563313  0.49468806  1
  O  O323  1  0.49118667  0.37284453  0.48988254  1
  O  O324  1  0.49552874  0.38022704  0.99527388  1
  O  O325  1  0.48588455  0.87362924  0.49978349  1
  O  O326  1  0.50402392  0.88460507  0.99272712  1
  O  O327  1  0.99273537  0.37998206  0.49422206  1
  O  O328  1  0.99657616  0.37648823  0.98677209  1
  O  O329  1  1.00761041  0.86966686  0.48073899  1
  O  O330  1  0.99461928  0.88302886  0.99170833  1
  O  O331  1  0.49526098  0.49003322  0.37485553  1
  O  O332  1  0.48904462  0.49612679  0.88303165  1
  O  O333  1  0.49177649  0.98631599  0.38095792  1
  O  O334  1  0.49501836  0.99070212  0.88271433  1
  O  O335  1  1.00627665  0.49174494  0.38109775  1
  O  O336  1  0.98857037  0.49212123  0.87626304  1
  O  O337  1  1.00880911  0.98646820  0.36567587  1
  O  O338  1  0.99793196  0.99634889  0.88080635  1
  O  O339  1  0.00535778  0.00565455  0.11915438  1
  O  O340  1  0.01117148  -0.00111038  0.62749553  1
  O  O341  1  0.01296209  0.49236863  0.12764236  1
  O  O342  1  0.00647374  0.50375849  0.61747983  1
  O  O343  1  0.49597274  0.01357370  0.11977376  1
  O  O344  1  0.50351205  0.00565485  0.62504413  1
  O  O345  1  0.50954484  0.50637410  0.12306468  1
  O  O346  1  0.50494865  0.48341788  0.61908482  1
  O  O347  1  0.25277176  0.38576852  0.24010227  1
  O  O348  1  0.24296360  0.37520417  0.74098106  1
  O  O349  1  0.25234407  0.89011012  0.23746226  1
  O  O350  1  0.24609672  0.87159680  0.73555244  1
  O  O351  1  0.73912455  0.37471320  0.25639466  1
  O  O352  1  0.75680368  0.37326987  0.73976545  1
  O  O353  1  0.75541291  0.89341558  0.28683652  1
  O  O354  1  0.73803528  0.88450053  0.75735929  1
  O  O355  1  0.25524679  0.10963521  0.24297947  1
  O  O356  1  0.26400878  0.12839982  0.74387911  1
  O  O357  1  0.25776995  0.61926820  0.25553081  1
  O  O358  1  0.25100192  0.62074906  0.76288440  1
  O  O359  1  0.77165287  0.13288289  0.24607908  1
  O  O360  1  0.75573406  0.12225864  0.75212133  1
  O  O361  1  0.74698288  0.60901096  0.25058783  1
  O  O362  1  0.76291512  0.63101151  0.75678579  1
  O  O363  1  0.38390968  0.11065622  0.37911962  1
  O  O364  1  0.37772118  0.12687576  0.86248339  1
  O  O365  1  0.36616607  0.62101011  0.36805344  1
  O  O366  1  0.36707854  0.61436041  0.87597130  1
  O  O367  1  0.88420049  0.12797927  0.35647333  1
  O  O368  1  0.86816107  0.12344789  0.86800225  1
  O  O369  1  0.88338736  0.61590791  0.36381834  1
  O  O370  1  0.86813856  0.62168085  0.87098585  1
  O  O371  1  0.13711563  0.38299856  0.11921110  1
  O  O372  1  0.12947478  0.38331513  0.62877213  1
  O  O373  1  0.12927479  0.88714963  0.12374511  1
  O  O374  1  0.13231711  0.88176770  0.62140102  1
  O  O375  1  0.61938771  0.38115546  0.13670884  1
  O  O376  1  0.64066227  0.37563913  0.62541182  1
  O  O377  1  0.63397335  0.88405281  0.11350819  1
  O  O378  1  0.63129354  0.87570854  0.62848656  1
  O  O379  1  0.11846082  0.24651489  0.25566134  1
  O  O380  1  0.11949082  0.25536236  0.75482748  1
  O  O381  1  0.11820653  0.74929816  0.25696723  1
  O  O382  1  0.11024956  0.74955028  0.75017730  1
  O  O383  1  0.62210196  0.25747806  0.26883503  1
  O  O384  1  0.61308571  0.24346881  0.75976861  1
  O  O385  1  0.62418781  0.74633986  0.27068397  1
  O  O386  1  0.61634875  0.75233129  0.75768339  1
  O  O387  1  0.37554048  0.25024714  0.24073720  1
  O  O388  1  0.37957746  0.23982931  0.74614036  1
  O  O389  1  0.36887987  0.73872449  0.24434924  1
  O  O390  1  0.38075389  0.74927462  0.73933282  1
  O  O391  1  0.88456925  0.24660908  0.23737472  1
  O  O392  1  0.88596656  0.24053451  0.75369033  1
  O  O393  1  0.88883139  0.74814134  0.23871519  1
  O  O394  1  0.88896943  0.73894871  0.73501935  1
  O  O395  1  0.37557820  0.49373277  0.49064049  1
  O  O396  1  0.37940904  0.49535793  0.99585752  1
  O  O397  1  0.37329251  0.99143678  0.49564794  1
  O  O398  1  0.38937272  1.00859119  0.99928395  1
  O  O399  1  0.88476603  0.49084126  0.49821158  1
  O  O400  1  0.87484710  0.49204393  0.99510617  1
  O  O401  1  0.88513228  1.00165377  0.50111906  1
  O  O402  1  0.88968961  1.00445937  0.99345054  1
  O  O403  1  0.11399180  0.00206569  0.00646669  1
  O  O404  1  0.13311622  0.01279640  0.50513124  1
  O  O405  1  0.12132347  0.50552169  0.00914005  1
  O  O406  1  0.11532182  0.49245390  0.50911504  1
  O  O407  1  0.60959242  0.01899221  -0.00635779  1
  O  O408  1  0.62046640  0.01416178  0.51080773  1
  O  O409  1  0.61794743  0.50684168  0.01112196  1
  O  O410  1  0.62067425  0.51446654  0.50248038  1
  O  O411  1  0.36859591  0.36870407  0.12213460  1
  O  O412  1  0.36596679  0.36662263  0.62130823  1
  O  O413  1  0.36423771  0.87713205  0.12747999  1
  O  O414  1  0.36693483  0.86813483  0.61833947  1
  O  O415  1  0.87598241  0.36181426  0.11452629  1
  O  O416  1  0.86779452  0.37713335  0.61365585  1
  O  O417  1  0.87539818  0.85895612  0.12931939  1
  O  O418  1  0.86370177  0.86794206  0.62162625  1
  O  O419  1  0.12227669  0.13975038  0.38104632  1
  O  O420  1  0.12001144  0.13867389  0.87277143  1
  O  O421  1  0.13802327  0.63581675  0.37121214  1
  O  O422  1  0.13144444  0.62299611  0.88090763  1
  O  O423  1  0.61702677  0.13625096  0.39143512  1
  O  O424  1  0.63114715  0.13354520  0.87902352  1
  O  O425  1  0.62722627  0.63639494  0.38232732  1
  O  O426  1  0.63013743  0.62913619  0.88418229  1
