# generated using pymatgen
data_V85Zn86O256
_symmetry_space_group_name_H-M   'P 1'
_cell_length_a   16.93820533
_cell_length_b   16.93241000
_cell_length_c   16.93709419
_cell_angle_alpha   89.98535675
_cell_angle_beta   90.05971959
_cell_angle_gamma   89.97526639
_symmetry_Int_Tables_number   1
_chemical_formula_structural   V85Zn86O256
_chemical_formula_sum   'V85 Zn86 O256'
_cell_volume   4857.63390556
_cell_formula_units_Z   1
loop_
 _symmetry_equiv_pos_site_id
 _symmetry_equiv_pos_as_xyz
  1  'x, y, z'
loop_
 _atom_site_type_symbol
 _atom_site_label
 _atom_site_symmetry_multiplicity
 _atom_site_fract_x
 _atom_site_fract_y
 _atom_site_fract_z
 _atom_site_occupancy
  V  V0  1  0.37762448  0.75160150  0.62544531  1
  V  V1  1  0.86663392  0.74970156  0.62541201  1
  V  V2  1  0.37315186  0.13215167  0.24709152  1
  V  V3  1  0.12728655  0.49435411  0.12691681  1
  V  V4  1  0.62541766  0.63239299  -0.00489817  1
  V  V5  1  0.75055829  0.74264606  0.48053997  1
  V  V6  1  0.88465452  0.49898011  0.37327145  1
  V  V7  1  -0.00341822  0.74672252  0.75087545  1
  V  V8  1  0.24939208  0.11626731  0.86481469  1
  V  V9  1  0.62191257  -0.00021569  0.12630525  1
  V  V10  1  0.74486182  0.25086309  -0.00670986  1
  V  V11  1  0.74629635  0.37401350  0.12391962  1
  V  V12  1  0.37363675  -0.00310558  0.86311928  1
  V  V13  1  0.13763970  0.62875822  0.00293585  1
  V  V14  1  -0.00047057  0.00259368  -0.00073366  1
  V  V15  1  0.63867187  -0.01009233  0.62424361  1
  V  V16  1  0.74918658  0.87589616  0.12566906  1
  V  V17  1  0.87170740  0.37530352  0.49440849  1
  V  V18  1  0.87322344  0.24846766  0.12490130  1
  V  V19  1  -0.00057723  0.12733329  0.12580042  1
  V  V20  1  0.00130827  0.62455877  0.12319778  1
  V  V21  1  0.50459813  0.85992597  0.37210632  1
  V  V22  1  0.00423583  0.49207831  0.49976962  1
  V  V23  1  0.49419235  0.13219814  0.12427231  1
  V  V24  1  0.49745244  0.11520079  0.62455442  1
  V  V25  1  0.37046065  0.49648382  0.86862753  1
  V  V26  1  0.75347676  0.00076534  0.25454919  1
  V  V27  1  0.12665042  0.00068438  0.12477859  1
  V  V28  1  0.87474267  0.75002632  0.12309833  1
  V  V29  1  -0.00404962  0.62327612  0.62899940  1
  V  V30  1  0.50484690  0.24106082  0.75208552  1
  V  V31  1  0.17293507  0.30218817  0.82490438  1
  V  V32  1  -0.00331791  0.24936380  0.75297217  1
  V  V33  1  0.24874444  0.86955348  0.11985668  1
  V  V34  1  0.26076170  0.25172855  0.01108884  1
  V  V35  1  0.49393167  0.50228449  0.49490813  1
  V  V36  1  0.87127462  0.12266061  0.74673684  1
  V  V37  1  0.87461968  0.50444156  0.86584710  1
  V  V38  1  -0.00247186  0.88841080  0.37614154  1
  V  V39  1  0.49734041  -0.00628268  -0.00501256  1
  V  V40  1  0.86985695  -0.00084158  0.86796689  1
  V  V41  1  0.13034976  0.88104321  0.74642867  1
  V  V42  1  0.25114953  0.24693996  0.50159933  1
  V  V43  1  -0.00018732  0.87403124  0.87396935  1
  V  V44  1  0.50168678  0.63132018  0.12971622  1
  V  V45  1  0.37227884  0.74871215  0.12718622  1
  V  V46  1  0.37769235  0.62659312  0.25977694  1
  V  V47  1  0.62146292  0.13223586  -0.00320177  1
  V  V48  1  -0.00171274  0.25845018  0.25434827  1
  V  V49  1  0.74967375  0.37574051  0.62080003  1
  V  V50  1  0.25030253  0.75584400  0.50235588  1
  V  V51  1  0.12302044  0.75276686  0.37651529  1
  V  V52  1  0.62650101  0.37076942  0.75438807  1
  V  V53  1  0.61949075  0.12159876  0.49978081  1
  V  V54  1  0.87296972  0.37625708  -0.00240661  1
  V  V55  1  0.62372474  0.37394401  0.25155427  1
  V  V56  1  0.63377599  0.87630903  0.76359518  1
  V  V57  1  0.37476922  0.24880156  0.62924921  1
  V  V58  1  0.50391185  0.36994522  0.88041211  1
  V  V59  1  0.12539009  0.87616169  0.25029337  1
  V  V60  1  0.49458258  0.49821029  0.00012921  1
  V  V61  1  0.13480028  0.74952482  0.87777998  1
  V  V62  1  0.12515586  0.62450991  0.50340411  1
  V  V63  1  0.62107540  0.86145780  0.25139657  1
  V  V64  1  0.13630228  0.48731390  0.63863393  1
  V  V65  1  0.36921337  0.37844464  0.50528612  1
  V  V66  1  0.86882341  0.88187089  0.50030866  1
  V  V67  1  0.25426702  0.49901881  0.25899896  1
  V  V68  1  0.75046926  0.50297696  0.25409919  1
  V  V69  1  0.12271946  0.25553197  0.37717949  1
  V  V70  1  0.38459789  0.00273524  0.37240169  1
  V  V71  1  -0.00184487  0.37437555  0.87102015  1
  V  V72  1  0.12619274  0.13363127  -0.00374352  1
  V  V73  1  0.74295991  0.12385199  0.86874300  1
  V  V74  1  0.50371133  0.62956647  0.62596689  1
  V  V75  1  0.38156908  0.88381884  0.49772204  1
  V  V76  1  0.75309112  0.12393855  0.37642442  1
  V  V77  1  0.49332806  0.37492428  0.37656045  1
  V  V78  1  0.87417634  0.62672441  0.25501821  1
  V  V79  1  0.37374456  0.86964941  -0.00594921  1
  V  V80  1  0.50512944  0.75529778  0.76780685  1
  V  V81  1  0.75005514  0.63083020  0.86750974  1
  V  V82  1  0.62631814  0.50011245  0.12321343  1
  V  V83  1  0.62292127  0.50192566  0.62590441  1
  V  V84  1  0.87433411  0.87609644  -0.00059012  1
  Zn  Zn85  1  0.62501098  0.63629960  0.48697248  1
  Zn  Zn86  1  0.00046884  0.50042002  -0.00229125  1
  Zn  Zn87  1  0.74671224  0.25216065  0.49781077  1
  Zn  Zn88  1  0.00158737  0.12241229  0.62440652  1
  Zn  Zn89  1  0.87509314  0.25097291  0.62245943  1
  Zn  Zn90  1  0.25326648  0.62294251  0.37889328  1
  Zn  Zn91  1  0.75290056  0.50339291  0.74684717  1
  Zn  Zn92  1  0.74548216  0.75324039  -0.00520947  1
  Zn  Zn93  1  0.49578818  0.25441215  0.24660093  1
  Zn  Zn94  1  0.87679415  0.12211436  0.25437222  1
  Zn  Zn95  1  0.11814251  0.12388017  0.49885285  1
  Zn  Zn96  1  -0.00025053  0.75133151  0.25263468  1
  Zn  Zn97  1  -0.00111435  0.00444322  0.50367475  1
  Zn  Zn98  1  0.24984278  0.12251661  0.37417947  1
  Zn  Zn99  1  0.62334768  0.25083721  0.37795625  1
  Zn  Zn100  1  0.26822602  0.37385037  0.12854677  1
  Zn  Zn101  1  0.37058221  0.62312152  0.74879748  1
  Zn  Zn102  1  0.24855831  0.61915555  0.86869246  1
  Zn  Zn103  1  0.13016519  0.00570461  0.62062933  1
  Zn  Zn104  1  0.25917910  0.88425780  0.63366509  1
  Zn  Zn105  1  0.12551165  0.37704270  0.25416260  1
  Zn  Zn106  1  0.25290417  -0.00018594  0.25072522  1
  Zn  Zn107  1  0.18598429  0.18723447  0.19041027  1
  Zn  Zn108  1  0.19057664  0.18484456  0.67992787  1
  Zn  Zn109  1  0.19042469  0.68713532  0.19030522  1
  Zn  Zn110  1  0.18735473  0.68788654  0.68888373  1
  Zn  Zn111  1  0.68391515  0.18802912  0.18622096  1
  Zn  Zn112  1  0.68544861  0.18814507  0.68344134  1
  Zn  Zn113  1  0.69158690  0.68571411  0.18554424  1
  Zn  Zn114  1  0.68373560  0.69157223  0.68839268  1
  Zn  Zn115  1  0.31140167  0.31384722  0.31526084  1
  Zn  Zn116  1  0.33493279  0.30546254  0.82033239  1
  Zn  Zn117  1  0.31181411  0.81221130  0.31099755  1
  Zn  Zn118  1  0.31354905  0.80712004  0.81221686  1
  Zn  Zn119  1  0.81097550  0.31119522  0.31533511  1
  Zn  Zn120  1  0.81045655  0.31230760  0.81092985  1
  Zn  Zn121  1  0.81458134  0.81628856  0.31246167  1
  Zn  Zn122  1  0.81281039  0.81077958  0.80948103  1
  Zn  Zn123  1  0.18753393  0.43475288  0.43969255  1
  Zn  Zn124  1  0.19027657  0.43955709  0.94761340  1
  Zn  Zn125  1  0.19210852  0.94267393  0.43950636  1
  Zn  Zn126  1  0.18748741  0.93762326  0.93792300  1
  Zn  Zn127  1  0.67402333  0.47005406  0.42387651  1
  Zn  Zn128  1  0.68553153  0.44309767  0.93554227  1
  Zn  Zn129  1  0.68586407  0.93659711  0.43907214  1
  Zn  Zn130  1  0.68803909  0.94088428  0.93896823  1
  Zn  Zn131  1  0.31176333  0.05988465  0.05979302  1
  Zn  Zn132  1  0.30989764  0.06323326  0.56728051  1
  Zn  Zn133  1  0.31525145  0.55732910  0.06688709  1
  Zn  Zn134  1  0.31135588  0.56567465  0.56709215  1
  Zn  Zn135  1  0.81057639  0.06322509  0.06116741  1
  Zn  Zn136  1  0.80847867  0.06275214  0.56256469  1
  Zn  Zn137  1  0.81265132  0.56229238  0.05882798  1
  Zn  Zn138  1  0.81305552  0.56372681  0.56176393  1
  Zn  Zn139  1  0.43850861  0.44547228  0.19126511  1
  Zn  Zn140  1  0.43989379  0.43396654  0.68849090  1
  Zn  Zn141  1  0.43770750  0.93850101  0.18834610  1
  Zn  Zn142  1  0.44731043  0.93260654  0.68636640  1
  Zn  Zn143  1  0.93768623  0.43709756  0.18355394  1
  Zn  Zn144  1  0.94097200  0.43716131  0.68563343  1
  Zn  Zn145  1  0.93857012  0.93827731  0.18931120  1
  Zn  Zn146  1  0.93965705  0.93622236  0.68425512  1
  Zn  Zn147  1  0.06557265  0.06894200  0.31316716  1
  Zn  Zn148  1  0.06106483  0.06383161  0.81284617  1
  Zn  Zn149  1  0.06402692  0.56421835  0.31269888  1
  Zn  Zn150  1  0.06397855  0.56269849  0.81280150  1
  Zn  Zn151  1  0.56201243  0.05908186  0.31232275  1
  Zn  Zn152  1  0.56227372  0.05490765  0.81043840  1
  Zn  Zn153  1  0.56172719  0.56748931  0.31463440  1
  Zn  Zn154  1  0.56188517  0.56341123  0.81192609  1
  Zn  Zn155  1  0.43940356  0.18953100  0.43795440  1
  Zn  Zn156  1  0.43727470  0.17859081  0.92981128  1
  Zn  Zn157  1  0.43923206  0.69051217  0.44084548  1
  Zn  Zn158  1  0.43207412  0.68274712  0.94213596  1
  Zn  Zn159  1  0.93514556  0.18886599  0.43720634  1
  Zn  Zn160  1  0.93481783  0.18866383  0.93477953  1
  Zn  Zn161  1  0.93884992  0.68834071  0.43981300  1
  Zn  Zn162  1  0.93783264  0.68639561  0.93763749  1
  Zn  Zn163  1  0.06279917  0.31245776  0.05974743  1
  Zn  Zn164  1  0.06260073  0.30998996  0.56657021  1
  Zn  Zn165  1  0.06135736  0.81116182  0.06096752  1
  Zn  Zn166  1  0.05738950  0.81596340  0.56394395  1
  Zn  Zn167  1  0.44051493  0.31337555  0.05791222  1
  Zn  Zn168  1  0.56156388  0.31053554  0.56352806  1
  Zn  Zn169  1  0.55878822  0.81173555  0.06225640  1
  Zn  Zn170  1  0.56680057  0.81452767  0.55841566  1
  O  O171  1  0.11922701  0.12022109  0.11779107  1
  O  O172  1  0.12025088  0.12545512  0.61946461  1
  O  O173  1  0.11929561  0.62034323  0.12141445  1
  O  O174  1  0.11642077  0.62483133  0.61470440  1
  O  O175  1  0.61763388  0.11666202  0.11819175  1
  O  O176  1  0.62082627  0.11483782  0.61926229  1
  O  O177  1  0.61972116  0.62015722  0.11971835  1
  O  O178  1  0.61935903  0.61868204  0.62064103  1
  O  O179  1  0.38661125  0.37185686  0.38454581  1
  O  O180  1  0.38893813  0.38654502  0.87785926  1
  O  O181  1  0.38608687  0.87683149  0.37731055  1
  O  O182  1  0.36560320  0.87855715  0.88814669  1
  O  O183  1  0.87490190  0.38174704  0.38646651  1
  O  O184  1  0.87972287  0.38165170  0.87892057  1
  O  O185  1  0.88546684  0.86881934  0.38702188  1
  O  O186  1  0.87748545  0.88246492  0.87804473  1
  O  O187  1  0.26768739  -0.00108556  0.37164535  1
  O  O188  1  0.25642922  0.00889754  0.87835833  1
  O  O189  1  0.24268985  0.50362375  0.36361470  1
  O  O190  1  0.26762378  0.49531276  0.88331084  1
  O  O191  1  0.74123755  0.00751805  0.36435327  1
  O  O192  1  0.76056095  0.01074848  0.88093381  1
  O  O193  1  0.76994154  0.49235479  0.35865869  1
  O  O194  1  0.75787675  0.50955185  0.87240061  1
  O  O195  1  0.24220340  0.49892526  0.13497683  1
  O  O196  1  0.23470035  0.50412120  0.62249946  1
  O  O197  1  0.24154098  0.99141448  0.12493107  1
  O  O198  1  0.24535215  0.99464340  0.62399400  1
  O  O199  1  0.74869859  0.49449847  0.13280049  1
  O  O200  1  0.74172289  0.49415699  0.62583409  1
  O  O201  1  0.73993774  0.99546365  0.12794335  1
  O  O202  1  0.73694794  1.00031044  0.62976290  1
  O  O203  1  0.00171942  0.36215230  0.24286684  1
  O  O204  1  -0.00538203  0.36852484  0.76300382  1
  O  O205  1  0.00565024  0.87261554  0.25767380  1
  O  O206  1  0.00764214  0.86738375  0.75706866  1
  O  O207  1  0.50665212  0.37896145  0.25912553  1
  O  O208  1  0.50861055  0.36601103  0.75872036  1
  O  O209  1  0.50748444  0.87655108  0.25974001  1
  O  O210  1  0.50975098  0.85996330  0.75041687  1
  O  O211  1  0.49528876  0.12560259  0.23993673  1
  O  O212  1  0.50951774  0.13402064  0.74296401  1
  O  O213  1  0.49228400  0.61769776  0.24168629  1
  O  O214  1  0.50047347  0.63774742  0.74271224  1
  O  O215  1  0.99737823  0.13377438  0.24114187  1
  O  O216  1  0.98857773  0.13255691  0.75343630  1
  O  O217  1  0.99464310  0.62738986  0.23839717  1
  O  O218  1  1.00481294  0.63383106  0.74118948  1
  O  O219  1  0.36443473  0.24480328  -0.00398632  1
  O  O220  1  0.37107532  0.25756713  0.50659167  1
  O  O221  1  0.37899963  0.75718010  0.01283833  1
  O  O222  1  0.36866203  0.75695005  0.50620517  1
  O  O223  1  0.86559846  0.25504508  0.00438979  1
  O  O224  1  0.86960262  0.26187254  0.50213534  1
  O  O225  1  0.87481944  0.75762313  0.00733015  1
  O  O226  1  0.86699983  0.75472765  0.50479064  1
  O  O227  1  0.13387157  0.25225197  0.49550073  1
  O  O228  1  0.13342333  0.23822590  1.00263754  1
  O  O229  1  0.13094478  0.74713539  0.49732373  1
  O  O230  1  0.11760842  0.74063554  0.99056099  1
  O  O231  1  0.62720380  0.23891336  0.50112472  1
  O  O232  1  0.63162579  0.23379667  1.00185923  1
  O  O233  1  0.64591455  0.75229209  0.50134231  1
  O  O234  1  0.62515901  0.73684496  1.00479072  1
  O  O235  1  0.49957588  0.23562709  0.12300664  1
  O  O236  1  0.49662833  0.24031906  0.63290393  1
  O  O237  1  0.49319861  0.73735985  0.12387992  1
  O  O238  1  0.49694177  0.74148383  0.62255454  1
  O  O239  1  0.99465985  0.24460808  0.12840128  1
  O  O240  1  0.99525070  0.25162870  0.64104656  1
  O  O241  1  0.98980943  0.74446340  0.12719033  1
  O  O242  1  0.99381602  0.74241375  0.63120972  1
  O  O243  1  0.00633255  0.24618847  0.36426055  1
  O  O244  1  -0.00334529  0.25765802  0.86459610  1
  O  O245  1  0.01215216  0.75615471  0.37666124  1
  O  O246  1  0.00352140  0.75384211  0.86794506  1
  O  O247  1  0.50498620  0.26061489  0.37134601  1
  O  O248  1  0.49400527  0.25682009  0.86658455  1
  O  O249  1  0.50137160  0.76024745  0.37207506  1
  O  O250  1  0.49651128  0.74449211  0.86553303  1
  O  O251  1  0.25468686  0.13955071  0.49561197  1
  O  O252  1  0.24481182  0.13465771  0.99438498  1
  O  O253  1  0.24385649  0.63734887  0.49986288  1
  O  O254  1  0.23982735  0.62068323  1.00013177  1
  O  O255  1  0.73997391  0.12528734  0.49293787  1
  O  O256  1  0.74289754  0.13056807  0.99166576  1
  O  O257  1  0.75336174  0.64008968  0.50070828  1
  O  O258  1  0.74107260  0.62578848  0.99222017  1
  O  O259  1  0.24505506  0.35475304  0.00387161  1
  O  O260  1  0.26370431  0.36716950  0.49572468  1
  O  O261  1  0.25702411  0.87878132  0.01200836  1
  O  O262  1  0.26061954  0.86477351  0.49784623  1
  O  O263  1  0.74964440  0.36741938  0.00164404  1
  O  O264  1  0.75575590  0.38071521  0.50627746  1
  O  O265  1  0.75540211  0.87419045  0.00753627  1
  O  O266  1  0.76318373  0.86364135  0.49152266  1
  O  O267  1  0.13123572  0.50056576  0.24305398  1
  O  O268  1  0.12273347  0.50158057  0.73763845  1
  O  O269  1  0.12566750  0.99425890  0.24222682  1
  O  O270  1  0.12018461  0.98219537  0.75612194  1
  O  O271  1  0.63476647  0.49383239  0.24426610  1
  O  O272  1  0.62307284  0.49299552  0.73899389  1
  O  O273  1  0.63027199  0.99377284  0.23799999  1
  O  O274  1  0.61962572  0.98425882  0.74014942  1
  O  O275  1  0.37594758  0.00981223  0.25596784  1
  O  O276  1  0.38280994  -0.01328870  0.76433593  1
  O  O277  1  0.36533773  0.51350783  0.24891866  1
  O  O278  1  0.38269998  0.49947042  0.76495207  1
  O  O279  1  0.85804659  0.00193411  0.24209041  1
  O  O280  1  0.87809868  0.00550215  0.75994236  1
  O  O281  1  0.87402371  0.50562702  0.25388252  1
  O  O282  1  0.87462416  0.49737013  0.76177981  1
  O  O283  1  0.12636967  0.36175948  0.37416081  1
  O  O284  1  0.11836443  0.37295620  0.87982775  1
  O  O285  1  0.11892525  0.86966756  0.37094840  1
  O  O286  1  0.11950019  0.86770443  0.87112853  1
  O  O287  1  0.61457721  0.38081663  0.36754679  1
  O  O288  1  0.62019545  0.38117735  0.86271154  1
  O  O289  1  0.61172625  0.87962225  0.36727559  1
  O  O290  1  0.62609616  0.88179481  0.86377742  1
  O  O291  1  0.38353658  0.11577534  0.13275054  1
  O  O292  1  0.38777693  0.13432430  0.61718761  1
  O  O293  1  0.38205491  0.63122126  0.13084837  1
  O  O294  1  0.38376792  0.63742277  0.62528315  1
  O  O295  1  0.88074749  0.13171885  0.12435271  1
  O  O296  1  0.86968443  0.12599629  0.63854027  1
  O  O297  1  0.88192433  0.63090649  0.12924258  1
  O  O298  1  0.88902298  0.63069161  0.61983031  1
  O  O299  1  0.25043352  0.24863239  0.11397313  1
  O  O300  1  0.26484826  0.24747866  0.61821004  1
  O  O301  1  0.25638675  0.75839792  0.12570642  1
  O  O302  1  0.26037650  0.75687322  0.61847826  1
  O  O303  1  0.75194671  0.25332513  0.11394014  1
  O  O304  1  0.75155025  0.26512810  0.62341787  1
  O  O305  1  0.76245139  0.75494448  0.12175694  1
  O  O306  1  0.76505266  0.74284692  0.62550989  1
  O  O307  1  0.24348151  0.24895259  0.38385459  1
  O  O308  1  0.24530388  0.24370023  0.88244824  1
  O  O309  1  0.23856594  0.75044138  0.38251225  1
  O  O310  1  0.23709270  0.74911150  0.87855888  1
  O  O311  1  0.74181141  0.24069137  0.37539214  1
  O  O312  1  0.75370462  0.24209151  0.88673452  1
  O  O313  1  0.75502745  0.74536243  0.38153848  1
  O  O314  1  0.75650617  0.73502358  0.87747667  1
  O  O315  1  0.00693472  0.12383485  0.00353610  1
  O  O316  1  -0.00399267  0.12359396  0.50431597  1
  O  O317  1  0.00518617  0.62431478  0.01270453  1
  O  O318  1  0.00687506  0.61573300  0.50594821  1
  O  O319  1  0.50523532  0.11761128  0.00481283  1
  O  O320  1  0.51175260  0.12812128  0.50819614  1
  O  O321  1  0.50736005  0.61809784  0.00636754  1
  O  O322  1  0.50318977  0.61924966  0.50655326  1
  O  O323  1  0.49151311  0.38018846  0.49555282  1
  O  O324  1  0.50794505  0.38092551  0.98800218  1
  O  O325  1  0.49414407  0.86883727  0.48467650  1
  O  O326  1  0.48893961  0.88329098  1.00537087  1
  O  O327  1  0.99149728  0.38731808  0.50734618  1
  O  O328  1  0.99391383  0.37372232  0.98735092  1
  O  O329  1  0.98874476  0.87562315  0.49147280  1
  O  O330  1  0.99409606  0.88138799  0.99378051  1
  O  O331  1  0.49506544  0.49426941  0.39024355  1
  O  O332  1  0.49618033  0.49316177  0.88165208  1
  O  O333  1  0.48941687  0.98918234  0.37158903  1
  O  O334  1  0.49024877  1.00651834  0.88802279  1
  O  O335  1  0.99308472  0.50159184  0.38167896  1
  O  O336  1  0.99312534  0.49399279  0.87657295  1
  O  O337  1  1.00036532  0.99055679  0.37197594  1
  O  O338  1  0.99037470  0.99593360  0.88135141  1
  O  O339  1  0.00530434  0.00658642  0.11929188  1
  O  O340  1  0.00737356  0.00204597  0.62418886  1
  O  O341  1  0.00746167  0.50851302  0.12346486  1
  O  O342  1  0.00751347  0.50727283  0.61854429  1
  O  O343  1  0.50576478  0.00577393  0.11629421  1
  O  O344  1  0.50729835  0.01190725  0.62871282  1
  O  O345  1  0.50694500  0.51077070  0.11767257  1
  O  O346  1  0.50270087  0.51290934  0.62399750  1
  O  O347  1  0.24886608  0.38349837  0.24716097  1
  O  O348  1  0.23710155  0.35358858  0.77149339  1
  O  O349  1  0.24335851  0.87670407  0.23937810  1
  O  O350  1  0.23377641  0.86638182  0.75189153  1
  O  O351  1  0.74373293  0.38067024  0.24561195  1
  O  O352  1  0.74302746  0.37851827  0.74292893  1
  O  O353  1  0.74329920  0.88208964  0.24562838  1
  O  O354  1  0.73296932  0.86622910  0.75060018  1
  O  O355  1  0.25911056  0.12159742  0.25080488  1
  O  O356  1  0.24602993  0.13127639  0.76700563  1
  O  O357  1  0.25871484  0.61890557  0.25361845  1
  O  O358  1  0.25729375  0.63493844  0.75568860  1
  O  O359  1  0.74520559  0.11741597  0.25663310  1
  O  O360  1  0.75385480  0.13299645  0.76185804  1
  O  O361  1  0.76260037  0.61473277  0.24178589  1
  O  O362  1  0.74358146  0.62344001  0.76371285  1
  O  O363  1  0.37913442  0.11766912  0.36742665  1
  O  O364  1  0.35959019  0.11226729  0.87834734  1
  O  O365  1  0.37455870  0.63479931  0.36348745  1
  O  O366  1  0.37527290  0.60920370  0.87460179  1
  O  O367  1  0.85750622  0.12807100  0.37294847  1
  O  O368  1  0.86720750  0.11829271  0.86685729  1
  O  O369  1  0.88459348  0.61860644  0.36134931  1
  O  O370  1  0.86222405  0.61680191  0.88204853  1
  O  O371  1  0.12395651  0.38836494  0.12411563  1
  O  O372  1  0.12365256  0.38849669  0.62375209  1
  O  O373  1  0.13029413  0.87790371  0.12802472  1
  O  O374  1  0.12443144  0.87034805  0.64102672  1
  O  O375  1  0.63191783  0.38591768  0.13529300  1
  O  O376  1  0.62967317  0.38032842  0.63436318  1
  O  O377  1  0.62776167  0.88085187  0.13001211  1
  O  O378  1  0.62073800  0.88701446  0.62910751  1
  O  O379  1  0.11677555  0.25255977  0.25636568  1
  O  O380  1  0.11788520  0.24778339  0.75608028  1
  O  O381  1  0.12411571  0.75592680  0.25957713  1
  O  O382  1  0.11422461  0.75696610  0.75883792  1
  O  O383  1  0.62190277  0.26525519  0.24819393  1
  O  O384  1  0.61817054  0.25955859  0.74593257  1
  O  O385  1  0.63123931  0.76224650  0.24425746  1
  O  O386  1  0.61293780  0.76007814  0.74810912  1
  O  O387  1  0.37666634  0.23685708  0.25441968  1
  O  O388  1  0.38959257  0.25033370  0.73953980  1
  O  O389  1  0.36978872  0.74267742  0.23670820  1
  O  O390  1  0.38961630  0.75374711  0.74168079  1
  O  O391  1  0.88027726  0.24871377  0.24325825  1
  O  O392  1  0.87976953  0.24131462  0.74974164  1
  O  O393  1  0.87582056  0.74271224  0.24250139  1
  O  O394  1  0.88831926  0.75649716  0.74131689  1
  O  O395  1  0.38254510  0.49233221  0.51170881  1
  O  O396  1  0.38984335  0.50492114  0.99297026  1
  O  O397  1  0.37405911  0.98756160  0.49346833  1
  O  O398  1  0.38136418  0.99011867  0.99507076  1
  O  O399  1  0.88240929  0.49828408  0.49060367  1
  O  O400  1  0.87656594  0.49223848  0.99056154  1
  O  O401  1  0.87164310  0.98462701  0.50408694  1
  O  O402  1  0.87980473  0.99584394  0.99273623  1
  O  O403  1  0.11922318  0.00906390  0.00555618  1
  O  O404  1  0.11955149  0.00280393  0.49798630  1
  O  O405  1  0.12236329  0.50953672  0.00925381  1
  O  O406  1  0.11915490  0.50720934  0.50358773  1
  O  O407  1  0.61741101  0.00443377  0.00970363  1
  O  O408  1  0.62846693  0.00453415  0.51436118  1
  O  O409  1  0.61648156  0.50889903  0.00493239  1
  O  O410  1  0.60898690  0.48782956  0.51957034  1
  O  O411  1  0.38075724  0.38209900  0.12056111  1
  O  O412  1  0.38463437  0.36280279  0.61680508  1
  O  O413  1  0.36805333  0.86844458  0.12065338  1
  O  O414  1  0.38144931  0.86654342  0.61539185  1
  O  O415  1  0.86696934  0.36970848  0.11729063  1
  O  O416  1  0.86636279  0.38067303  0.61423964  1
  O  O417  1  0.87164211  0.86777536  0.12158950  1
  O  O418  1  0.88099243  0.86368570  0.60944646  1
  O  O419  1  0.12999989  0.13873795  0.37705240  1
  O  O420  1  0.13653103  0.11804971  0.88413588  1
  O  O421  1  0.12390564  0.63352641  0.38811181  1
  O  O422  1  0.12484484  0.63085589  0.88575943  1
  O  O423  1  0.62867075  0.12313568  0.38388421  1
  O  O424  1  0.63301380  0.11442704  0.88326231  1
  O  O425  1  0.63871383  0.57931944  0.39105524  1
  O  O426  1  0.63803390  0.61799691  0.88281435  1
