# generated using pymatgen
data_V85Zn86O256
_symmetry_space_group_name_H-M   'P 1'
_cell_length_a   16.93972085
_cell_length_b   16.93755945
_cell_length_c   16.93190417
_cell_angle_alpha   90.01965687
_cell_angle_beta   90.01811954
_cell_angle_gamma   90.01974128
_symmetry_Int_Tables_number   1
_chemical_formula_structural   V85Zn86O256
_chemical_formula_sum   'V85 Zn86 O256'
_cell_volume   4858.05929088
_cell_formula_units_Z   1
loop_
 _symmetry_equiv_pos_site_id
 _symmetry_equiv_pos_as_xyz
  1  'x, y, z'
loop_
 _atom_site_type_symbol
 _atom_site_label
 _atom_site_symmetry_multiplicity
 _atom_site_fract_x
 _atom_site_fract_y
 _atom_site_fract_z
 _atom_site_occupancy
  V  V0  1  0.87598314  0.75258002  0.12613679  1
  V  V1  1  0.38348711  0.37300560  0.00326683  1
  V  V2  1  0.75108711  0.87844201  0.61441690  1
  V  V3  1  0.87816414  0.00375186  0.37937009  1
  V  V4  1  0.49434923  0.24950453  0.24463864  1
  V  V5  1  0.37350616  0.74792934  0.12393985  1
  V  V6  1  0.86051247  0.25268980  0.11469670  1
  V  V7  1  0.12123271  0.74492890  0.86688240  1
  V  V8  1  0.25309721  0.12615346  0.86750711  1
  V  V9  1  0.00006535  0.86912901  0.87101794  1
  V  V10  1  0.11762315  0.87130970  0.25855052  1
  V  V11  1  0.87628594  0.00126309  0.87374541  1
  V  V12  1  0.62829803  0.37121753  0.24704282  1
  V  V13  1  0.62063500  0.49992296  0.62760858  1
  V  V14  1  -0.00030949  0.62125174  0.12660989  1
  V  V15  1  0.49617258  0.50397665  0.50611733  1
  V  V16  1  0.24936581  0.24878120  -0.00029016  1
  V  V17  1  -0.00045901  0.37281593  0.37824415  1
  V  V18  1  0.24899883  0.87718049  0.13146876  1
  V  V19  1  0.12262028  0.62202114  0.00071730  1
  V  V20  1  0.36581288  0.36792689  0.50309807  1
  V  V21  1  0.89526552  0.49936397  0.86589394  1
  V  V22  1  0.12065101  -0.00004125  0.61722723  1
  V  V23  1  0.37184087  0.50025966  0.37587636  1
  V  V24  1  0.37728474  0.74481291  0.62136608  1
  V  V25  1  0.87660006  0.24800524  0.62996910  1
  V  V26  1  0.62093435  0.00802117  0.62521017  1
  V  V27  1  0.37867338  0.23319791  0.63185453  1
  V  V28  1  0.25362779  0.37491150  0.63952659  1
  V  V29  1  0.37390775  0.61669453  0.74632241  1
  V  V30  1  0.93332676  0.82606564  0.43904264  1
  V  V31  1  0.05949077  0.18146184  0.56537291  1
  V  V32  1  0.89016871  0.12819378  0.74862844  1
  V  V33  1  0.12606402  0.37182862  0.25177827  1
  V  V34  1  0.75034990  0.00274860  0.75002611  1
  V  V35  1  0.74967775  0.49643955  0.24690483  1
  V  V36  1  0.87083075  0.38779006  0.00276800  1
  V  V37  1  0.00465816  0.62697503  0.62801943  1
  V  V38  1  0.38022394  0.49933037  0.88124507  1
  V  V39  1  0.00094517  -0.00050525  0.00032928  1
  V  V40  1  0.74359929  0.49380795  0.75266179  1
  V  V41  1  0.49855633  0.01146059  0.50249137  1
  V  V42  1  0.00053840  0.12733105  0.12281668  1
  V  V43  1  0.74209708  0.00161004  0.24626611  1
  V  V44  1  0.01313010  0.49615661  0.50386231  1
  V  V45  1  0.87231615  0.37198906  0.50368028  1
  V  V46  1  0.23724799  0.74727209  0.49554402  1
  V  V47  1  0.62520803  0.49634500  0.12142881  1
  V  V48  1  0.37332960  0.62319395  0.25103180  1
  V  V49  1  0.74347577  0.37019518  0.62390943  1
  V  V50  1  0.87235586  0.62344005  0.24916556  1
  V  V51  1  0.87536743  0.87295545  -0.00109814  1
  V  V52  1  0.87885128  0.75751204  0.62717079  1
  V  V53  1  0.50730508  0.24359809  0.75404168  1
  V  V54  1  0.49852466  0.87412564  0.87412626  1
  V  V55  1  0.24837317  0.74952683  -0.00050141  1
  V  V56  1  0.62350147  0.74859781  0.87234998  1
  V  V57  1  0.87230961  0.49491161  0.37725654  1
  V  V58  1  0.50749177  -0.00206408  0.00390240  1
  V  V59  1  0.62360768  0.62632037  0.50060396  1
  V  V60  1  -0.00092036  0.24773597  0.24942469  1
  V  V61  1  0.25270765  0.36956527  0.12368047  1
  V  V62  1  0.12964239  0.00038686  0.12853667  1
  V  V63  1  0.24570265  0.13057937  0.38786519  1
  V  V64  1  0.62170770  0.62166768  -0.00059664  1
  V  V65  1  0.63081157  0.13320352  -0.00263047  1
  V  V66  1  0.50195418  0.12210418  0.12532585  1
  V  V67  1  0.50194454  0.74934265  0.24979420  1
  V  V68  1  0.49742086  0.37355123  0.37481018  1
  V  V69  1  0.12095619  0.49527527  0.11919292  1
  V  V70  1  0.23548931  0.62713744  0.37532542  1
  V  V71  1  0.50182700  0.87715379  0.37482945  1
  V  V72  1  0.12770504  0.87730902  0.75182996  1
  V  V73  1  0.13468594  0.50263038  0.64275967  1
  V  V74  1  0.75080338  0.74958379  -0.00126057  1
  V  V75  1  0.74487726  0.13087716  0.38272736  1
  V  V76  1  0.37594284  0.87268870  0.49912103  1
  V  V77  1  0.74754996  0.62370438  0.87167397  1
  V  V78  1  0.36839595  0.00177080  0.36828487  1
  V  V79  1  0.36348874  0.12605517  0.24163062  1
  V  V80  1  0.49785456  0.61819797  0.11973428  1
  V  V81  1  0.24788681  0.61793984  0.86947706  1
  V  V82  1  0.50005342  0.74482717  0.74364843  1
  V  V83  1  0.37717940  0.00394968  0.86901783  1
  V  V84  1  0.87198850  0.63305452  0.74557952  1
  Zn  Zn85  1  0.62549005  0.87581429  0.74778200  1
  Zn  Zn86  1  0.12345724  0.25644491  0.85529174  1
  Zn  Zn87  1  0.75377520  0.13098094  0.87918878  1
  Zn  Zn88  1  0.62664571  0.25466833  0.38198484  1
  Zn  Zn89  1  0.62570318  0.75149527  0.37663234  1
  Zn  Zn90  1  0.00647553  0.36329203  0.87882014  1
  Zn  Zn91  1  0.87178700  0.12522570  0.24862092  1
  Zn  Zn92  1  0.63697856  0.26914558  0.87117485  1
  Zn  Zn93  1  0.74665358  0.62670123  0.37489148  1
  Zn  Zn94  1  0.74889962  0.75177999  0.49659970  1
  Zn  Zn95  1  0.12638122  0.12770693  -0.00252306  1
  Zn  Zn96  1  0.25050960  0.87417548  0.62452881  1
  Zn  Zn97  1  0.50843911  0.37956732  0.87066890  1
  Zn  Zn98  1  0.12513767  0.24483316  0.38909702  1
  Zn  Zn99  1  0.24873481  0.49918401  0.24967409  1
  Zn  Zn100  1  -0.00002157  0.00384407  0.49757417  1
  Zn  Zn101  1  0.25591815  -0.00065531  0.74484764  1
  Zn  Zn102  1  -0.00067517  0.75257255  0.26089608  1
  Zn  Zn103  1  0.61847816  0.88236597  0.23922214  1
  Zn  Zn104  1  0.74365762  0.88240077  0.12049752  1
  Zn  Zn105  1  0.37443935  0.87609891  0.00091918  1
  Zn  Zn106  1  0.62339764  0.14160780  0.51034290  1
  Zn  Zn107  1  0.18677151  0.18934281  0.18569915  1
  Zn  Zn108  1  0.20546163  0.18352697  0.68266998  1
  Zn  Zn109  1  0.18464189  0.68938490  0.19185042  1
  Zn  Zn110  1  0.18912327  0.68703179  0.68560767  1
  Zn  Zn111  1  0.68205000  0.18207533  0.18946742  1
  Zn  Zn112  1  0.69200328  0.18797952  0.69399103  1
  Zn  Zn113  1  0.68681896  0.68826031  0.18694300  1
  Zn  Zn114  1  0.68664641  0.68752844  0.68079826  1
  Zn  Zn115  1  0.31133666  0.30764928  0.31302099  1
  Zn  Zn116  1  0.31974700  0.30943342  0.81265462  1
  Zn  Zn117  1  0.31098550  0.81223638  0.31220978  1
  Zn  Zn118  1  0.31352301  0.80935056  0.81224938  1
  Zn  Zn119  1  0.81249065  0.31087397  0.30779116  1
  Zn  Zn120  1  0.81580698  0.31265242  0.81466978  1
  Zn  Zn121  1  0.80291740  0.81143819  0.30664308  1
  Zn  Zn122  1  0.80926448  0.81587143  0.80890478  1
  Zn  Zn123  1  0.18879257  0.43377615  0.43801756  1
  Zn  Zn124  1  0.18782795  0.43395094  0.93372842  1
  Zn  Zn125  1  0.19123975  0.93868879  0.43747669  1
  Zn  Zn126  1  0.18848335  0.93841875  0.94032047  1
  Zn  Zn127  1  0.68555452  0.43578293  0.43786392  1
  Zn  Zn128  1  0.69674614  0.43276045  0.94179773  1
  Zn  Zn129  1  0.68455387  0.94415510  0.43563514  1
  Zn  Zn130  1  0.68578052  0.93892267  0.93671575  1
  Zn  Zn131  1  0.31779343  0.06143566  0.05706129  1
  Zn  Zn132  1  0.30938376  0.05708098  0.56062836  1
  Zn  Zn133  1  0.30839124  0.55703268  0.06153943  1
  Zn  Zn134  1  0.30916293  0.56515241  0.56046442  1
  Zn  Zn135  1  0.81509507  0.06422686  0.06391160  1
  Zn  Zn136  1  0.81520931  0.06402478  0.56186785  1
  Zn  Zn137  1  0.80912518  0.56163241  0.06270384  1
  Zn  Zn138  1  0.80943909  0.56085340  0.56259346  1
  Zn  Zn139  1  0.43733264  0.43664898  0.18667598  1
  Zn  Zn140  1  0.44027265  0.43238290  0.69041824  1
  Zn  Zn141  1  0.43533696  0.93922421  0.18646505  1
  Zn  Zn142  1  0.43903715  0.93377891  0.68621039  1
  Zn  Zn143  1  0.93745140  0.43358727  0.18517956  1
  Zn  Zn144  1  0.93398296  0.44332038  0.69008414  1
  Zn  Zn145  1  0.93491706  0.93957194  0.19207040  1
  Zn  Zn146  1  0.94134946  0.93883236  0.68799410  1
  Zn  Zn147  1  0.06461636  0.05968009  0.31090304  1
  Zn  Zn148  1  0.06890276  0.06318473  0.81301026  1
  Zn  Zn149  1  0.05873111  0.55696101  0.30844518  1
  Zn  Zn150  1  0.05237811  0.54442072  0.81102914  1
  Zn  Zn151  1  0.56052921  0.06573967  0.31471774  1
  Zn  Zn152  1  0.56120114  0.06769526  0.81147435  1
  Zn  Zn153  1  0.56118328  0.56092048  0.31335011  1
  Zn  Zn154  1  0.55931786  0.56079872  0.81120015  1
  Zn  Zn155  1  0.43404487  0.19071053  0.43434376  1
  Zn  Zn156  1  0.43923729  0.18985416  0.93559223  1
  Zn  Zn157  1  0.43670865  0.68536488  0.43665329  1
  Zn  Zn158  1  0.43608963  0.68647776  0.93672914  1
  Zn  Zn159  1  0.92807327  0.19212004  0.43461624  1
  Zn  Zn160  1  0.94022682  0.19132367  0.93518865  1
  Zn  Zn161  1  0.93688184  0.66498796  0.44160703  1
  Zn  Zn162  1  0.94082765  0.67585532  0.93535149  1
  Zn  Zn163  1  0.05964789  0.31304181  0.05356426  1
  Zn  Zn164  1  0.07765585  0.31383514  0.68017599  1
  Zn  Zn165  1  0.06182791  0.81057716  0.06285477  1
  Zn  Zn166  1  0.06546816  0.81072694  0.57009047  1
  Zn  Zn167  1  0.56324517  0.30952423  0.06460185  1
  Zn  Zn168  1  0.55549931  0.31364280  0.56533480  1
  Zn  Zn169  1  0.56347383  0.81091464  0.06169408  1
  Zn  Zn170  1  0.56308202  0.81716157  0.56308314  1
  O  O171  1  0.11929205  0.11713844  0.12335761  1
  O  O172  1  0.12596664  0.11779774  0.61892575  1
  O  O173  1  0.11929352  0.61578475  0.12592510  1
  O  O174  1  0.11863187  0.61488539  0.62872985  1
  O  O175  1  0.61157783  0.12609772  0.11485379  1
  O  O176  1  0.63431242  0.11201001  0.62461679  1
  O  O177  1  0.61624741  0.61870943  0.12135896  1
  O  O178  1  0.62796340  0.61242993  0.61229069  1
  O  O179  1  0.37543608  0.38080398  0.38157975  1
  O  O180  1  0.37240454  0.38369780  0.88733167  1
  O  O181  1  0.38190265  0.88328408  0.37532056  1
  O  O182  1  0.38594679  0.87620975  0.87762940  1
  O  O183  1  0.87681125  0.37592228  0.38310043  1
  O  O184  1  0.87354345  0.38757275  0.88662903  1
  O  O185  1  0.87325227  0.88179817  0.37576151  1
  O  O186  1  0.88349659  0.87855410  0.87668930  1
  O  O187  1  0.26196010  0.00940441  0.37721138  1
  O  O188  1  0.25933841  0.00805351  0.87899010  1
  O  O189  1  0.25819878  0.50630328  0.37491740  1
  O  O190  1  0.25909620  0.51402091  0.88239544  1
  O  O191  1  0.75577005  0.00909000  0.36806099  1
  O  O192  1  0.75770483  -0.00047377  0.86631819  1
  O  O193  1  0.75429879  0.49902808  0.36397748  1
  O  O194  1  0.76024925  0.50716142  0.86678988  1
  O  O195  1  0.24067566  0.48814189  0.12872807  1
  O  O196  1  0.23889050  0.49741820  0.62073683  1
  O  O197  1  0.24227267  0.98891574  0.11481860  1
  O  O198  1  0.23952313  0.99480812  0.62598966  1
  O  O199  1  0.74127507  0.50438547  0.13844956  1
  O  O200  1  0.74224276  0.49299259  0.63245903  1
  O  O201  1  0.75800806  1.00207773  0.14266568  1
  O  O202  1  0.74669783  0.99449590  0.62983600  1
  O  O203  1  0.00616453  0.36845244  0.25643552  1
  O  O204  1  -0.02081191  0.44500588  0.79582616  1
  O  O205  1  0.01245995  0.87352385  0.24705033  1
  O  O206  1  0.01153833  0.87759591  0.76324948  1
  O  O207  1  0.50341008  0.36800795  0.25386388  1
  O  O208  1  0.48649558  0.35597319  0.75718805  1
  O  O209  1  0.49818625  0.86741565  0.25573723  1
  O  O210  1  0.50141353  0.86268569  0.75741381  1
  O  O211  1  0.49428585  0.13060171  0.24388456  1
  O  O212  1  0.49570976  0.14140190  0.75529015  1
  O  O213  1  0.49314655  0.63068485  0.24415149  1
  O  O214  1  0.49019412  0.63792180  0.75541318  1
  O  O215  1  0.99890259  0.13253473  0.24233230  1
  O  O216  1  0.98847154  0.11349566  0.74927272  1
  O  O217  1  0.99310173  0.62918946  0.24321754  1
  O  O218  1  0.98638000  0.61843062  0.73600493  1
  O  O219  1  0.36486372  0.26423380  -0.00498149  1
  O  O220  1  0.38646565  0.26093526  0.51289964  1
  O  O221  1  0.36546363  0.75004330  0.00573154  1
  O  O222  1  0.37339247  0.75330306  0.50651641  1
  O  O223  1  0.87290299  0.24948612  0.01243194  1
  O  O224  1  0.87793089  0.26348988  0.51231150  1
  O  O225  1  0.87115121  0.75243896  0.00473222  1
  O  O226  1  0.87869248  0.75809747  0.50104319  1
  O  O227  1  0.11371838  0.24092282  0.50816036  1
  O  O228  1  0.14082880  0.24942660  1.00062239  1
  O  O229  1  0.13873410  0.75369858  0.50087637  1
  O  O230  1  0.13152182  0.74422792  0.99164641  1
  O  O231  1  0.61755418  0.25351024  0.49580745  1
  O  O232  1  0.62184648  0.23581380  0.99938301  1
  O  O233  1  0.62154209  0.73957846  0.50072232  1
  O  O234  1  0.63021429  0.74094336  0.99147724  1
  O  O235  1  0.50095998  0.24150628  0.13711761  1
  O  O236  1  0.48632943  0.25417536  0.63651641  1
  O  O237  1  0.49260613  0.73962732  0.13074162  1
  O  O238  1  0.49172607  0.75448715  0.63286089  1
  O  O239  1  0.99930352  0.23912088  0.12871110  1
  O  O240  1  0.99853013  0.24756307  0.62208501  1
  O  O241  1  0.98755126  0.74546769  0.12821524  1
  O  O242  1  0.99163141  0.74061559  0.62161060  1
  O  O243  1  0.00195373  0.25314796  0.36579502  1
  O  O244  1  0.00756088  0.24874755  0.87071373  1
  O  O245  1  -0.01513370  0.75685686  0.38309097  1
  O  O246  1  0.00981276  0.75586500  0.88063135  1
  O  O247  1  0.49879864  0.25729532  0.36296390  1
  O  O248  1  0.50386897  0.25295643  0.86583701  1
  O  O249  1  0.49746442  0.75878106  0.36675049  1
  O  O250  1  0.50385005  0.75573707  0.86926725  1
  O  O251  1  0.25209904  0.12452299  0.48625981  1
  O  O252  1  0.25164931  0.13372184  0.99439130  1
  O  O253  1  0.25258516  0.63859315  0.49038756  1
  O  O254  1  0.24340502  0.63383113  0.99618475  1
  O  O255  1  0.74714911  0.12104557  0.48556184  1
  O  O256  1  0.73342804  0.11569405  1.00208104  1
  O  O257  1  0.73921601  0.62592346  0.49758927  1
  O  O258  1  0.74466283  0.63074402  0.99185650  1
  O  O259  1  0.25759743  0.36957358  0.00731913  1
  O  O260  1  0.26261085  0.37879005  0.50574677  1
  O  O261  1  0.24879461  0.86199553  0.00722215  1
  O  O262  1  0.25801497  0.86216486  0.49700571  1
  O  O263  1  0.77008251  0.37260324  0.00597073  1
  O  O264  1  0.75974670  0.38421605  0.51189572  1
  O  O265  1  0.75768438  0.86821310  -0.00228517  1
  O  O266  1  0.74511035  0.87688774  0.51082898  1
  O  O267  1  0.12498541  0.48545189  0.24198686  1
  O  O268  1  0.13442137  0.50636114  0.74154076  1
  O  O269  1  0.12109257  0.98972822  0.23481032  1
  O  O270  1  0.12913739  0.99202924  0.74199045  1
  O  O271  1  0.63025811  0.49461184  0.24297973  1
  O  O272  1  0.63197130  0.50804763  0.74045450  1
  O  O273  1  0.63760531  1.00198579  0.25509753  1
  O  O274  1  0.63188602  1.00026725  0.74459994  1
  O  O275  1  0.38056136  0.01116652  0.25904922  1
  O  O276  1  0.37525251  -0.00968918  0.76434394  1
  O  O277  1  0.37206206  0.50325647  0.25912189  1
  O  O278  1  0.37942965  0.51330065  0.75487467  1
  O  O279  1  0.86524211  0.00206287  0.26164424  1
  O  O280  1  0.86976476  0.00381339  0.75426377  1
  O  O281  1  0.86688113  0.50002904  0.25289558  1
  O  O282  1  0.85908255  0.51737277  0.75016313  1
  O  O283  1  0.12120789  0.36892592  0.36775410  1
  O  O284  1  0.12141007  0.37219514  0.87399068  1
  O  O285  1  0.13182560  0.88396439  0.35613636  1
  O  O286  1  0.11982816  0.86733993  0.87183404  1
  O  O287  1  0.61599588  0.37825798  0.36334676  1
  O  O288  1  0.62111321  0.38183980  0.88138303  1
  O  O289  1  0.61030604  0.87635247  0.37213273  1
  O  O290  1  0.61372571  0.86926095  0.87220681  1
  O  O291  1  0.38571374  0.11949562  0.13209537  1
  O  O292  1  0.37132541  0.13504909  0.61912953  1
  O  O293  1  0.37985504  0.62505187  0.12919252  1
  O  O294  1  0.36978183  0.63562513  0.63166762  1
  O  O295  1  0.88316746  0.13547482  0.12669237  1
  O  O296  1  0.86985623  0.13766773  0.63201150  1
  O  O297  1  0.88161697  0.62861673  0.12962009  1
  O  O298  1  0.87685385  0.63626658  0.62789719  1
  O  O299  1  0.24834319  0.26213126  0.11859882  1
  O  O300  1  0.26853345  0.26104819  0.62390538  1
  O  O301  1  0.25340687  0.75333841  0.11806115  1
  O  O302  1  0.25612199  0.75025637  0.61160648  1
  O  O303  1  0.76365583  0.24388950  0.13255131  1
  O  O304  1  0.75904918  0.26415739  0.63305544  1
  O  O305  1  0.76296651  0.74590588  0.11865889  1
  O  O306  1  0.75885250  0.75904321  0.61940202  1
  O  O307  1  0.24613770  0.23623609  0.37548566  1
  O  O308  1  0.25249670  0.23804599  0.87966905  1
  O  O309  1  0.25534069  0.74185184  0.38619916  1
  O  O310  1  0.24412617  0.74156834  0.88287209  1
  O  O311  1  0.75019799  0.23415032  0.36761914  1
  O  O312  1  0.74664026  0.24233492  0.86326438  1
  O  O313  1  0.74419796  0.74700376  0.37867333  1
  O  O314  1  0.74212921  0.74534250  0.87686803  1
  O  O315  1  0.00288955  0.11814100  0.00785653  1
  O  O316  1  -0.00095446  0.12696897  0.50209889  1
  O  O317  1  0.00974303  0.63665648  0.02100687  1
  O  O318  1  -0.00443674  0.60955949  0.51777679  1
  O  O319  1  0.50458910  0.11886271  0.00695415  1
  O  O320  1  0.49940811  0.11350460  0.49276270  1
  O  O321  1  0.50534746  0.62869925  0.01041806  1
  O  O322  1  0.50374367  0.61088654  0.49573348  1
  O  O323  1  0.48904430  0.38780601  0.49373007  1
  O  O324  1  0.48538314  0.36999123  1.00221543  1
  O  O325  1  0.49389540  0.88134233  0.49080800  1
  O  O326  1  0.49899532  0.87956569  0.99161952  1
  O  O327  1  0.98847166  0.38374569  0.49218996  1
  O  O328  1  0.97991185  0.36998665  0.99728899  1
  O  O329  1  1.00017689  0.87649986  0.49664232  1
  O  O330  1  0.99518759  0.87801735  0.99123248  1
  O  O331  1  0.48718639  0.49459952  0.37927362  1
  O  O332  1  0.48442326  0.50203745  0.87461025  1
  O  O333  1  0.49098536  0.99504832  0.38063556  1
  O  O334  1  0.49602520  0.99192917  0.87838589  1
  O  O335  1  0.99316264  0.49429175  0.38265640  1
  O  O336  1  0.97843729  0.55105881  0.89939179  1
  O  O337  1  0.98553576  1.00722270  0.37513895  1
  O  O338  1  0.99755135  0.99090314  0.88139759  1
  O  O339  1  0.00255927  0.01034596  0.12172665  1
  O  O340  1  0.01415932  -0.00378286  0.62101393  1
  O  O341  1  0.00843005  0.50818371  0.13099335  1
  O  O342  1  0.01382034  0.50174641  0.62233584  1
  O  O343  1  0.49578985  0.00657877  0.11499560  1
  O  O344  1  0.50832308  -0.00653505  0.61570009  1
  O  O345  1  0.50843974  0.51111883  0.13169172  1
  O  O346  1  0.50716776  0.49568965  0.61789492  1
  O  O347  1  0.24222753  0.37246267  0.24342767  1
  O  O348  1  0.26085484  0.37728166  0.73889279  1
  O  O349  1  0.24126532  0.86824638  0.23673447  1
  O  O350  1  0.23857224  0.87485880  0.75260472  1
  O  O351  1  0.73848216  0.38129507  0.25260194  1
  O  O352  1  0.75894047  0.38941237  0.74130042  1
  O  O353  1  0.74461202  0.89065905  0.24992013  1
  O  O354  1  0.74857070  0.88677709  0.73960838  1
  O  O355  1  0.26089480  0.12898619  0.25025079  1
  O  O356  1  0.25567712  0.11771086  0.76447284  1
  O  O357  1  0.25649598  0.62466188  0.25679615  1
  O  O358  1  0.26062959  0.63374759  0.76003528  1
  O  O359  1  0.74970440  0.11562422  0.25841418  1
  O  O360  1  0.76040967  0.11113506  0.74926346  1
  O  O361  1  0.75518245  0.61627933  0.25130985  1
  O  O362  1  0.75200351  0.62096166  0.75246537  1
  O  O363  1  0.36468517  0.12040361  0.36738958  1
  O  O364  1  0.36467201  0.11580382  0.88295450  1
  O  O365  1  0.36877644  0.61635310  0.36949542  1
  O  O366  1  0.36729272  0.62038755  0.86958453  1
  O  O367  1  0.86301556  0.12017975  0.37162886  1
  O  O368  1  0.87509293  0.11574330  0.86858181  1
  O  O369  1  0.87138761  0.61230638  0.36634397  1
  O  O370  1  0.86114462  0.62826852  0.86217739  1
  O  O371  1  0.12869000  0.37933867  0.12915906  1
  O  O372  1  0.13558078  0.39265567  0.62555427  1
  O  O373  1  0.13068192  0.88025571  0.12917185  1
  O  O374  1  0.12720734  0.88117725  0.63570726  1
  O  O375  1  0.61737355  0.38346201  0.13554375  1
  O  O376  1  0.63308736  0.38789511  0.62053837  1
  O  O377  1  0.63155719  0.86686686  0.12740994  1
  O  O378  1  0.63405867  0.88600270  0.62720684  1
  O  O379  1  0.11417286  0.25930444  0.24695439  1
  O  O380  1  0.13151804  0.24235763  0.74193762  1
  O  O381  1  0.11878858  0.76489986  0.24747379  1
  O  O382  1  0.12909307  0.75574258  0.76139645  1
  O  O383  1  0.61745438  0.25783144  0.25247801  1
  O  O384  1  0.61179847  0.24791410  0.74800442  1
  O  O385  1  0.61007440  0.74655916  0.25266254  1
  O  O386  1  0.61707253  0.74919308  0.75271565  1
  O  O387  1  0.38263763  0.23950126  0.25238896  1
  O  O388  1  0.37891952  0.24455261  0.73727608  1
  O  O389  1  0.38376092  0.74468646  0.24441266  1
  O  O390  1  0.38059095  0.74282820  0.74199957  1
  O  O391  1  0.88714872  0.25184905  0.23883614  1
  O  O392  1  0.87951880  0.24451821  0.73907140  1
  O  O393  1  0.87538128  0.74437003  0.24231208  1
  O  O394  1  0.86933149  0.74166788  0.74147005  1
  O  O395  1  0.37894196  0.49697134  0.49386487  1
  O  O396  1  0.37073448  0.48719265  0.99376441  1
  O  O397  1  0.38060031  0.99221190  0.49306317  1
  O  O398  1  0.38771121  0.99557176  0.98830136  1
  O  O399  1  0.88115535  0.49155609  0.49840017  1
  O  O400  1  0.87183983  0.49316562  0.99483256  1
  O  O401  1  0.87646268  1.00092782  0.48688084  1
  O  O402  1  0.88078458  0.99362358  0.99454783  1
  O  O403  1  0.11671757  -0.00164801  0.01126252  1
  O  O404  1  0.12322009  -0.00721485  0.51216413  1
  O  O405  1  0.13073504  0.50579069  0.01264823  1
  O  O406  1  0.11486672  0.49617398  0.50173822  1
  O  O407  1  0.61195168  0.00675239  -0.00432779  1
  O  O408  1  0.61426650  0.00326242  0.50745439  1
  O  O409  1  0.63456718  0.50548768  0.01577142  1
  O  O410  1  0.61521423  0.50406435  0.50547991  1
  O  O411  1  0.36660285  0.38157569  0.11346130  1
  O  O412  1  0.36750235  0.37864606  0.61674373  1
  O  O413  1  0.36600910  0.86840389  0.12357452  1
  O  O414  1  0.37168131  0.86279918  0.62006248  1
  O  O415  1  0.87910648  0.36196914  0.11715804  1
  O  O416  1  0.87185627  0.37159429  0.62178008  1
  O  O417  1  0.87225722  0.86737632  0.11937578  1
  O  O418  1  0.86997322  0.86499003  0.63084771  1
  O  O419  1  0.14181094  0.12368978  0.36739976  1
  O  O420  1  0.14235581  0.12209090  0.87925545  1
  O  O421  1  0.13622617  0.61926645  0.36606826  1
  O  O422  1  0.13031229  0.62888648  0.87689212  1
  O  O423  1  0.63641900  0.12684260  0.37747501  1
  O  O424  1  0.62512887  0.12340402  0.89165651  1
  O  O425  1  0.62303443  0.62330862  0.38772774  1
  O  O426  1  0.62940592  0.62651610  0.87950801  1
