# generated using pymatgen
data_V85Zn86O256
_symmetry_space_group_name_H-M   'P 1'
_cell_length_a   16.96049284
_cell_length_b   16.96621349
_cell_length_c   16.96935501
_cell_angle_alpha   90.02008693
_cell_angle_beta   90.01488235
_cell_angle_gamma   89.89876894
_symmetry_Int_Tables_number   1
_chemical_formula_structural   V85Zn86O256
_chemical_formula_sum   'V85 Zn86 O256'
_cell_volume   4883.01447567
_cell_formula_units_Z   1
loop_
 _symmetry_equiv_pos_site_id
 _symmetry_equiv_pos_as_xyz
  1  'x, y, z'
loop_
 _atom_site_type_symbol
 _atom_site_label
 _atom_site_symmetry_multiplicity
 _atom_site_fract_x
 _atom_site_fract_y
 _atom_site_fract_z
 _atom_site_occupancy
  V  V0  1  0.37421346  0.87621276  -0.00088977  1
  V  V1  1  0.24961127  0.74993224  -0.00347554  1
  V  V2  1  0.48791327  0.12583756  0.12952641  1
  V  V3  1  0.92256203  0.81669384  0.55637816  1
  V  V4  1  0.13262427  0.49520737  0.12693894  1
  V  V5  1  0.50614932  0.62183686  0.62306895  1
  V  V6  1  -0.00174642  0.25466608  0.25754723  1
  V  V7  1  0.75286016  0.50322466  0.74448609  1
  V  V8  1  0.74446590  0.74541931  0.50270076  1
  V  V9  1  0.37798204  0.25187402  0.62412554  1
  V  V10  1  0.50058747  0.87625953  0.87443888  1
  V  V11  1  0.37071937  0.12894514  0.26203088  1
  V  V12  1  0.12827052  0.14105863  -0.00237701  1
  V  V13  1  0.49684955  0.25549795  0.25333622  1
  V  V14  1  0.62675810  0.37188493  0.22893163  1
  V  V15  1  0.25250344  0.88442516  0.62382463  1
  V  V16  1  0.50485836  0.62324353  0.11884842  1
  V  V17  1  0.31742386  0.31384475  0.06558514  1
  V  V18  1  0.24914550  0.00552417  0.25486541  1
  V  V19  1  0.74418969  0.25365404  0.01454706  1
  V  V20  1  0.87553651  0.87744892  -0.00147790  1
  V  V21  1  0.74811117  0.87482593  0.12725176  1
  V  V22  1  0.37786036  0.62088559  0.74800710  1
  V  V23  1  0.24164916  0.00103542  0.75022389  1
  V  V24  1  0.25404769  0.24692055  0.49342803  1
  V  V25  1  0.87774864  0.13307039  0.75003509  1
  V  V26  1  0.62586828  0.74943849  0.87374084  1
  V  V27  1  0.62491942  0.87854593  0.74279617  1
  V  V28  1  0.62504549  0.50242837  0.62430645  1
  V  V29  1  0.87389007  -0.00344737  0.38405603  1
  V  V30  1  0.25229271  0.62027438  0.37450539  1
  V  V31  1  0.74507638  0.12702276  0.38312137  1
  V  V32  1  0.25712277  0.49314361  0.24965838  1
  V  V33  1  0.37599541  0.74763449  0.12484271  1
  V  V34  1  0.50211337  0.74908060  0.74861903  1
  V  V35  1  0.12477960  0.87600347  0.24692806  1
  V  V36  1  0.56716420  0.56305112  0.44889621  1
  V  V37  1  0.74910313  0.87442107  0.61824319  1
  V  V38  1  0.75400987  0.61797194  0.38309440  1
  V  V39  1  0.88455349  0.36433417  0.48920383  1
  V  V40  1  0.49955069  0.00140194  0.50847361  1
  V  V41  1  0.74511753  0.00381739  0.74246385  1
  V  V42  1  0.87524365  0.12257752  0.25384404  1
  V  V43  1  0.48997891  0.87558177  0.38094478  1
  V  V44  1  0.75233716  0.36633860  0.61676455  1
  V  V45  1  0.00036527  0.12683939  0.12831710  1
  V  V46  1  0.37766662  0.75486765  0.62278498  1
  V  V47  1  0.12762369  0.24495681  0.37526769  1
  V  V48  1  0.00998206  0.12432113  0.63003126  1
  V  V49  1  0.49675628  -0.00039611  0.00133402  1
  V  V50  1  0.00487567  0.62263319  0.12531374  1
  V  V51  1  0.24704902  0.13884129  0.87714028  1
  V  V52  1  0.37398311  0.12577841  0.75021938  1
  V  V53  1  0.75705617  0.62456883  0.87088538  1
  V  V54  1  0.00136409  0.00335905  -0.00939202  1
  V  V55  1  0.74744045  0.12655477  0.87852039  1
  V  V56  1  0.12704078  0.74766370  0.37288037  1
  V  V57  1  0.88658822  0.63957138  0.73482582  1
  V  V58  1  0.37455987  0.49259012  0.87994495  1
  V  V59  1  0.25655521  0.75473987  0.49823708  1
  V  V60  1  0.75028207  -0.00265154  0.25341292  1
  V  V61  1  0.25017513  0.62871511  0.87257986  1
  V  V62  1  0.87319769  0.62011064  0.25012234  1
  V  V63  1  0.74755428  0.75025177  0.00044487  1
  V  V64  1  0.49948002  0.25170446  0.74998460  1
  V  V65  1  0.62163820  -0.00172809  0.12800677  1
  V  V66  1  -0.00624875  0.87212663  0.37176946  1
  V  V67  1  0.23771276  0.49786387  0.74375097  1
  V  V68  1  0.38904872  0.38244947  0.49617982  1
  V  V69  1  0.00160902  0.74829900  0.24584592  1
  V  V70  1  0.62339338  0.25101817  0.87656614  1
  V  V71  1  0.12497124  -0.00265145  0.12258083  1
  V  V72  1  0.12922795  0.11553892  0.49793794  1
  V  V73  1  0.62163358  0.87212079  0.25563257  1
  V  V74  1  0.11414386  0.87558093  0.75266286  1
  V  V75  1  0.12448584  0.61939046  0.51484953  1
  V  V76  1  0.23758926  0.37955323  0.62197668  1
  V  V77  1  0.87374582  -0.00155786  0.87636056  1
  V  V78  1  0.87432766  0.75001763  0.12633726  1
  V  V79  1  0.51201148  0.49301986  -0.00078873  1
  V  V80  1  0.74979357  0.49375593  0.23484702  1
  V  V81  1  0.61971917  0.12158212  0.00354352  1
  V  V82  1  0.00081788  0.49211364  -0.00200024  1
  V  V83  1  0.12421207  0.37589187  0.25682632  1
  V  V84  1  0.62482136  0.25969868  0.38418071  1
  Zn  Zn85  1  0.12610226  0.62417704  -0.00341233  1
  Zn  Zn86  1  0.87134959  0.37590884  0.00716003  1
  Zn  Zn87  1  0.37717225  0.62168846  0.24844212  1
  Zn  Zn88  1  0.49403785  0.37125219  0.87592731  1
  Zn  Zn89  1  0.51040751  0.12126374  0.62880632  1
  Zn  Zn90  1  0.01417667  0.48894242  0.50061129  1
  Zn  Zn91  1  0.49814766  0.74873411  0.25156597  1
  Zn  Zn92  1  0.62915515  0.12194943  0.50972123  1
  Zn  Zn93  1  0.38647035  0.49732808  0.37603200  1
  Zn  Zn94  1  0.63074809  0.37384295  0.75032225  1
  Zn  Zn95  1  0.89688063  0.48323709  0.85423281  1
  Zn  Zn96  1  0.62250049  0.74632227  0.37810802  1
  Zn  Zn97  1  0.37255774  0.00234094  0.87587446  1
  Zn  Zn98  1  0.36775462  -0.00089920  0.38166697  1
  Zn  Zn99  1  0.02976688  0.34802252  0.84984833  1
  Zn  Zn100  1  0.87412180  0.24581602  0.61960995  1
  Zn  Zn101  1  0.86650928  0.25389703  0.13278435  1
  Zn  Zn102  1  0.00281284  -0.00281619  0.50308825  1
  Zn  Zn103  1  0.88495154  0.48701166  0.36980962  1
  Zn  Zn104  1  0.09755440  0.74848615  0.85953192  1
  Zn  Zn105  1  0.24973717  0.87598875  0.12209286  1
  Zn  Zn106  1  0.63116494  0.61678277  0.00199186  1
  Zn  Zn107  1  0.19059356  0.19068869  0.18354602  1
  Zn  Zn108  1  0.19246752  0.18653296  0.67917544  1
  Zn  Zn109  1  0.19137848  0.68420316  0.18670233  1
  Zn  Zn110  1  0.19066105  0.69444664  0.69014137  1
  Zn  Zn111  1  0.67933283  0.18079992  0.19633738  1
  Zn  Zn112  1  0.68514484  0.18648928  0.68807790  1
  Zn  Zn113  1  0.68652348  0.68499638  0.18963065  1
  Zn  Zn114  1  0.69155461  0.68850855  0.68270921  1
  Zn  Zn115  1  0.31513280  0.31530359  0.31362499  1
  Zn  Zn116  1  0.19769192  0.31394257  0.80613754  1
  Zn  Zn117  1  0.31089591  0.81248319  0.30644476  1
  Zn  Zn118  1  0.31349911  0.81347990  0.81106726  1
  Zn  Zn119  1  0.80526474  0.30943183  0.30932312  1
  Zn  Zn120  1  0.84531953  0.33264113  0.80407062  1
  Zn  Zn121  1  0.81072282  0.80680576  0.31587770  1
  Zn  Zn122  1  0.81296546  0.81525178  0.81076632  1
  Zn  Zn123  1  0.19108697  0.43524694  0.43732703  1
  Zn  Zn124  1  0.19170344  0.43495216  0.94360801  1
  Zn  Zn125  1  0.18751449  0.93313894  0.43482212  1
  Zn  Zn126  1  0.18641989  0.94219278  0.93161360  1
  Zn  Zn127  1  0.70465245  0.43306177  0.43354005  1
  Zn  Zn128  1  0.71530026  0.42285672  0.92244101  1
  Zn  Zn129  1  0.68319868  0.93682850  0.43979847  1
  Zn  Zn130  1  0.68636685  0.93759494  0.93579628  1
  Zn  Zn131  1  0.30831661  0.06687395  0.06406758  1
  Zn  Zn132  1  0.31973545  0.06473507  0.55927205  1
  Zn  Zn133  1  0.31514174  0.55846789  0.06027533  1
  Zn  Zn134  1  0.31357797  0.56215539  0.56092319  1
  Zn  Zn135  1  0.81117084  0.06583511  0.06625139  1
  Zn  Zn136  1  0.81486753  0.06171461  0.56446109  1
  Zn  Zn137  1  0.81663734  0.56499452  0.06006039  1
  Zn  Zn138  1  0.85478682  0.54278230  0.57548762  1
  Zn  Zn139  1  0.44156219  0.43605370  0.18430825  1
  Zn  Zn140  1  0.43769025  0.43499304  0.68633712  1
  Zn  Zn141  1  0.43367458  0.93737136  0.19034090  1
  Zn  Zn142  1  0.43423649  0.93828359  0.68822912  1
  Zn  Zn143  1  0.93792789  0.43345766  0.18475687  1
  Zn  Zn144  1  0.94999205  0.43902481  0.68171378  1
  Zn  Zn145  1  0.93751472  0.93929376  0.18599958  1
  Zn  Zn146  1  0.93944794  0.95099425  0.69134500  1
  Zn  Zn147  1  0.06330368  0.06283346  0.31607504  1
  Zn  Zn148  1  0.06200110  0.17904813  0.81083846  1
  Zn  Zn149  1  0.06318878  0.55791160  0.31854144  1
  Zn  Zn150  1  0.06419969  0.56652159  0.81085447  1
  Zn  Zn151  1  0.55981440  0.06104782  0.31810152  1
  Zn  Zn152  1  0.56091835  0.06291769  0.81190420  1
  Zn  Zn153  1  0.56633744  0.55791984  0.28673590  1
  Zn  Zn154  1  0.56733550  0.56120479  0.81395043  1
  Zn  Zn155  1  0.44276117  0.18745627  0.43764234  1
  Zn  Zn156  1  0.43013966  0.19055180  0.93736949  1
  Zn  Zn157  1  0.43251824  0.69256279  0.43268068  1
  Zn  Zn158  1  0.43799115  0.68462679  0.93684697  1
  Zn  Zn159  1  0.93935212  0.18646158  0.44002778  1
  Zn  Zn160  1  0.93138322  0.18889192  0.94361295  1
  Zn  Zn161  1  0.94160752  0.67641241  0.43368441  1
  Zn  Zn162  1  0.93500017  0.68240588  0.93694361  1
  Zn  Zn163  1  0.06106388  0.31646339  0.07121800  1
  Zn  Zn164  1  0.06132402  0.30154901  0.56437515  1
  Zn  Zn165  1  0.04698830  0.80033144  0.03054906  1
  Zn  Zn166  1  0.08527796  0.81068537  0.56626538  1
  Zn  Zn167  1  0.54372303  0.30525376  0.05981405  1
  Zn  Zn168  1  0.56679781  0.31275807  0.56552142  1
  Zn  Zn169  1  0.56185557  0.81145639  0.06302062  1
  Zn  Zn170  1  0.56459533  0.81306522  0.55992569  1
  O  O171  1  0.11932420  0.11539111  0.12013353  1
  O  O172  1  0.11631849  0.12441515  0.61563910  1
  O  O173  1  0.11882572  0.61629905  0.12693758  1
  O  O174  1  0.13510621  0.63104601  0.61272826  1
  O  O175  1  0.61211033  0.11460958  0.12528119  1
  O  O176  1  0.62425993  0.12248889  0.62354895  1
  O  O177  1  0.61008946  0.63291576  0.12043993  1
  O  O178  1  0.61949773  0.61651785  0.62582739  1
  O  O179  1  0.37544588  0.37722026  0.39156668  1
  O  O180  1  0.37468320  0.39539262  0.86748678  1
  O  O181  1  0.38753716  0.87388211  0.36915728  1
  O  O182  1  0.38266756  0.87646652  0.88195969  1
  O  O183  1  0.86955415  0.36607897  0.38493843  1
  O  O184  1  0.83345397  0.39459130  0.89942652  1
  O  O185  1  0.88589251  0.87972276  0.36747822  1
  O  O186  1  0.86482288  0.89108631  0.88138771  1
  O  O187  1  0.24952631  -0.00697530  0.35953254  1
  O  O188  1  0.25388983  0.00863781  0.86404601  1
  O  O189  1  0.25310315  0.50643701  0.36790092  1
  O  O190  1  0.26124771  0.51153386  0.86734793  1
  O  O191  1  0.75644145  0.00061486  0.37072899  1
  O  O192  1  0.75190821  0.00953499  0.86960421  1
  O  O193  1  0.75164561  0.50681932  0.36002032  1
  O  O194  1  0.73579923  0.51555666  0.85920164  1
  O  O195  1  0.24076664  0.50836322  0.13409042  1
  O  O196  1  0.25696831  0.48774953  0.62952813  1
  O  O197  1  0.24045936  0.99921117  0.13363367  1
  O  O198  1  0.26390760  0.98918006  0.62991640  1
  O  O199  1  0.75104067  0.51161806  0.13623691  1
  O  O200  1  0.74288340  0.49321379  0.62724371  1
  O  O201  1  0.74319411  0.99494729  0.13341778  1
  O  O202  1  0.75549749  0.99211847  0.63627267  1
  O  O203  1  0.00911229  0.36433008  0.25090720  1
  O  O204  1  -0.05207846  0.39182071  0.78109756  1
  O  O205  1  0.00516017  0.87017629  0.25478560  1
  O  O206  1  0.01561439  0.88527734  0.74563452  1
  O  O207  1  0.51359476  0.36763173  0.24824845  1
  O  O208  1  0.50214283  0.36219479  0.75300163  1
  O  O209  1  0.50569196  0.87448009  0.26019125  1
  O  O210  1  0.50776944  0.87145929  0.75300979  1
  O  O211  1  0.49188543  0.12863981  0.24669166  1
  O  O212  1  0.49280032  0.13354727  0.75055265  1
  O  O213  1  0.49668467  0.62855869  0.23627779  1
  O  O214  1  0.49564263  0.62970556  0.74503423  1
  O  O215  1  0.99566128  0.12878952  0.24595849  1
  O  O216  1  0.99217280  0.11693789  0.73824937  1
  O  O217  1  0.99618024  0.62709573  0.24093150  1
  O  O218  1  0.98548709  0.62386755  0.75206570  1
  O  O219  1  0.38949997  0.26203975  0.01164878  1
  O  O220  1  0.37148394  0.25444162  0.50464861  1
  O  O221  1  0.36816410  0.75507971  0.00385883  1
  O  O222  1  0.36472500  0.74609619  0.50806238  1
  O  O223  1  0.85227556  0.24432124  0.00601256  1
  O  O224  1  0.87216212  0.25820642  0.49944223  1
  O  O225  1  0.86145087  0.75470673  0.00702531  1
  O  O226  1  0.86899793  0.75303781  0.49428954  1
  O  O227  1  0.13336618  0.24238310  0.49191409  1
  O  O228  1  0.11776091  0.23928276  1.00757756  1
  O  O229  1  0.14046108  0.74209721  0.49247058  1
  O  O230  1  0.14669028  0.74549938  1.01127325  1
  O  O231  1  0.61849030  0.24529078  0.48665403  1
  O  O232  1  0.62521611  0.23989898  0.99618500  1
  O  O233  1  0.63922543  0.74975530  0.49764662  1
  O  O234  1  0.63641632  0.75347072  0.99390003  1
  O  O235  1  0.50531234  0.23651154  0.14196707  1
  O  O236  1  0.49481785  0.24942113  0.63323556  1
  O  O237  1  0.48907877  0.74387263  0.12127282  1
  O  O238  1  0.49545485  0.74517805  0.62771111  1
  O  O239  1  1.00370347  0.23766746  0.13897685  1
  O  O240  1  0.99375652  0.23039678  0.62241165  1
  O  O241  1  0.99666718  0.74172062  0.12688362  1
  O  O242  1  0.98685769  0.76461265  0.60949391  1
  O  O243  1  0.00975304  0.24231062  0.36359667  1
  O  O244  1  -0.00745831  0.24448248  0.87220737  1
  O  O245  1  0.00423523  0.75418687  0.36560946  1
  O  O246  1  0.00930123  0.76226431  0.92537000  1
  O  O247  1  0.51496029  0.24390240  0.36433162  1
  O  O248  1  0.50651778  0.24995232  0.86919834  1
  O  O249  1  0.50272968  0.76101557  0.37410174  1
  O  O250  1  0.50628903  0.75551547  0.86929767  1
  O  O251  1  0.24285667  0.13528096  0.50855497  1
  O  O252  1  0.23996606  0.11944818  0.98950662  1
  O  O253  1  0.24596646  0.63143518  0.49295298  1
  O  O254  1  0.25316003  0.63042883  0.98865482  1
  O  O255  1  0.74893077  0.11608028  0.48666531  1
  O  O256  1  0.73788458  0.12392058  0.99547149  1
  O  O257  1  0.75762793  0.63118341  0.48647772  1
  O  O258  1  0.74873441  0.63321062  0.99308677  1
  O  O259  1  0.26473414  0.38129977  0.00903399  1
  O  O260  1  0.25948821  0.36897180  0.50850238  1
  O  O261  1  0.25666525  0.86899192  -0.00106502  1
  O  O262  1  0.24494841  0.86642678  0.50867729  1
  O  O263  1  0.73416952  0.35361464  0.01457129  1
  O  O264  1  0.74860489  0.36549613  0.51413736  1
  O  O265  1  0.75379291  0.87028377  0.00659918  1
  O  O266  1  0.74685192  0.86981778  0.51088240  1
  O  O267  1  0.13178407  0.49247203  0.24746590  1
  O  O268  1  0.13902857  0.50938218  0.74628809  1
  O  O269  1  0.12920221  0.99718162  0.24332296  1
  O  O270  1  0.14155086  0.98973575  0.74597102  1
  O  O271  1  0.63272376  0.47986381  0.24495497  1
  O  O272  1  0.63407051  0.49870978  0.74032752  1
  O  O273  1  0.62807482  0.98855296  0.24863827  1
  O  O274  1  0.63459693  0.99049402  0.75771299  1
  O  O275  1  0.36493468  0.00776944  0.25186407  1
  O  O276  1  0.37215615  0.01424955  0.74924068  1
  O  O277  1  0.37123235  0.49962391  0.25470918  1
  O  O278  1  0.37410697  0.51003473  0.75471091  1
  O  O279  1  0.87083753  0.00363864  0.25980154  1
  O  O280  1  0.86465989  0.00884001  0.75975964  1
  O  O281  1  0.86905313  0.50301593  0.25014634  1
  O  O282  1  0.85978352  0.52150867  0.74779936  1
  O  O283  1  0.12980147  0.36278265  0.36613461  1
  O  O284  1  0.13260771  0.38446622  0.86564521  1
  O  O285  1  0.11281798  0.86758262  0.36971827  1
  O  O286  1  0.13227464  0.87389919  0.85632060  1
  O  O287  1  0.63250953  0.36043670  0.37344285  1
  O  O288  1  0.62847805  0.35903921  0.87225678  1
  O  O289  1  0.61528412  0.87311189  0.36787359  1
  O  O290  1  0.62230827  0.86797569  0.86494450  1
  O  O291  1  0.38456918  0.11825772  0.13544270  1
  O  O292  1  0.37826921  0.13769406  0.63096608  1
  O  O293  1  0.38510119  0.63173960  0.12146087  1
  O  O294  1  0.38266104  0.63184908  0.63011824  1
  O  O295  1  0.88389356  0.12617945  0.13491421  1
  O  O296  1  0.87919430  0.12607437  0.63445940  1
  O  O297  1  0.88344029  0.63162624  0.13110528  1
  O  O298  1  0.86646898  0.63860826  0.63597167  1
  O  O299  1  0.25474146  0.24836616  0.11330956  1
  O  O300  1  0.25955375  0.26074471  0.61507708  1
  O  O301  1  0.26305609  0.74904017  0.11831719  1
  O  O302  1  0.25978105  0.75842392  0.61790741  1
  O  O303  1  0.74462872  0.23219510  0.11602715  1
  O  O304  1  0.75074022  0.26480643  0.63474348  1
  O  O305  1  0.75205300  0.75408727  0.11886857  1
  O  O306  1  0.75024492  0.76070038  0.61512805  1
  O  O307  1  0.24552391  0.25331326  0.38682299  1
  O  O308  1  0.25726458  0.23736532  0.87108637  1
  O  O309  1  0.24912819  0.74534182  0.38056680  1
  O  O310  1  0.25676146  0.73971106  0.88061788  1
  O  O311  1  0.73440067  0.23835388  0.36839529  1
  O  O312  1  0.74037818  0.23517218  0.88948861  1
  O  O313  1  0.74478654  0.73962367  0.38136621  1
  O  O314  1  0.74562400  0.74670809  0.88265185  1
  O  O315  1  0.00427722  0.12009473  0.01122206  1
  O  O316  1  0.01176856  0.12307925  0.50615433  1
  O  O317  1  0.00322230  0.61583035  0.01539045  1
  O  O318  1  0.02481982  0.63433594  0.49792258  1
  O  O319  1  0.50088763  0.11951042  0.00957955  1
  O  O320  1  0.50092796  0.11207451  0.50260667  1
  O  O321  1  0.50474664  0.61582129  0.00187998  1
  O  O322  1  0.50397058  0.62642124  0.50143277  1
  O  O323  1  0.48704203  0.37075452  0.50495817  1
  O  O324  1  0.50187669  0.38876349  0.99429469  1
  O  O325  1  0.50341571  0.88140551  0.48777643  1
  O  O326  1  0.49490082  0.87948461  0.99478308  1
  O  O327  1  0.98792390  0.36834094  0.50103100  1
  O  O328  1  1.00369884  0.38749706  0.99844659  1
  O  O329  1  0.99545174  0.87037162  0.49593165  1
  O  O330  1  0.98487809  0.89594546  1.01815719  1
  O  O331  1  0.50926557  0.51214041  0.38232735  1
  O  O332  1  0.49211191  0.50049962  0.88129604  1
  O  O333  1  0.49457774  0.98741643  0.37984992  1
  O  O334  1  0.49782812  0.99337039  0.88207068  1
  O  O335  1  0.99512164  0.50800316  0.38860813  1
  O  O336  1  1.00425618  0.51136227  0.89454606  1
  O  O337  1  0.99351731  0.98904061  0.37728817  1
  O  O338  1  0.98721312  1.00622881  0.88959279  1
  O  O339  1  0.00579937  0.01231442  0.12327836  1
  O  O340  1  -0.00666928  0.01777282  0.61691690  1
  O  O341  1  0.01255379  0.50510804  0.12164360  1
  O  O342  1  -0.03347350  0.50898477  0.60144601  1
  O  O343  1  0.50312159  0.00385131  0.12205313  1
  O  O344  1  0.49655933  -0.00355503  0.61184206  1
  O  O345  1  0.49511995  0.50714268  0.10709622  1
  O  O346  1  0.51589094  0.50272585  0.62864454  1
  O  O347  1  0.24362592  0.38724579  0.25668474  1
  O  O348  1  0.25437287  0.38413691  0.73045654  1
  O  O349  1  0.24106404  0.88142180  0.24361667  1
  O  O350  1  0.25517844  0.88423555  0.74189969  1
  O  O351  1  0.73770670  0.37846870  0.24535554  1
  O  O352  1  0.75538575  0.38859361  0.73935738  1
  O  O353  1  0.74203135  0.87760433  0.24793217  1
  O  O354  1  0.74384478  0.88142965  0.74092438  1
  O  O355  1  0.25868624  0.11812449  0.24509269  1
  O  O356  1  0.25724649  0.11856463  0.75323908  1
  O  O357  1  0.25323790  0.61333414  0.25725613  1
  O  O358  1  0.25976785  0.62151953  0.75286555  1
  O  O359  1  0.75402476  0.11536674  0.26055117  1
  O  O360  1  0.75312354  0.11792706  0.75955841  1
  O  O361  1  0.75310929  0.61896405  0.25807969  1
  O  O362  1  0.75258380  0.62488476  0.75637442  1
  O  O363  1  0.37774465  0.12172762  0.36481956  1
  O  O364  1  0.36901068  0.12376452  0.86646280  1
  O  O365  1  0.36440908  0.62140383  0.37369231  1
  O  O366  1  0.37118587  0.62133106  0.86358472  1
  O  O367  1  0.86902043  0.11617204  0.37145410  1
  O  O368  1  0.86397257  0.11542991  0.87296756  1
  O  O369  1  0.86737992  0.62335077  0.36508738  1
  O  O370  1  0.86315442  0.61842996  0.87665626  1
  O  O371  1  0.12302223  0.38423193  0.14184236  1
  O  O372  1  0.13870591  0.37237898  0.61410473  1
  O  O373  1  0.12224747  0.88934782  0.12714547  1
  O  O374  1  0.14154846  0.87586055  0.63759844  1
  O  O375  1  0.61939982  0.36439333  0.13181151  1
  O  O376  1  0.63583882  0.38138656  0.62793926  1
  O  O377  1  0.62809868  0.87904454  0.13359149  1
  O  O378  1  0.63263570  0.87227275  0.63544784  1
  O  O379  1  0.12214697  0.25475627  0.25645276  1
  O  O380  1  0.12831332  0.24571602  0.74777751  1
  O  O381  1  0.12169691  0.75540577  0.25211889  1
  O  O382  1  0.12651333  0.76733265  0.74950689  1
  O  O383  1  0.61966813  0.25919324  0.25735418  1
  O  O384  1  0.61724656  0.24921017  0.76069835  1
  O  O385  1  0.62237771  0.76140011  0.25214287  1
  O  O386  1  0.62100348  0.75799409  0.75391851  1
  O  O387  1  0.38515565  0.24299069  0.25930352  1
  O  O388  1  0.38370477  0.23953958  0.74025582  1
  O  O389  1  0.37665387  0.74645584  0.23805737  1
  O  O390  1  0.38130121  0.73988544  0.74285661  1
  O  O391  1  0.88265187  0.24107221  0.25306726  1
  O  O392  1  0.86530223  0.23404840  0.75153112  1
  O  O393  1  0.88104211  0.74298079  0.24407722  1
  O  O394  1  0.87427491  0.73734881  0.76034857  1
  O  O395  1  0.37671437  0.48693850  0.49939695  1
  O  O396  1  0.38510856  0.50752111  0.98332098  1
  O  O397  1  0.38981977  1.00082931  0.49522073  1
  O  O398  1  0.37938275  0.99317839  1.00137529  1
  O  O399  1  0.85457005  0.47119268  0.48687642  1
  O  O400  1  0.89603400  0.50114324  1.00834854  1
  O  O401  1  0.87726379  0.99959030  0.48661224  1
  O  O402  1  0.87716116  1.00015995  0.99473029  1
  O  O403  1  0.11658719  0.00436948  0.00587238  1
  O  O404  1  0.12541240  0.01209765  0.49043391  1
  O  O405  1  0.11913185  0.50259121  0.01140335  1
  O  O406  1  0.13209200  0.51482366  0.49871083  1
  O  O407  1  0.61694552  0.00231687  0.00651851  1
  O  O408  1  0.60520137  0.00231838  0.49032077  1
  O  O409  1  0.61246441  0.49935761  -0.01102413  1
  O  O410  1  0.62804025  0.49840489  0.50176820  1
  O  O411  1  0.36900222  0.36674036  0.13545464  1
  O  O412  1  0.37194305  0.36569561  0.61626105  1
  O  O413  1  0.37482756  0.86656303  0.11642061  1
  O  O414  1  0.37178081  0.86037748  0.63008415  1
  O  O415  1  0.88178416  0.36445763  0.11900431  1
  O  O416  1  0.86369947  0.36908910  0.61290429  1
  O  O417  1  0.86577517  0.86979569  0.12296171  1
  O  O418  1  0.86991215  0.87816896  0.62290980  1
  O  O419  1  0.12572563  0.13634763  0.38116966  1
  O  O420  1  0.13404111  0.12443618  0.88661913  1
  O  O421  1  0.13957899  0.63214439  0.37489970  1
  O  O422  1  0.13574705  0.63340039  0.87509494  1
  O  O423  1  0.63216570  0.13181518  0.37427797  1
  O  O424  1  0.62842906  0.13111587  0.88084920  1
  O  O425  1  0.62639275  0.61822945  0.37921279  1
  O  O426  1  0.63343161  0.63724192  0.87580934  1
