# generated using pymatgen
data_V85Zn86O256
_symmetry_space_group_name_H-M   'P 1'
_cell_length_a   16.94610172
_cell_length_b   16.93573939
_cell_length_c   16.96957193
_cell_angle_alpha   89.98550515
_cell_angle_beta   90.03314013
_cell_angle_gamma   89.99767678
_symmetry_Int_Tables_number   1
_chemical_formula_structural   V85Zn86O256
_chemical_formula_sum   'V85 Zn86 O256'
_cell_volume   4870.17729034
_cell_formula_units_Z   1
loop_
 _symmetry_equiv_pos_site_id
 _symmetry_equiv_pos_as_xyz
  1  'x, y, z'
loop_
 _atom_site_type_symbol
 _atom_site_label
 _atom_site_symmetry_multiplicity
 _atom_site_fract_x
 _atom_site_fract_y
 _atom_site_fract_z
 _atom_site_occupancy
  V  V0  1  0.74990979  0.62488844  0.87468044  1
  V  V1  1  0.75228217  0.49931791  0.24806945  1
  V  V2  1  0.74628705  0.88864313  0.12711575  1
  V  V3  1  0.37329665  0.61744132  0.24933448  1
  V  V4  1  -0.00612664  0.49568332  0.00106966  1
  V  V5  1  0.87803192  -0.00249151  0.38739032  1
  V  V6  1  0.12071609  0.75045590  0.87430750  1
  V  V7  1  0.13906440  0.49509663  0.12449358  1
  V  V8  1  -0.00553592  0.74863057  0.73697328  1
  V  V9  1  0.62166291  0.61571072  0.50987190  1
  V  V10  1  0.74892074  0.62394071  0.37813363  1
  V  V11  1  0.12616435  0.74667755  0.37997135  1
  V  V12  1  0.87508959  0.62457618  0.25009312  1
  V  V13  1  0.12032353  0.60964582  0.50476116  1
  V  V14  1  0.25104963  0.12107652  0.37656022  1
  V  V15  1  0.74697546  0.75368080  -0.00092180  1
  V  V16  1  0.50387427  0.38280425  0.37818059  1
  V  V17  1  0.75600018  0.37503302  0.11467198  1
  V  V18  1  0.50351997  0.24653985  0.75437232  1
  V  V19  1  0.12743687  -0.00887717  0.62035700  1
  V  V20  1  0.87578486  0.11782033  0.24392220  1
  V  V21  1  0.25050732  0.61796512  0.37141081  1
  V  V22  1  0.24858519  0.00828555  0.75017441  1
  V  V23  1  0.00059980  0.12345683  0.62041339  1
  V  V24  1  0.13137841  0.87445014  0.74750591  1
  V  V25  1  0.25026483  0.75142347  -0.00148993  1
  V  V26  1  0.62383882  0.75363993  0.37925568  1
  V  V27  1  0.25276691  0.24575725  -0.00292670  1
  V  V28  1  0.48835029  0.61583439  0.62551030  1
  V  V29  1  0.12378161  0.62245288  -0.00132963  1
  V  V30  1  0.13782489  0.37634206  0.24577726  1
  V  V31  1  -0.00162211  0.00169266  -0.00004581  1
  V  V32  1  0.37598143  0.24739285  0.62424821  1
  V  V33  1  0.37664780  0.75146171  0.12461215  1
  V  V34  1  0.62941602  0.87017590  0.74521194  1
  V  V35  1  0.74537107  0.24432745  0.49958339  1
  V  V36  1  0.12271903  0.12735024  0.00192968  1
  V  V37  1  0.50198065  0.75496523  0.25528331  1
  V  V38  1  0.50310976  -0.00507633  0.49523702  1
  V  V39  1  0.00074503  0.74995782  0.24953831  1
  V  V40  1  0.24889051  0.50596265  0.74327895  1
  V  V41  1  0.25020812  0.74972414  0.51059115  1
  V  V42  1  0.13141539  0.24678131  0.87223563  1
  V  V43  1  0.25222936  0.24707021  0.49918327  1
  V  V44  1  0.50133662  0.25010144  0.24882176  1
  V  V45  1  0.87664098  0.25019114  0.11495328  1
  V  V46  1  0.24824862  -0.00243746  0.25063084  1
  V  V47  1  -0.00675080  0.37150493  0.87807965  1
  V  V48  1  0.37574698  -0.01575602  0.37595042  1
  V  V49  1  0.50286167  0.87809296  0.87390337  1
  V  V50  1  0.12604214  0.37708508  0.74045803  1
  V  V51  1  0.37443340  0.50733737  0.87182427  1
  V  V52  1  0.74800122  0.50047800  0.74720347  1
  V  V53  1  0.12435115  0.24807444  0.37414941  1
  V  V54  1  0.37041944  0.25294022  0.12720700  1
  V  V55  1  0.50479550  0.12200993  0.62071582  1
  V  V56  1  0.37350933  0.86853003  0.51747746  1
  V  V57  1  0.62454877  0.49815153  0.12306391  1
  V  V58  1  0.37875988  0.88114899  -0.00143359  1
  V  V59  1  0.00139879  0.38007607  0.37574514  1
  V  V60  1  0.76175441  0.75503248  0.50776307  1
  V  V61  1  0.62818138  -0.00351614  0.62035969  1
  V  V62  1  0.00041274  0.24740821  0.74634889  1
  V  V63  1  0.50254502  0.37302164  0.87767836  1
  V  V64  1  0.87357388  0.75098232  0.12434884  1
  V  V65  1  -0.00185389  0.87720451  0.38542274  1
  V  V66  1  0.12465011  0.87300600  0.25008086  1
  V  V67  1  0.75059006  0.12015941  0.37115667  1
  V  V68  1  0.48439887  0.74829555  0.74071511  1
  V  V69  1  0.87770797  0.38118836  0.49965717  1
  V  V70  1  0.37424361  0.12287214  0.25204465  1
  V  V71  1  0.74112484  0.12871460  0.87318174  1
  V  V72  1  0.62783280  0.88494176  0.25161622  1
  V  V73  1  0.12097934  0.00478232  0.12660854  1
  V  V74  1  -0.00127447  0.24772473  0.24408131  1
  V  V75  1  0.74159988  0.37712267  0.62261871  1
  V  V76  1  0.37155986  0.00613035  0.87600580  1
  V  V77  1  0.50342164  0.62879311  0.12325720  1
  V  V78  1  0.50692400  0.11131659  0.12203125  1
  V  V79  1  0.36918954  0.37770611  0.00273641  1
  V  V80  1  0.62470730  0.24419092  0.37734382  1
  V  V81  1  0.87445356  0.24863757  0.62265226  1
  V  V82  1  0.62221294  0.37715473  0.75033864  1
  V  V83  1  0.12149801  0.12212712  0.49922266  1
  V  V84  1  0.37990497  0.38226905  0.50096090  1
  Zn  Zn85  1  0.73773451  0.25109230  -0.00604064  1
  Zn  Zn86  1  0.00095292  0.62179967  0.12501972  1
  Zn  Zn87  1  -0.00663178  0.60757186  0.62035065  1
  Zn  Zn88  1  0.25479486  0.62825028  0.86897246  1
  Zn  Zn89  1  0.87416974  0.00165048  0.87193665  1
  Zn  Zn90  1  -0.00226147  0.87721962  0.87446354  1
  Zn  Zn91  1  0.75383933  -0.00163254  0.75118439  1
  Zn  Zn92  1  0.87982281  0.50090100  0.37663060  1
  Zn  Zn93  1  0.24876567  0.37666512  0.62155273  1
  Zn  Zn94  1  0.62443793  0.74998693  0.87163478  1
  Zn  Zn95  1  0.87250283  0.12402457  0.75172880  1
  Zn  Zn96  1  0.76825490  0.87518191  0.62517060  1
  Zn  Zn97  1  0.37235509  0.12764074  0.75523570  1
  Zn  Zn98  1  0.25001393  0.87563855  0.12451093  1
  Zn  Zn99  1  0.49906328  0.50195838  -0.00166376  1
  Zn  Zn100  1  0.62073673  0.11613636  0.00000219  1
  Zn  Zn101  1  0.62860901  0.37317319  0.24866924  1
  Zn  Zn102  1  0.87096946  0.49541921  0.87894892  1
  Zn  Zn103  1  0.37868854  0.50080074  0.37486334  1
  Zn  Zn104  1  0.87173633  0.62868309  0.74345949  1
  Zn  Zn105  1  0.87624154  0.87700834  -0.00116920  1
  Zn  Zn106  1  0.62398517  0.62700354  -0.00219416  1
  Zn  Zn107  1  0.18860498  0.18798351  0.18597041  1
  Zn  Zn108  1  0.18774527  0.18652009  0.68526921  1
  Zn  Zn109  1  0.18895670  0.68561114  0.18500726  1
  Zn  Zn110  1  0.18212815  0.68527388  0.68449898  1
  Zn  Zn111  1  0.68892223  0.18792469  0.18633132  1
  Zn  Zn112  1  0.68397522  0.18612678  0.68921877  1
  Zn  Zn113  1  0.68746158  0.69104869  0.18839486  1
  Zn  Zn114  1  0.68564574  0.68781817  0.68517810  1
  Zn  Zn115  1  0.31585092  0.31182301  0.31638653  1
  Zn  Zn116  1  0.31448416  0.31664760  0.81280285  1
  Zn  Zn117  1  0.31014811  0.80594305  0.31369257  1
  Zn  Zn118  1  0.30936172  0.81756458  0.81225653  1
  Zn  Zn119  1  0.81412050  0.31178896  0.30864377  1
  Zn  Zn120  1  0.81197478  0.30763422  0.81206266  1
  Zn  Zn121  1  0.81067570  0.81425714  0.31349247  1
  Zn  Zn122  1  0.81474030  0.81813966  0.81498780  1
  Zn  Zn123  1  0.19497826  0.43395602  0.43004956  1
  Zn  Zn124  1  0.18663949  0.43484056  0.93233950  1
  Zn  Zn125  1  0.18754760  0.93324061  0.44105439  1
  Zn  Zn126  1  0.18778939  0.93800694  0.93539058  1
  Zn  Zn127  1  0.68783306  0.43657828  0.43673725  1
  Zn  Zn128  1  0.68313826  0.43877546  0.93722638  1
  Zn  Zn129  1  0.69046526  0.93672936  0.43523104  1
  Zn  Zn130  1  0.68211683  0.95053810  0.94009311  1
  Zn  Zn131  1  0.31148992  0.06461594  0.06446541  1
  Zn  Zn132  1  0.31362842  0.05859306  0.56509944  1
  Zn  Zn133  1  0.31454326  0.56602154  0.05898707  1
  Zn  Zn134  1  0.30937577  0.56332724  0.56146957  1
  Zn  Zn135  1  0.81070667  0.06854566  0.05870380  1
  Zn  Zn136  1  0.81326919  0.06230848  0.56126241  1
  Zn  Zn137  1  0.81261886  0.56578485  0.06091034  1
  Zn  Zn138  1  0.81314801  0.56323540  0.56702021  1
  Zn  Zn139  1  0.43945982  0.43601942  0.18617147  1
  Zn  Zn140  1  0.43383867  0.43788866  0.68884092  1
  Zn  Zn141  1  0.43617233  0.93257288  0.19187299  1
  Zn  Zn142  1  0.43845694  0.93851912  0.69048852  1
  Zn  Zn143  1  0.94181015  0.43504734  0.18596954  1
  Zn  Zn144  1  0.92995187  0.43547798  0.69149052  1
  Zn  Zn145  1  0.93852837  0.93701590  0.18806439  1
  Zn  Zn146  1  0.94186923  0.94161086  0.69156975  1
  Zn  Zn147  1  0.05755945  0.06221958  0.31178648  1
  Zn  Zn148  1  0.06466740  0.06451997  0.81453134  1
  Zn  Zn149  1  0.06546743  0.55985233  0.30772698  1
  Zn  Zn150  1  0.06256523  0.56103396  0.81213857  1
  Zn  Zn151  1  0.55959992  0.06482194  0.31570540  1
  Zn  Zn152  1  0.56383126  0.05756488  0.80985400  1
  Zn  Zn153  1  0.56600177  0.56601665  0.30965945  1
  Zn  Zn154  1  0.56252996  0.56395492  0.80836826  1
  Zn  Zn155  1  0.43905734  0.18320797  0.43824383  1
  Zn  Zn156  1  0.44200188  0.18791942  0.94069567  1
  Zn  Zn157  1  0.43885637  0.68837508  0.44065722  1
  Zn  Zn158  1  0.43968599  0.69253788  0.93442832  1
  Zn  Zn159  1  0.93691339  0.19050928  0.43649852  1
  Zn  Zn160  1  0.93670906  0.18287020  0.93481056  1
  Zn  Zn161  1  0.94082578  0.68228882  0.43378520  1
  Zn  Zn162  1  0.93475314  0.68528982  0.93513127  1
  Zn  Zn163  1  0.06341750  0.31387900  0.06370994  1
  Zn  Zn164  1  0.06041033  0.43392610  0.56215030  1
  Zn  Zn165  1  0.06214014  0.81515904  0.06340877  1
  Zn  Zn166  1  -0.05868730  0.81116087  0.56290787  1
  Zn  Zn167  1  0.56275742  0.30729705  0.05987558  1
  Zn  Zn168  1  0.56262321  0.31114053  0.56194664  1
  Zn  Zn169  1  0.56592426  0.82327243  0.06106065  1
  Zn  Zn170  1  0.56130754  0.81019539  0.56166702  1
  O  O171  1  0.12913340  0.11691808  0.11621303  1
  O  O172  1  0.12033917  0.12156448  0.61546174  1
  O  O173  1  0.12400214  0.61977033  0.11289285  1
  O  O174  1  0.12246134  0.62229848  0.60604586  1
  O  O175  1  0.60810387  0.12285405  0.13787284  1
  O  O176  1  0.61232688  0.11591418  0.62756850  1
  O  O177  1  0.61836298  0.61962877  0.12497190  1
  O  O178  1  0.61837960  0.62631561  0.61331158  1
  O  O179  1  0.38565494  0.37546178  0.38248881  1
  O  O180  1  0.38412182  0.38430991  0.88170493  1
  O  O181  1  0.37251544  0.88238627  0.37682905  1
  O  O182  1  0.38051334  0.88182103  0.88125929  1
  O  O183  1  0.88285940  0.37357038  0.38177611  1
  O  O184  1  0.88927255  0.37200375  0.87131054  1
  O  O185  1  0.88117325  0.88935304  0.36751378  1
  O  O186  1  0.87973076  0.88233379  0.88202851  1
  O  O187  1  0.25611620  0.00257977  0.37103757  1
  O  O188  1  0.25947295  -0.00506451  0.86513576  1
  O  O189  1  0.25556497  0.51337875  0.37366818  1
  O  O190  1  0.25795652  0.50097792  0.86759341  1
  O  O191  1  0.76295439  0.00768718  0.37837958  1
  O  O192  1  0.75203624  0.01109979  0.87215827  1
  O  O193  1  0.74897864  0.51062841  0.36808901  1
  O  O194  1  0.74918598  0.50679919  0.87036853  1
  O  O195  1  0.23840140  0.50417990  0.11772830  1
  O  O196  1  0.25430842  0.49637457  0.63929730  1
  O  O197  1  0.24018955  0.99812065  0.13187726  1
  O  O198  1  0.23923972  1.00466309  0.63466181  1
  O  O199  1  0.74522412  0.49515878  0.12712739  1
  O  O200  1  0.74975581  0.48794989  0.63348356  1
  O  O201  1  0.75847339  0.98648631  0.12453524  1
  O  O202  1  0.73643680  0.99956196  0.61861128  1
  O  O203  1  0.00682545  0.36396805  0.25664446  1
  O  O204  1  0.00711388  0.36299714  0.75664586  1
  O  O205  1  0.00713715  0.86781001  0.25598736  1
  O  O206  1  0.01320593  0.86277056  0.75267775  1
  O  O207  1  0.50036730  0.36306981  0.25757887  1
  O  O208  1  0.50478804  0.36952264  0.75527967  1
  O  O209  1  0.50948257  0.86143828  0.24475284  1
  O  O210  1  0.50480846  0.86412254  0.75206820  1
  O  O211  1  0.49250578  0.13499616  0.24841841  1
  O  O212  1  0.49788633  0.13192474  0.74343812  1
  O  O213  1  0.49666477  0.63444308  0.24001153  1
  O  O214  1  0.50477037  0.63829349  0.73838951  1
  O  O215  1  0.99237589  0.13930561  0.25497340  1
  O  O216  1  1.00423833  0.13666003  0.74507208  1
  O  O217  1  0.99350802  0.63141970  0.24834512  1
  O  O218  1  1.00463440  0.64027927  0.75183634  1
  O  O219  1  0.36922659  0.25461001  0.00640206  1
  O  O220  1  0.37198549  0.25368735  0.50633674  1
  O  O221  1  0.36742708  0.75827402  0.00170489  1
  O  O222  1  0.36795960  0.76186066  0.49592888  1
  O  O223  1  0.87491413  0.24397860  0.01333323  1
  O  O224  1  0.86531061  0.25961987  0.50262192  1
  O  O225  1  0.86615518  0.75026760  0.00822677  1
  O  O226  1  0.86604952  0.74579054  0.49556339  1
  O  O227  1  0.13761998  0.23452395  0.49008647  1
  O  O228  1  0.13267637  0.24589834  0.99559284  1
  O  O229  1  0.13315470  0.73708432  0.48452483  1
  O  O230  1  0.13041568  0.74462229  0.99506637  1
  O  O231  1  0.63556649  0.25174677  0.49186724  1
  O  O232  1  0.62567063  0.23223784  1.01001640  1
  O  O233  1  0.63238440  0.74234484  0.49355453  1
  O  O234  1  0.63703802  0.75104373  0.99922847  1
  O  O235  1  0.48903725  0.24499786  0.13552541  1
  O  O236  1  0.49321805  0.24136613  0.62842580  1
  O  O237  1  0.49740557  0.74552798  0.13040798  1
  O  O238  1  0.50023825  0.74370839  0.63645463  1
  O  O239  1  0.99127792  0.25654336  0.13371381  1
  O  O240  1  0.99594108  0.23855652  0.63475886  1
  O  O241  1  0.99125249  0.74926604  0.13054554  1
  O  O242  1  1.00521104  0.74549228  0.63654914  1
  O  O243  1  0.00617311  0.25814466  0.36823526  1
  O  O244  1  0.00723720  0.25357752  0.86855500  1
  O  O245  1  0.00755914  0.75391139  0.36759868  1
  O  O246  1  0.01239966  0.74938839  0.87344231  1
  O  O247  1  0.50754941  0.25224464  0.36973635  1
  O  O248  1  0.49104764  0.25876386  0.86452344  1
  O  O249  1  0.51055128  0.74362675  0.36635765  1
  O  O250  1  0.50199419  0.75834602  0.86200415  1
  O  O251  1  0.24816602  0.12738317  0.49473965  1
  O  O252  1  0.24196167  0.13782530  1.00272783  1
  O  O253  1  0.24123203  0.62798048  0.49190215  1
  O  O254  1  0.24486250  0.63771574  0.99671745  1
  O  O255  1  0.75699031  0.13558930  0.48638916  1
  O  O256  1  0.74702753  0.12673347  0.98611009  1
  O  O257  1  0.74105758  0.63202690  0.49535407  1
  O  O258  1  0.74849103  0.63394078  0.99208586  1
  O  O259  1  0.26223887  0.36519052  -0.00562180  1
  O  O260  1  0.25906918  0.36455798  0.49943679  1
  O  O261  1  0.25495817  0.86405523  -0.00039017  1
  O  O262  1  0.26257191  0.86436310  0.49541351  1
  O  O263  1  0.74605001  0.37372066  0.01082501  1
  O  O264  1  0.75208918  0.36704789  0.50637130  1
  O  O265  1  0.75195986  0.86989763  0.01207634  1
  O  O266  1  0.74885691  0.85696324  0.49919711  1
  O  O267  1  0.12240641  0.48901008  0.23728242  1
  O  O268  1  0.13890632  0.48914134  0.76031976  1
  O  O269  1  0.12750790  0.99585116  0.24409942  1
  O  O270  1  0.13120696  0.99460851  0.74668366  1
  O  O271  1  0.63304572  0.50069337  0.23860896  1
  O  O272  1  0.63321320  0.48598238  0.75416664  1
  O  O273  1  0.61924487  0.98369000  0.26276018  1
  O  O274  1  0.62442568  0.98654660  0.73743080  1
  O  O275  1  0.36878241  0.00041357  0.25920872  1
  O  O276  1  0.36570192  -0.00018017  0.75693457  1
  O  O277  1  0.38228905  0.51421469  0.24976296  1
  O  O278  1  0.35917563  0.49281043  0.75900443  1
  O  O279  1  0.88325655  0.01460067  0.25397647  1
  O  O280  1  0.87275884  0.00676076  0.75230379  1
  O  O281  1  0.86977327  0.50771478  0.24867378  1
  O  O282  1  0.85684393  0.49565692  0.75754101  1
  O  O283  1  0.11950068  0.36789937  0.36910661  1
  O  O284  1  0.11727870  0.36300485  0.86737808  1
  O  O285  1  0.12027578  0.86638517  0.36938751  1
  O  O286  1  0.12360209  0.86657431  0.86725451  1
  O  O287  1  0.62035596  0.36393974  0.37334348  1
  O  O288  1  0.61043196  0.37743753  0.86900442  1
  O  O289  1  0.63468132  0.86035455  0.36753829  1
  O  O290  1  0.61773667  0.87444888  0.86456978  1
  O  O291  1  0.37998979  0.13176425  0.13406598  1
  O  O292  1  0.38521782  0.13057588  0.62763616  1
  O  O293  1  0.38269495  0.63122915  0.13047758  1
  O  O294  1  0.38932666  0.62519941  0.61536527  1
  O  O295  1  0.86719074  0.13530077  0.13540363  1
  O  O296  1  0.88380615  0.13075671  0.62283387  1
  O  O297  1  0.87526891  0.63649022  0.13084661  1
  O  O298  1  0.88068006  0.62313389  0.63012382  1
  O  O299  1  0.26337686  0.24686102  0.11814723  1
  O  O300  1  0.26321689  0.24873238  0.62008989  1
  O  O301  1  0.25782170  0.75151448  0.11575450  1
  O  O302  1  0.24483773  0.74438819  0.60985105  1
  O  O303  1  0.75841675  0.25994550  0.12664049  1
  O  O304  1  0.75155224  0.25260634  0.61625001  1
  O  O305  1  0.75688181  0.75409661  0.11791597  1
  O  O306  1  0.74897237  0.75016856  0.60986576  1
  O  O307  1  0.24648361  0.24026343  0.37901617  1
  O  O308  1  0.24419939  0.25456416  0.88334969  1
  O  O309  1  0.24342051  0.73846409  0.38047634  1
  O  O310  1  0.23980183  0.74884555  0.87970894  1
  O  O311  1  0.74359588  0.24582876  0.38010624  1
  O  O312  1  0.75149864  0.23606787  0.87552524  1
  O  O313  1  0.74666065  0.73946934  0.38268859  1
  O  O314  1  0.74919334  0.74516841  0.88263842  1
  O  O315  1  0.01539532  0.12027578  -0.00225500  1
  O  O316  1  0.01027994  0.13194376  0.50720921  1
  O  O317  1  0.00854455  0.61728445  -0.00013326  1
  O  O318  1  0.01730645  0.62135316  0.49426061  1
  O  O319  1  0.49453340  0.12580208  0.02001356  1
  O  O320  1  0.49354789  0.10965642  0.50935217  1
  O  O321  1  0.50068266  0.62809342  0.01239741  1
  O  O322  1  0.51169251  0.63056926  0.51217080  1
  O  O323  1  0.49303055  0.36815396  0.49011090  1
  O  O324  1  0.49009082  0.37472848  0.99287465  1
  O  O325  1  0.48442378  0.87953676  0.50359177  1
  O  O326  1  0.48897560  0.86676911  0.98804371  1
  O  O327  1  0.99030727  0.37317329  0.49057256  1
  O  O328  1  1.00810939  0.38335074  0.98978040  1
  O  O329  1  1.00545956  0.86601063  0.48341615  1
  O  O330  1  1.00072797  0.88675398  0.99901939  1
  O  O331  1  0.50352309  0.48615001  0.36766119  1
  O  O332  1  0.49290240  0.49402304  0.87420959  1
  O  O333  1  0.48855179  1.00480142  0.38548357  1
  O  O334  1  0.48964506  0.98411213  0.86306483  1
  O  O335  1  0.99939061  0.48472666  0.36724869  1
  O  O336  1  0.99963258  0.48977779  0.88151857  1
  O  O337  1  0.98898269  0.99150390  0.37177925  1
  O  O338  1  1.00363760  1.00000638  0.88700318  1
  O  O339  1  0.01450575  -0.00431606  0.11967689  1
  O  O340  1  0.01327658  0.01724980  0.63293979  1
  O  O341  1  0.00933337  0.49995318  0.11551872  1
  O  O342  1  0.00503248  0.49468938  0.63651173  1
  O  O343  1  0.49115112  0.01432845  0.13540563  1
  O  O344  1  0.50702496  0.00386267  0.61870028  1
  O  O345  1  0.50845885  0.50902605  0.12512340  1
  O  O346  1  0.49863987  0.51636289  0.63585732  1
  O  O347  1  0.23695405  0.36922323  0.25717848  1
  O  O348  1  0.24186957  0.38154238  0.74826744  1
  O  O349  1  0.24255167  0.87942921  0.25059422  1
  O  O350  1  0.23737527  0.88335613  0.75077260  1
  O  O351  1  0.74954312  0.38434096  0.24224950  1
  O  O352  1  0.74083003  0.37609445  0.74395323  1
  O  O353  1  0.74255523  0.86883278  0.23660077  1
  O  O354  1  0.74246919  0.87518344  0.74392965  1
  O  O355  1  0.25450759  0.11746476  0.25582066  1
  O  O356  1  0.25156780  0.11388368  0.74947976  1
  O  O357  1  0.26233452  0.63329887  0.25726748  1
  O  O358  1  0.24161444  0.61042731  0.75098286  1
  O  O359  1  0.76091256  0.13260433  0.26347179  1
  O  O360  1  0.74904624  0.12382453  0.75856013  1
  O  O361  1  0.75454856  0.62121788  0.25807169  1
  O  O362  1  0.74599656  0.61657930  0.75498419  1
  O  O363  1  0.36913927  0.11567210  0.37013143  1
  O  O364  1  0.38338604  0.10954842  0.87662468  1
  O  O365  1  0.37083708  0.62442060  0.36796771  1
  O  O366  1  0.37544864  0.61171157  0.88099031  1
  O  O367  1  0.87181614  0.11559728  0.36915005  1
  O  O368  1  0.86355263  0.12245912  0.87253751  1
  O  O369  1  0.86663857  0.62101592  0.36966521  1
  O  O370  1  0.86146435  0.62258383  0.86834532  1
  O  O371  1  0.12602460  0.38177178  0.13341690  1
  O  O372  1  0.12796700  0.36975497  0.63727259  1
  O  O373  1  0.12850378  0.88137813  0.13364396  1
  O  O374  1  0.11964393  0.89062064  0.63222847  1
  O  O375  1  0.62993630  0.38376542  0.12740860  1
  O  O376  1  0.63396926  0.37020533  0.63183061  1
  O  O377  1  0.63882608  0.87240404  0.13464345  1
  O  O378  1  0.62573219  0.88104529  0.62911403  1
  O  O379  1  0.11846637  0.25337811  0.25328460  1
  O  O380  1  0.12203258  0.25493700  0.75579956  1
  O  O381  1  0.12202175  0.75171375  0.25799715  1
  O  O382  1  0.12182398  0.75550178  0.75594668  1
  O  O383  1  0.61672991  0.25189893  0.25732841  1
  O  O384  1  0.61067783  0.26030370  0.74446744  1
  O  O385  1  0.61920159  0.75394754  0.25869225  1
  O  O386  1  0.61908812  0.76039147  0.74807774  1
  O  O387  1  0.38039197  0.24587072  0.24479194  1
  O  O388  1  0.38387078  0.25046227  0.74141733  1
  O  O389  1  0.38454114  0.74414749  0.24560882  1
  O  O390  1  0.38577555  0.75369757  0.75217486  1
  O  O391  1  0.88311768  0.24280411  0.24392763  1
  O  O392  1  0.88426348  0.24834724  0.74056115  1
  O  O393  1  0.87857465  0.74418575  0.24449293  1
  O  O394  1  0.89273456  0.75192507  0.75566046  1
  O  O395  1  0.37060580  0.48547220  0.49840657  1
  O  O396  1  0.37677260  0.49269278  0.99406297  1
  O  O397  1  0.37816639  0.98638134  0.49534053  1
  O  O398  1  0.36451953  0.98791773  0.99372344  1
  O  O399  1  0.86371905  0.48451226  0.49607287  1
  O  O400  1  0.88956660  0.50495459  0.99927667  1
  O  O401  1  0.87898703  1.00385081  0.48567409  1
  O  O402  1  0.89213106  1.00410635  1.00665694  1
  O  O403  1  0.12250329  0.00781328  0.00649188  1
  O  O404  1  0.13202814  0.01099050  0.50659705  1
  O  O405  1  0.12009578  0.50588563  0.00246846  1
  O  O406  1  0.13024474  0.50491556  0.49648432  1
  O  O407  1  0.61353695  0.00337924  0.00588104  1
  O  O408  1  0.61157008  -0.01136288  0.50341032  1
  O  O409  1  0.62107176  0.50420708  0.01172051  1
  O  O410  1  0.62865268  0.51773867  0.49435860  1
  O  O411  1  0.38051645  0.36663088  0.11556384  1
  O  O412  1  0.37687034  0.36466857  0.61716252  1
  O  O413  1  0.37394844  0.86960578  0.11607585  1
  O  O414  1  0.37242281  0.87759933  0.61532799  1
  O  O415  1  0.86621558  0.36580280  0.13003747  1
  O  O416  1  0.86319065  0.36703475  0.61841844  1
  O  O417  1  0.86601377  0.86516135  0.12667782  1
  O  O418  1  0.88035062  0.88167772  0.62119957  1
  O  O419  1  0.12948499  0.12536888  0.38033229  1
  O  O420  1  0.12486738  0.13960794  0.88264564  1
  O  O421  1  0.13192017  0.62726667  0.37742336  1
  O  O422  1  0.12804294  0.63032262  0.88659297  1
  O  O423  1  0.63415507  0.13563824  0.37023510  1
  O  O424  1  0.63631101  0.12033218  0.87150058  1
  O  O425  1  0.63106784  0.63338405  0.38179574  1
  O  O426  1  0.63521190  0.62779114  0.87611462  1
