# generated using pymatgen
data_V85Zn86O256
_symmetry_space_group_name_H-M   'P 1'
_cell_length_a   16.93694252
_cell_length_b   16.93787431
_cell_length_c   16.93243076
_cell_angle_alpha   89.93648798
_cell_angle_beta   90.00683790
_cell_angle_gamma   90.03051544
_symmetry_Int_Tables_number   1
_chemical_formula_structural   V85Zn86O256
_chemical_formula_sum   'V85 Zn86 O256'
_cell_volume   4857.50097401
_cell_formula_units_Z   1
loop_
 _symmetry_equiv_pos_site_id
 _symmetry_equiv_pos_as_xyz
  1  'x, y, z'
loop_
 _atom_site_type_symbol
 _atom_site_label
 _atom_site_symmetry_multiplicity
 _atom_site_fract_x
 _atom_site_fract_y
 _atom_site_fract_z
 _atom_site_occupancy
  V  V0  1  0.74996538  0.49505291  0.74838131  1
  V  V1  1  0.37387540  0.50092407  0.37955722  1
  V  V2  1  0.00126586  0.49693342  -0.00197184  1
  V  V3  1  0.23516652  0.24189232  -0.00395472  1
  V  V4  1  0.13105424  0.74881493  0.87717879  1
  V  V5  1  0.00174242  0.89259888  0.38035567  1
  V  V6  1  0.88065861  0.87215841  -0.00111721  1
  V  V7  1  0.00717502  0.12248059  0.12308105  1
  V  V8  1  0.87508953  0.62865332  0.74732422  1
  V  V9  1  0.74738851  0.37072592  0.12567977  1
  V  V10  1  0.49863691  0.12980635  0.10879661  1
  V  V11  1  0.86911789  0.87844852  0.49653962  1
  V  V12  1  0.37325863  0.49503755  0.86645787  1
  V  V13  1  0.00151604  0.24361112  0.74397619  1
  V  V14  1  0.62939518  0.14092783  0.49959708  1
  V  V15  1  0.12665987  0.50216785  0.62315795  1
  V  V16  1  0.12651385  0.25032160  0.37540691  1
  V  V17  1  0.49805853  0.12776970  0.62707686  1
  V  V18  1  0.23631906  0.12477333  0.87323217  1
  V  V19  1  0.62238204  0.36458138  0.25530531  1
  V  V20  1  -0.00191112  0.75124108  0.74455611  1
  V  V21  1  0.50334812  0.87431054  0.37429077  1
  V  V22  1  0.87678773  0.74926135  0.12619160  1
  V  V23  1  0.25821475  0.36429364  0.12213115  1
  V  V24  1  -0.00293646  0.24746297  0.25129199  1
  V  V25  1  0.62723758  0.50462510  0.61786375  1
  V  V26  1  0.49801637  0.49373733  -0.00745680  1
  V  V27  1  0.00541634  0.36679909  0.87243894  1
  V  V28  1  0.37453618  0.25560687  0.62362921  1
  V  V29  1  0.62297601  0.49730474  0.12375153  1
  V  V30  1  0.25334083  0.12460532  0.37736539  1
  V  V31  1  0.62475521  -0.00372389  0.62826450  1
  V  V32  1  0.50642676  0.75337687  0.24372232  1
  V  V33  1  0.48833571  0.24808397  0.24965222  1
  V  V34  1  0.24710411  0.63104551  0.37308462  1
  V  V35  1  0.12970354  0.37502193  0.74891517  1
  V  V36  1  0.87622928  0.49694484  0.87323237  1
  V  V37  1  0.74452564  -0.00326195  0.75420204  1
  V  V38  1  0.61500623  0.37651352  0.75224018  1
  V  V39  1  0.00229025  0.62571425  0.62355594  1
  V  V40  1  0.50279981  -0.01337215  -0.00696883  1
  V  V41  1  0.86900545  0.36979307  0.50026203  1
  V  V42  1  0.74717471  0.12613911  0.87530485  1
  V  V43  1  0.61618905  0.25175129  0.87562485  1
  V  V44  1  0.49926118  -0.00535779  0.50205027  1
  V  V45  1  0.49883448  0.62798265  0.12511004  1
  V  V46  1  0.87075773  0.23916322  0.61989809  1
  V  V47  1  0.25234973  -0.00665022  0.24851645  1
  V  V48  1  0.12014297  0.00311347  0.62676861  1
  V  V49  1  0.12620864  0.49461950  0.12184544  1
  V  V50  1  0.13044009  0.87461339  0.74457581  1
  V  V51  1  0.87467593  0.37217130  -0.00161473  1
  V  V52  1  0.11847246  0.12750556  0.50571651  1
  V  V53  1  0.49830384  0.37105069  0.38387153  1
  V  V54  1  0.74588522  0.49807294  0.24995991  1
  V  V55  1  0.87049770  0.62156424  0.25091662  1
  V  V56  1  0.74391633  0.24537636  -0.00092561  1
  V  V57  1  0.87339575  0.24678710  0.12579509  1
  V  V58  1  0.25503727  0.38828641  0.62432230  1
  V  V59  1  0.25123004  0.62108894  0.86786502  1
  V  V60  1  0.50031625  0.63322813  0.62877084  1
  V  V61  1  -0.00162199  0.62202228  0.12276823  1
  V  V62  1  0.74770378  0.62352487  0.87309144  1
  V  V63  1  0.62269731  0.62441472  -0.00200171  1
  V  V64  1  0.87735058  0.00234904  0.87473993  1
  V  V65  1  0.37502897  -0.00324735  0.38176614  1
  V  V66  1  0.26039761  0.49734375  0.24487101  1
  V  V67  1  0.75446872  0.86961477  0.63010003  1
  V  V68  1  0.75062594  0.74816042  0.00153243  1
  V  V69  1  0.13014983  -0.01031862  0.12643563  1
  V  V70  1  0.33293188  0.68005305  0.19016371  1
  V  V71  1  0.36353977  0.87065467  0.00861661  1
  V  V72  1  0.00954256  0.00349511  -0.00138569  1
  V  V73  1  0.25275243  0.25872991  0.50123582  1
  V  V74  1  0.00401084  0.87467444  0.87373461  1
  V  V75  1  0.12725328  0.37139554  0.24922928  1
  V  V76  1  0.49760503  0.76514966  0.75327777  1
  V  V77  1  0.87629120  0.49404168  0.37405610  1
  V  V78  1  0.62378463  0.77072642  0.87320726  1
  V  V79  1  0.50351592  0.51256302  0.49565589  1
  V  V80  1  0.86884361  0.10703102  0.25476470  1
  V  V81  1  0.37844588  0.36308720  -0.00583412  1
  V  V82  1  -0.00331800  0.74573488  0.27489617  1
  V  V83  1  0.26703225  0.87197395  0.61944481  1
  V  V84  1  0.74290332  0.12340227  0.37281604  1
  Zn  Zn85  1  0.74050480  0.62106887  0.39175629  1
  Zn  Zn86  1  0.00131641  0.37244688  0.37762589  1
  Zn  Zn87  1  0.25021011  0.75792609  0.49930549  1
  Zn  Zn88  1  0.62826251  0.00482201  0.12799452  1
  Zn  Zn89  1  0.37386024  0.12713091  0.24509635  1
  Zn  Zn90  1  -0.00115430  0.49728807  0.50056527  1
  Zn  Zn91  1  0.75314640  0.88792939  0.13451099  1
  Zn  Zn92  1  0.11112453  0.63560798  0.47901115  1
  Zn  Zn93  1  0.37484553  0.00048302  0.87544086  1
  Zn  Zn94  1  0.74587491  0.74518526  0.50661284  1
  Zn  Zn95  1  0.63833654  0.88656980  0.25262725  1
  Zn  Zn96  1  0.13012917  0.86625729  0.25744346  1
  Zn  Zn97  1  0.37459412  0.63143023  0.75054473  1
  Zn  Zn98  1  -0.00792239  0.01075198  0.50871612  1
  Zn  Zn99  1  0.87999091  0.12170714  0.74593510  1
  Zn  Zn100  1  0.25358885  0.00131066  0.74980243  1
  Zn  Zn101  1  0.12749727  0.62411406  -0.00199741  1
  Zn  Zn102  1  0.25309487  0.74743675  0.01647389  1
  Zn  Zn103  1  0.74611850  0.36708398  0.61901811  1
  Zn  Zn104  1  0.37278817  0.12597311  0.75273319  1
  Zn  Zn105  1  0.49543490  0.25431369  0.75259004  1
  Zn  Zn106  1  0.62535028  0.73880516  0.38641190  1
  Zn  Zn107  1  0.18992230  0.18245054  0.18644058  1
  Zn  Zn108  1  0.18700004  0.19227354  0.68715746  1
  Zn  Zn109  1  0.16752129  0.68228082  0.19468328  1
  Zn  Zn110  1  0.18914391  0.69087185  0.68501295  1
  Zn  Zn111  1  0.68167793  0.18109793  0.18987113  1
  Zn  Zn112  1  0.68752914  0.18490139  0.69027314  1
  Zn  Zn113  1  0.68687153  0.69088303  0.19153290  1
  Zn  Zn114  1  0.68057098  0.68903080  0.69075575  1
  Zn  Zn115  1  0.31573686  0.31642286  0.31656416  1
  Zn  Zn116  1  0.30935896  0.30960706  0.81157054  1
  Zn  Zn117  1  0.31875830  0.81751282  0.31820618  1
  Zn  Zn118  1  0.31576144  0.81926639  0.81841829  1
  Zn  Zn119  1  0.80853768  0.30576071  0.31620773  1
  Zn  Zn120  1  0.81324056  0.31016655  0.80835770  1
  Zn  Zn121  1  0.80728526  0.81346942  0.32067108  1
  Zn  Zn122  1  0.81155484  0.81371439  0.81343412  1
  Zn  Zn123  1  0.18629622  0.44261640  0.43898787  1
  Zn  Zn124  1  0.19041495  0.43399867  0.93467121  1
  Zn  Zn125  1  0.18371533  0.93748444  0.44206656  1
  Zn  Zn126  1  0.19395164  0.93434196  0.93984771  1
  Zn  Zn127  1  0.68725275  0.43576429  0.43585683  1
  Zn  Zn128  1  0.68593853  0.43366010  0.93595750  1
  Zn  Zn129  1  0.68637863  0.94315997  0.43755766  1
  Zn  Zn130  1  0.69986794  0.95011333  0.96663074  1
  Zn  Zn131  1  0.31830060  0.06282944  0.06285773  1
  Zn  Zn132  1  0.30882132  0.06280482  0.56500967  1
  Zn  Zn133  1  0.30870844  0.55558700  0.04815210  1
  Zn  Zn134  1  0.33359049  0.60486192  0.54137992  1
  Zn  Zn135  1  0.81976759  0.06418249  0.06212536  1
  Zn  Zn136  1  0.80723583  0.05999693  0.55921641  1
  Zn  Zn137  1  0.81149222  0.55988964  0.06264964  1
  Zn  Zn138  1  0.81685386  0.55747345  0.56616380  1
  Zn  Zn139  1  0.43928093  0.43403571  0.18317347  1
  Zn  Zn140  1  0.43726181  0.44254970  0.68021964  1
  Zn  Zn141  1  0.44181891  0.94284244  0.18562161  1
  Zn  Zn142  1  0.43789938  0.94267666  0.69373420  1
  Zn  Zn143  1  0.93686588  0.43297123  0.18762488  1
  Zn  Zn144  1  0.93776046  0.43358870  0.68440249  1
  Zn  Zn145  1  0.94136383  0.93047893  0.18840116  1
  Zn  Zn146  1  0.93594541  0.93898340  0.68685650  1
  Zn  Zn147  1  0.06714559  0.06481444  0.31006350  1
  Zn  Zn148  1  0.06809781  0.06353536  0.81267490  1
  Zn  Zn149  1  0.06151869  0.55646816  0.30639918  1
  Zn  Zn150  1  0.06587940  0.55883925  0.80923294  1
  Zn  Zn151  1  0.56523459  0.06405162  0.31177972  1
  Zn  Zn152  1  0.56304924  0.06417144  0.81544032  1
  Zn  Zn153  1  0.56030029  0.56337768  0.30767793  1
  Zn  Zn154  1  0.56115360  0.56572753  0.81091922  1
  Zn  Zn155  1  0.43821887  0.18788836  0.44070550  1
  Zn  Zn156  1  0.42908720  0.18525353  0.93233564  1
  Zn  Zn157  1  0.43490569  0.69149391  0.43126290  1
  Zn  Zn158  1  0.43646770  0.69240571  0.93586850  1
  Zn  Zn159  1  0.93157240  0.18567197  0.43378927  1
  Zn  Zn160  1  0.93838699  0.18619059  0.93660716  1
  Zn  Zn161  1  0.90594793  0.68040190  0.45403355  1
  Zn  Zn162  1  0.94101022  0.68496152  0.93347708  1
  Zn  Zn163  1  0.06293405  0.31104776  0.06383698  1
  Zn  Zn164  1  0.05840122  0.31348477  0.56346076  1
  Zn  Zn165  1  0.06450097  0.81110459  0.06430159  1
  Zn  Zn166  1  0.06552887  0.81049272  0.55556720  1
  Zn  Zn167  1  0.56041852  0.30805651  0.06446093  1
  Zn  Zn168  1  0.55873877  0.32029533  0.56453342  1
  Zn  Zn169  1  0.56427745  0.81792633  0.06545926  1
  Zn  Zn170  1  0.56581229  0.81311940  0.56330831  1
  O  O171  1  0.11145888  0.11349714  0.13285996  1
  O  O172  1  0.13262411  0.11814818  0.61641152  1
  O  O173  1  0.11545887  0.61214618  0.12089177  1
  O  O174  1  0.11457334  0.61738970  0.63270836  1
  O  O175  1  0.60459230  0.12524648  0.12857361  1
  O  O176  1  0.61982164  0.12027114  0.61717027  1
  O  O177  1  0.61819717  0.61917316  0.11812036  1
  O  O178  1  0.61714844  0.61185764  0.63323998  1
  O  O179  1  0.38452437  0.38928627  0.37246014  1
  O  O180  1  0.36877919  0.38100284  0.88191355  1
  O  O181  1  0.38848524  0.88505491  0.37937982  1
  O  O182  1  0.36466848  0.88517505  0.89505648  1
  O  O183  1  0.87587343  0.37827720  0.37893502  1
  O  O184  1  0.88135111  0.37900860  0.87825903  1
  O  O185  1  0.88495938  0.87557526  0.38937046  1
  O  O186  1  0.88438091  0.88035321  0.87955422  1
  O  O187  1  0.25571842  0.00675260  0.37460613  1
  O  O188  1  0.24508473  0.01551066  0.87681963  1
  O  O189  1  0.25602150  0.49928035  0.36195241  1
  O  O190  1  0.26036299  0.50770094  0.87930023  1
  O  O191  1  0.75252185  0.02113504  0.38643022  1
  O  O192  1  0.75436433  0.00795638  0.87498793  1
  O  O193  1  0.76127413  0.49964123  0.36777209  1
  O  O194  1  0.75507062  0.50382185  0.86829748  1
  O  O195  1  0.24563917  0.49047316  0.12664969  1
  O  O196  1  0.24353245  0.49030379  0.61830503  1
  O  O197  1  0.24109784  1.00985300  0.13579548  1
  O  O198  1  0.23973996  0.99051654  0.62663416  1
  O  O199  1  0.74388566  0.49013805  0.12873764  1
  O  O200  1  0.74443214  0.49824216  0.63234552  1
  O  O201  1  0.73982647  0.99015038  0.07933160  1
  O  O202  1  0.74237651  0.99767693  0.63656626  1
  O  O203  1  0.00733119  0.36225036  0.24797930  1
  O  O204  1  0.00497774  0.36773898  0.75584587  1
  O  O205  1  -0.00718137  0.86489113  0.26967267  1
  O  O206  1  0.00603967  0.86794077  0.75465584  1
  O  O207  1  0.50461750  0.36819508  0.25512730  1
  O  O208  1  0.51199786  0.37582396  0.74444411  1
  O  O209  1  0.49860389  0.86787823  0.25726600  1
  O  O210  1  0.50327701  0.86432145  0.74738202  1
  O  O211  1  0.49560810  0.13971836  0.25664329  1
  O  O212  1  0.50298240  0.12963081  0.73564697  1
  O  O213  1  0.49725693  0.63107504  0.23322743  1
  O  O214  1  0.50146223  0.63690116  0.74492585  1
  O  O215  1  0.99056169  0.12933509  0.24510552  1
  O  O216  1  1.00087345  0.14007245  0.75815583  1
  O  O217  1  0.99222651  0.62924283  0.24314268  1
  O  O218  1  0.99380825  0.63176633  0.74831544  1
  O  O219  1  0.36609628  0.26045228  -0.00400600  1
  O  O220  1  0.36509710  0.24653002  0.51172276  1
  O  O221  1  0.37311929  0.76421439  -0.00177035  1
  O  O222  1  0.35575850  0.71419183  0.50421923  1
  O  O223  1  0.86942945  0.25505783  0.00620453  1
  O  O224  1  0.88001090  0.25252055  0.51260158  1
  O  O225  1  0.87105968  0.74809898  0.00496796  1
  O  O226  1  0.87551389  0.77619123  0.51206628  1
  O  O227  1  0.13096410  0.24647672  0.49570238  1
  O  O228  1  0.13641175  0.25179164  0.99962855  1
  O  O229  1  0.13653748  0.74198093  0.50614863  1
  O  O230  1  0.12752642  0.74771675  0.99178733  1
  O  O231  1  0.61943999  0.23920072  0.50752648  1
  O  O232  1  0.63479889  0.25867914  0.99011025  1
  O  O233  1  0.63130300  0.75038553  0.50124473  1
  O  O234  1  0.63257326  0.74491712  0.99182286  1
  O  O235  1  0.49975473  0.23944083  0.13358029  1
  O  O236  1  0.49088057  0.24644077  0.62413334  1
  O  O237  1  0.50201519  0.74087188  0.12966648  1
  O  O238  1  0.51089330  0.74481701  0.64250382  1
  O  O239  1  0.99729482  0.24073942  0.13160173  1
  O  O240  1  0.98645628  0.25419861  0.63385511  1
  O  O241  1  0.98798561  0.74229834  0.12471452  1
  O  O242  1  1.00503029  0.74291131  0.63831771  1
  O  O243  1  0.00463738  0.24863888  0.36367775  1
  O  O244  1  -0.00622990  0.26210469  0.86796026  1
  O  O245  1  -0.01374924  0.74486160  0.37440253  1
  O  O246  1  0.01177592  0.75268320  0.86689454  1
  O  O247  1  0.49138575  0.26340569  0.36959425  1
  O  O248  1  0.51259650  0.24299537  0.87297767  1
  O  O249  1  0.50030434  0.75820996  0.36609335  1
  O  O250  1  0.51588145  0.74956570  0.86847414  1
  O  O251  1  0.24106380  0.13563079  0.49469436  1
  O  O252  1  0.25244009  0.13659578  0.99492929  1
  O  O253  1  0.23819314  0.60859905  0.47516020  1
  O  O254  1  0.24715973  0.63006948  0.98631986  1
  O  O255  1  0.73398924  0.12662921  0.49883286  1
  O  O256  1  0.75840736  0.13979767  0.99173988  1
  O  O257  1  0.79563454  0.63819918  0.49397297  1
  O  O258  1  0.74685366  0.63199827  0.99491799  1
  O  O259  1  0.25444198  0.36288996  0.00424326  1
  O  O260  1  0.24453828  0.36502584  0.50622949  1
  O  O261  1  0.25614312  0.86845335  0.00988845  1
  O  O262  1  0.25011198  0.87761535  0.51432287  1
  O  O263  1  0.75581968  0.36553270  0.00367073  1
  O  O264  1  0.76308200  0.37588064  0.49933280  1
  O  O265  1  0.76353558  0.85507953  -0.00641725  1
  O  O266  1  0.75825319  0.88122605  0.50998460  1
  O  O267  1  0.13594999  0.49086259  0.24030709  1
  O  O268  1  0.12100470  0.48754934  0.73613629  1
  O  O269  1  0.13333698  0.99631742  0.24486009  1
  O  O270  1  0.12861373  0.99151032  0.74510228  1
  O  O271  1  0.62618353  0.48792081  0.24048092  1
  O  O272  1  0.63239962  0.49430945  0.74619824  1
  O  O273  1  0.62196452  1.00037771  0.24354699  1
  O  O274  1  0.63325360  1.00683783  0.74311372  1
  O  O275  1  0.36997095  0.00287034  0.26335295  1
  O  O276  1  0.37072292  0.00751312  0.75526806  1
  O  O277  1  0.36417018  0.49226018  0.25123576  1
  O  O278  1  0.38454234  0.49938333  0.76481269  1
  O  O279  1  0.87653449  0.00985613  0.24134171  1
  O  O280  1  0.86996247  0.00273591  0.75919588  1
  O  O281  1  0.86873301  0.50174333  0.25286226  1
  O  O282  1  0.86810019  0.50319633  0.75403079  1
  O  O283  1  0.12519546  0.36825395  0.36782686  1
  O  O284  1  0.11674098  0.38046640  0.86315966  1
  O  O285  1  0.10660416  0.87700773  0.37720594  1
  O  O286  1  0.12407402  0.86873902  0.86507158  1
  O  O287  1  0.61277286  0.38158794  0.36549127  1
  O  O288  1  0.62955321  0.36516934  0.86409032  1
  O  O289  1  0.61142611  0.87855813  0.37554871  1
  O  O290  1  0.63503351  0.86665386  0.88509083  1
  O  O291  1  0.39204210  0.12236842  0.12986280  1
  O  O292  1  0.38188756  0.13339996  0.62571020  1
  O  O293  1  0.38074388  0.61714764  0.11973916  1
  O  O294  1  0.39660508  0.61195041  0.63665902  1
  O  O295  1  0.88315069  0.12884032  0.13479013  1
  O  O296  1  0.87331424  0.13542936  0.62428334  1
  O  O297  1  0.87971564  0.62575419  0.13245381  1
  O  O298  1  0.88830828  0.61755192  0.64107423  1
  O  O299  1  0.24640168  0.25376407  0.11320072  1
  O  O300  1  0.25563640  0.25930565  0.61763896  1
  O  O301  1  0.25674034  0.73097649  0.13684437  1
  O  O302  1  0.25129168  0.76906333  0.62973268  1
  O  O303  1  0.75108500  0.25105394  0.11777153  1
  O  O304  1  0.76619300  0.25047224  0.63312037  1
  O  O305  1  0.76334637  0.74325598  0.11621146  1
  O  O306  1  0.74369152  0.76678866  0.63416022  1
  O  O307  1  0.24819314  0.24549906  0.38214900  1
  O  O308  1  0.24931630  0.24132163  0.88723233  1
  O  O309  1  0.25368227  0.73362835  0.36664474  1
  O  O310  1  0.23838704  0.74543476  0.87286599  1
  O  O311  1  0.76146979  0.22623722  0.37931261  1
  O  O312  1  0.74574164  0.24497530  0.88012962  1
  O  O313  1  0.74929824  0.74162521  0.38326030  1
  O  O314  1  0.74132767  0.74291195  0.87908155  1
  O  O315  1  -0.00412400  0.11606456  0.01012334  1
  O  O316  1  0.01427942  0.12795238  0.49211902  1
  O  O317  1  0.00072644  0.61380259  0.00367253  1
  O  O318  1  -0.00448430  0.62269061  0.51093665  1
  O  O319  1  0.49607112  0.12865440  0.00755457  1
  O  O320  1  0.50790204  0.12032693  0.50942669  1
  O  O321  1  0.50300768  0.61909554  0.00743582  1
  O  O322  1  0.50234562  0.61740896  0.50755684  1
  O  O323  1  0.50466823  0.38934264  0.48893047  1
  O  O324  1  0.49069085  0.38157680  1.00584758  1
  O  O325  1  0.50189655  0.88945979  0.49723140  1
  O  O326  1  0.49355712  0.88344339  0.99802489  1
  O  O327  1  0.98703193  0.37546569  0.49660922  1
  O  O328  1  0.99596368  0.37644554  0.99226854  1
  O  O329  1  0.99418149  0.88086486  0.49187584  1
  O  O330  1  0.99864047  0.87973559  0.99290803  1
  O  O331  1  0.49222392  0.49740677  0.37851129  1
  O  O332  1  0.49552337  0.50458318  0.88785175  1
  O  O333  1  0.49276994  0.99754983  0.38311367  1
  O  O334  1  0.49512983  1.01163769  0.89045721  1
  O  O335  1  0.98766242  0.49441632  0.37054935  1
  O  O336  1  0.99545467  0.48949401  0.87759507  1
  O  O337  1  1.00035328  0.99357298  0.37578754  1
  O  O338  1  1.00018079  0.99629789  0.88140352  1
  O  O339  1  0.00597609  0.00369710  0.11883021  1
  O  O340  1  0.01493358  -0.00075859  0.62827222  1
  O  O341  1  0.00497522  0.49976962  0.11929644  1
  O  O342  1  0.00709667  0.50777793  0.62593231  1
  O  O343  1  0.49952525  0.01237011  0.10981212  1
  O  O344  1  0.50531939  0.00788639  0.62045731  1
  O  O345  1  0.50382376  0.50546825  0.11483146  1
  O  O346  1  0.51000237  0.50478005  0.61438941  1
  O  O347  1  0.24766543  0.37707678  0.24004891  1
  O  O348  1  0.23997079  0.36919686  0.73854533  1
  O  O349  1  0.24829819  0.88879692  0.26072226  1
  O  O350  1  0.24407792  0.87744771  0.74237204  1
  O  O351  1  0.74139006  0.37653138  0.24777783  1
  O  O352  1  0.74518524  0.38647725  0.74900120  1
  O  O353  1  0.75394931  0.87187612  0.24556395  1
  O  O354  1  0.75495296  0.88879680  0.74644530  1
  O  O355  1  0.25200312  0.11632373  0.26056162  1
  O  O356  1  0.24519839  0.12807381  0.76311854  1
  O  O357  1  0.25634350  0.61668368  0.24778287  1
  O  O358  1  0.25365473  0.63097681  0.76222898  1
  O  O359  1  0.76118188  0.12600995  0.25467848  1
  O  O360  1  0.75465499  0.11474056  0.75811018  1
  O  O361  1  0.75880481  0.61399155  0.24208437  1
  O  O362  1  0.75674745  0.61579241  0.75171239  1
  O  O363  1  0.36313988  0.12202356  0.37652557  1
  O  O364  1  0.35805458  0.12384405  0.87130701  1
  O  O365  1  0.36150287  0.61026930  0.36557665  1
  O  O366  1  0.36875764  0.61592101  0.87563371  1
  O  O367  1  0.87306528  0.12121574  0.35851380  1
  O  O368  1  0.86561919  0.12012153  0.87316288  1
  O  O369  1  0.87832766  0.61221714  0.35825958  1
  O  O370  1  0.87034528  0.61717424  0.86562705  1
  O  O371  1  0.13538222  0.37654562  0.12917190  1
  O  O372  1  0.13063807  0.38275002  0.62819830  1
  O  O373  1  0.11712004  0.88627450  0.13458930  1
  O  O374  1  0.12566249  0.88101816  0.63553671  1
  O  O375  1  0.62982792  0.37736836  0.13135543  1
  O  O376  1  0.62868979  0.38555180  0.63234621  1
  O  O377  1  0.63268428  0.87931269  0.12812180  1
  O  O378  1  0.63418568  0.89190106  0.62168107  1
  O  O379  1  0.11860148  0.25042962  0.25469606  1
  O  O380  1  0.11427233  0.26423899  0.74020390  1
  O  O381  1  0.10255352  0.75309453  0.25021432  1
  O  O382  1  0.11830214  0.75737088  0.75604621  1
  O  O383  1  0.61642900  0.26087318  0.24780681  1
  O  O384  1  0.62550770  0.25983327  0.75635216  1
  O  O385  1  0.61259876  0.75391134  0.25171494  1
  O  O386  1  0.62062356  0.75233706  0.76750872  1
  O  O387  1  0.38400657  0.25279386  0.24959703  1
  O  O388  1  0.37586595  0.24830788  0.73766369  1
  O  O389  1  0.38528507  0.74937453  0.24954396  1
  O  O390  1  0.39385910  0.75134098  0.76310224  1
  O  O391  1  0.88390348  0.24635436  0.24314394  1
  O  O392  1  0.88309669  0.24859716  0.73871245  1
  O  O393  1  0.88031461  0.73862249  0.24299147  1
  O  O394  1  0.88457234  0.74002606  0.75909153  1
  O  O395  1  0.38653798  0.50840349  0.48913151  1
  O  O396  1  0.38156493  0.48739344  0.98997407  1
  O  O397  1  0.38304150  1.01135400  0.48934370  1
  O  O398  1  0.38334509  0.99322557  0.99896834  1
  O  O399  1  0.87809185  0.48899480  0.48960982  1
  O  O400  1  0.87974414  0.49178915  0.99416058  1
  O  O401  1  0.87986987  0.98801646  0.51002124  1
  O  O402  1  0.89108713  0.99403876  0.99342242  1
  O  O403  1  0.11607102  -0.00694980  0.00850075  1
  O  O404  1  0.12194871  0.01081157  0.50873193  1
  O  O405  1  0.11975685  0.49615656  0.00603707  1
  O  O406  1  0.11790992  0.50336504  0.51114268  1
  O  O407  1  0.60392512  0.00201294  -0.00057481  1
  O  O408  1  0.61551004  0.01050869  0.50912758  1
  O  O409  1  0.61792420  0.50200155  0.00385373  1
  O  O410  1  0.62126064  0.49811967  0.50859923  1
  O  O411  1  0.36292630  0.37906925  0.11350901  1
  O  O412  1  0.36638925  0.36990948  0.62667034  1
  O  O413  1  0.38005192  0.88289866  0.10874783  1
  O  O414  1  0.36498259  0.88219432  0.62574435  1
  O  O415  1  0.86757204  0.36634602  0.11987188  1
  O  O416  1  0.87110097  0.36591420  0.61655775  1
  O  O417  1  0.87726860  0.86386433  0.11707297  1
  O  O418  1  0.86211077  0.88162896  0.62105108  1
  O  O419  1  0.13647158  0.13074792  0.38034298  1
  O  O420  1  0.13628838  0.12831540  0.87902887  1
  O  O421  1  0.14041650  0.61669322  0.36264181  1
  O  O422  1  0.13081126  0.63059977  0.87381971  1
  O  O423  1  0.62888850  0.12760569  0.38944577  1
  O  O424  1  0.63982997  0.13582507  0.87029617  1
  O  O425  1  0.63089149  0.62360074  0.36586688  1
  O  O426  1  0.63300305  0.62463992  0.88287372  1
