# generated using pymatgen
data_V85Zn86O256
_symmetry_space_group_name_H-M   'P 1'
_cell_length_a   17.00388020
_cell_length_b   17.01749918
_cell_length_c   17.00893118
_cell_angle_alpha   90.05655304
_cell_angle_beta   89.96525370
_cell_angle_gamma   89.98678143
_symmetry_Int_Tables_number   1
_chemical_formula_structural   V85Zn86O256
_chemical_formula_sum   'V85 Zn86 O256'
_cell_volume   4921.76071883
_cell_formula_units_Z   1
loop_
 _symmetry_equiv_pos_site_id
 _symmetry_equiv_pos_as_xyz
  1  'x, y, z'
loop_
 _atom_site_type_symbol
 _atom_site_label
 _atom_site_symmetry_multiplicity
 _atom_site_fract_x
 _atom_site_fract_y
 _atom_site_fract_z
 _atom_site_occupancy
  V  V0  1  0.37767668  0.89001291  -0.00419503  1
  V  V1  1  0.86954719  -0.00219006  0.87087468  1
  V  V2  1  0.50172808  0.75000623  0.75387823  1
  V  V3  1  0.25971639  0.11884869  0.86883287  1
  V  V4  1  0.62884880  0.38522893  0.25699111  1
  V  V5  1  0.74686105  0.75179765  0.49870471  1
  V  V6  1  0.64349505  0.01148810  0.62766025  1
  V  V7  1  0.87189110  0.12464914  0.75361372  1
  V  V8  1  0.43733200  0.08125109  0.68088501  1
  V  V9  1  0.62853051  0.74468964  0.87436480  1
  V  V10  1  0.52695421  0.75350263  0.25313451  1
  V  V11  1  0.11880379  0.87706313  0.25015945  1
  V  V12  1  0.62223039  0.50252301  0.62748555  1
  V  V13  1  0.24685368  0.00024477  0.25393801  1
  V  V14  1  0.75230702  0.37939916  0.12524672  1
  V  V15  1  -0.02080578  0.03262976  0.46405258  1
  V  V16  1  0.00635773  0.37638937  0.37422594  1
  V  V17  1  0.73687853  0.24289848  0.50398289  1
  V  V18  1  0.50204365  0.37618316  0.37638280  1
  V  V19  1  0.75018436  0.87433482  0.62956667  1
  V  V20  1  0.87492266  0.62386458  0.74502732  1
  V  V21  1  -0.00293505  0.74857016  0.24550872  1
  V  V22  1  0.24710992  0.87942096  0.62695507  1
  V  V23  1  0.24540674  0.75578545  0.50193411  1
  V  V24  1  0.74575666  0.12223473  0.87250011  1
  V  V25  1  0.38023340  0.75687297  0.12773096  1
  V  V26  1  0.12281258  0.12409242  0.00089700  1
  V  V27  1  0.51612822  0.87375358  0.37427505  1
  V  V28  1  0.74631425  0.62017302  0.37064326  1
  V  V29  1  0.24587517  0.37627077  0.62524336  1
  V  V30  1  0.87261540  0.37679632  0.50210856  1
  V  V31  1  0.87042763  0.87367750  0.00312314  1
  V  V32  1  0.57116779  0.30111170  0.92335876  1
  V  V33  1  0.87376788  0.24989236  0.62914364  1
  V  V34  1  0.37959271  0.48068651  0.87647492  1
  V  V35  1  0.12608478  0.13938172  0.50005776  1
  V  V36  1  0.49947721  0.01646071  0.49958745  1
  V  V37  1  0.61873298  0.37348294  0.75008139  1
  V  V38  1  0.37114330  -0.00376614  0.37475815  1
  V  V39  1  0.24880561  0.87829133  0.12480210  1
  V  V40  1  0.37546090  0.75033934  0.62629379  1
  V  V41  1  0.49882906  0.62871274  0.62406370  1
  V  V42  1  0.49420445  0.50222960  0.49635986  1
  V  V43  1  0.87461248  0.87298611  0.49790155  1
  V  V44  1  0.87783566  0.73782711  0.11988468  1
  V  V45  1  0.88289930  0.37602061  -0.00636631  1
  V  V46  1  0.33032053  0.60890994  0.21021602  1
  V  V47  1  0.25685223  0.62826050  0.87493262  1
  V  V48  1  -0.00134827  0.12132215  0.63247365  1
  V  V49  1  0.49840123  0.24377763  0.25897248  1
  V  V50  1  0.63158112  -0.00807972  0.13597989  1
  V  V51  1  0.12198986  0.37783708  0.75482962  1
  V  V52  1  0.37553270  0.25390852  0.12019116  1
  V  V53  1  0.12122876  0.88224267  0.75266765  1
  V  V54  1  0.62374296  0.62998398  0.49579738  1
  V  V55  1  0.87742422  0.24870536  0.12715800  1
  V  V56  1  0.05484293  0.56624082  0.17841934  1
  V  V57  1  0.74954158  0.73806327  -0.00306833  1
  V  V58  1  0.49922624  0.88673806  0.87792205  1
  V  V59  1  0.37543918  0.87618788  0.49562653  1
  V  V60  1  0.49734839  0.25352440  0.74683267  1
  V  V61  1  0.74718350  0.37728297  0.62682462  1
  V  V62  1  0.00190695  0.74565540  0.74603085  1
  V  V63  1  0.25552188  0.25831682  0.00132403  1
  V  V64  1  0.00150279  0.25007100  0.24922843  1
  V  V65  1  0.37007263  0.37543431  0.49897842  1
  V  V66  1  0.49889241  0.11462587  0.12196579  1
  V  V67  1  -0.00155901  0.86791591  0.38057610  1
  V  V68  1  0.74983067  0.25217562  -0.00781946  1
  V  V69  1  0.25902723  0.62466733  0.38600029  1
  V  V70  1  0.12318249  0.00514283  0.12426855  1
  V  V71  1  -0.00376507  0.50827392  0.51334134  1
  V  V72  1  0.37023420  0.12111884  0.24872440  1
  V  V73  1  0.74518563  0.50639760  0.76304176  1
  V  V74  1  0.37307329  0.25444944  0.62529702  1
  V  V75  1  -0.00250114  0.00195344  0.00191858  1
  V  V76  1  -0.00262503  0.25388962  0.75853572  1
  V  V77  1  0.62004673  0.10674215  -0.00549884  1
  V  V78  1  0.87016260  0.49913703  0.36773511  1
  V  V79  1  0.61940275  0.49917279  0.12516363  1
  V  V80  1  0.12453169  0.25097040  0.87463850  1
  V  V81  1  0.88862245  0.50243416  0.87781262  1
  V  V82  1  0.11377900  0.62472657  -0.00543064  1
  V  V83  1  0.24891882  0.75393850  -0.00131250  1
  V  V84  1  0.68294197  0.19551204  0.32984044  1
  Zn  Zn85  1  0.87761706  0.74411717  0.62374944  1
  Zn  Zn86  1  0.63159603  0.87762008  0.75138199  1
  Zn  Zn87  1  0.25013858  0.13760347  0.37809637  1
  Zn  Zn88  1  0.62381532  0.61989327  -0.00567211  1
  Zn  Zn89  1  -0.05071306  0.08709082  0.17187580  1
  Zn  Zn90  1  -0.00168606  0.87509251  0.87446668  1
  Zn  Zn91  1  0.25549223  0.00474001  0.74935360  1
  Zn  Zn92  1  0.74262272  0.86598047  0.13505729  1
  Zn  Zn93  1  0.33315500  0.47028723  0.32841036  1
  Zn  Zn94  1  0.13575162  0.26203956  0.36880792  1
  Zn  Zn95  1  0.50404575  0.62430202  0.12721522  1
  Zn  Zn96  1  0.12297447  0.75456572  0.87550588  1
  Zn  Zn97  1  0.11925612  0.00148433  0.61708155  1
  Zn  Zn98  1  0.05064854  0.45646354  0.04257175  1
  Zn  Zn99  1  0.11993303  0.50940213  0.63517508  1
  Zn  Zn100  1  0.12552536  0.74711191  0.37432135  1
  Zn  Zn101  1  0.49524331  0.50341077  -0.00126823  1
  Zn  Zn102  1  0.24997975  0.50376137  0.75132511  1
  Zn  Zn103  1  0.87014908  0.61397812  0.24397964  1
  Zn  Zn104  1  0.11985257  0.63081509  0.51143626  1
  Zn  Zn105  1  0.37472076  0.62483390  0.75340697  1
  Zn  Zn106  1  0.69476273  0.05199747  0.45864036  1
  Zn  Zn107  1  0.18585645  0.19281180  0.18708642  1
  Zn  Zn108  1  0.18811099  0.18940895  0.68708983  1
  Zn  Zn109  1  0.18359601  0.69573051  0.18506749  1
  Zn  Zn110  1  0.18490063  0.68982334  0.68921410  1
  Zn  Zn111  1  0.68379706  0.18933724  0.16757459  1
  Zn  Zn112  1  0.68716297  0.19090882  0.69167781  1
  Zn  Zn113  1  0.69125017  0.68409303  0.18472268  1
  Zn  Zn114  1  0.68826856  0.68801764  0.68699454  1
  Zn  Zn115  1  0.30968694  0.31005576  0.29906587  1
  Zn  Zn116  1  0.30795640  0.30701950  0.80918690  1
  Zn  Zn117  1  0.31317436  0.80833939  0.31029799  1
  Zn  Zn118  1  0.31462610  0.81672742  0.81332272  1
  Zn  Zn119  1  0.82038560  0.32038946  0.30772784  1
  Zn  Zn120  1  0.80769631  0.31655644  0.81537083  1
  Zn  Zn121  1  0.81511617  0.79719459  0.31785195  1
  Zn  Zn122  1  0.81359591  0.80966682  0.81318293  1
  Zn  Zn123  1  0.18372524  0.44111258  0.44697048  1
  Zn  Zn124  1  0.19332889  0.43853178  0.93439561  1
  Zn  Zn125  1  0.17410886  0.94374318  0.43839260  1
  Zn  Zn126  1  0.18878262  0.93958271  0.93470668  1
  Zn  Zn127  1  0.68401766  0.43838087  0.44128120  1
  Zn  Zn128  1  0.68967907  0.44191031  0.94260570  1
  Zn  Zn129  1  0.70133389  0.93575531  0.30939476  1
  Zn  Zn130  1  0.68838472  0.93106959  0.93786497  1
  Zn  Zn131  1  0.30691533  0.06770154  0.06170563  1
  Zn  Zn132  1  0.30479591  0.05906958  0.55605766  1
  Zn  Zn133  1  0.31553406  0.56626206  0.04545634  1
  Zn  Zn134  1  0.31060616  0.56214459  0.56683914  1
  Zn  Zn135  1  0.80531436  0.06182666  0.05989583  1
  Zn  Zn136  1  0.84104023  0.05400787  0.32950787  1
  Zn  Zn137  1  0.81172644  0.55770750  0.05983570  1
  Zn  Zn138  1  0.80823521  0.56140763  0.56505821  1
  Zn  Zn139  1  0.42383556  0.43516015  0.18963801  1
  Zn  Zn140  1  0.43564456  0.44088437  0.69081896  1
  Zn  Zn141  1  0.44052744  0.93512255  0.18963156  1
  Zn  Zn142  1  0.44186660  0.92065264  0.68572032  1
  Zn  Zn143  1  1.10842974  0.38592523  0.21699768  1
  Zn  Zn144  1  0.93454633  0.43545953  0.69383519  1
  Zn  Zn145  1  0.89103370  0.91449204  0.21413665  1
  Zn  Zn146  1  0.93257403  0.93653178  0.68715784  1
  Zn  Zn147  1  0.06488137  0.06665385  0.31500045  1
  Zn  Zn148  1  0.06237186  0.06258473  0.81634581  1
  Zn  Zn149  1  0.06665879  0.56123483  0.34103191  1
  Zn  Zn150  1  0.06481808  0.56777683  0.81508688  1
  Zn  Zn151  1  0.55686984  0.05753413  0.31287529  1
  Zn  Zn152  1  0.57048816  0.05993016  0.80806007  1
  Zn  Zn153  1  0.55606237  0.56448141  0.31353202  1
  Zn  Zn154  1  0.55709628  0.56404474  0.81512490  1
  Zn  Zn155  1  0.42636423  0.19114367  0.43596368  1
  Zn  Zn156  1  0.43509176  0.17576386  0.93859073  1
  Zn  Zn157  1  0.43967406  0.69539667  0.43515761  1
  Zn  Zn158  1  0.44115535  0.69091944  0.94366007  1
  Zn  Zn159  1  0.93739026  0.20221902  0.44115912  1
  Zn  Zn160  1  0.93694060  0.18676126  0.93906143  1
  Zn  Zn161  1  0.93185408  0.68675347  0.43600330  1
  Zn  Zn162  1  0.93442491  0.68757577  0.92600282  1
  Zn  Zn163  1  0.06513388  0.29992147  0.06524773  1
  Zn  Zn164  1  0.05816812  0.31555587  0.56902496  1
  Zn  Zn165  1  0.05901303  0.81404579  0.06274085  1
  Zn  Zn166  1  0.06154481  0.81252801  0.56900179  1
  Zn  Zn167  1  0.53550936  0.32886639  0.09166137  1
  Zn  Zn168  1  0.55745577  0.31238585  0.56611205  1
  Zn  Zn169  1  0.56099503  0.81335706  0.05828881  1
  Zn  Zn170  1  0.56607485  0.81794620  0.56004282  1
  O  O171  1  0.13285977  0.11913665  0.11175540  1
  O  O172  1  0.11813500  0.12618434  0.61751404  1
  O  O173  1  0.11815808  0.62374548  0.11932236  1
  O  O174  1  0.12995910  0.62119978  0.62275562  1
  O  O175  1  0.61929157  0.11132443  0.11631321  1
  O  O176  1  0.63649053  0.11113278  0.62927520  1
  O  O177  1  0.62863903  0.60652188  0.12807008  1
  O  O178  1  0.61825195  0.62147094  0.61624311  1
  O  O179  1  0.38692185  0.37905832  0.38718693  1
  O  O180  1  0.37157767  0.38309179  0.86933756  1
  O  O181  1  0.37749633  0.87913451  0.37924378  1
  O  O182  1  0.38585026  0.87437675  0.88328616  1
  O  O183  1  0.88079587  0.38070805  0.38584196  1
  O  O184  1  0.86720075  0.38991126  0.88111976  1
  O  O185  1  0.88218165  0.86663165  0.38974950  1
  O  O186  1  0.87349405  0.88303754  0.88337816  1
  O  O187  1  0.25001892  -0.00096550  0.36663712  1
  O  O188  1  0.24653151  0.01445928  0.87051054  1
  O  O189  1  0.24902246  0.51733391  0.38725578  1
  O  O190  1  0.26372011  0.51026769  0.87366632  1
  O  O191  1  0.75373723  0.00745057  0.37748014  1
  O  O192  1  0.75840377  0.00858105  0.88413622  1
  O  O193  1  0.75870236  0.50781179  0.38844548  1
  O  O194  1  0.75064070  0.49877313  0.86446663  1
  O  O195  1  0.27290635  0.55125308  0.15218980  1
  O  O196  1  0.24968596  0.48788339  0.63175068  1
  O  O197  1  0.24371101  0.99546727  0.13316243  1
  O  O198  1  0.24558774  0.99008368  0.62675622  1
  O  O199  1  0.74129847  0.48452392  0.11821671  1
  O  O200  1  0.74060183  0.49403909  0.63415582  1
  O  O201  1  0.73409288  0.99698337  0.12300000  1
  O  O202  1  0.74236142  0.99062658  0.61895839  1
  O  O203  1  0.00062069  0.36656066  0.26539869  1
  O  O204  1  0.01172059  0.36704635  0.74742585  1
  O  O205  1  -0.00621989  0.86268223  0.25925827  1
  O  O206  1  0.00668563  0.87187397  0.75117317  1
  O  O207  1  0.50920579  0.36430056  0.25820784  1
  O  O208  1  0.51055490  0.37035115  0.74845338  1
  O  O209  1  0.49128467  0.86015590  0.26111334  1
  O  O210  1  0.50381744  0.86307154  0.75819954  1
  O  O211  1  0.49228063  0.12751213  0.24743962  1
  O  O212  1  0.49950439  0.13191711  0.74672767  1
  O  O213  1  0.51423847  0.64865543  0.24709928  1
  O  O214  1  0.49826511  0.63766006  0.74487686  1
  O  O215  1  1.01268486  0.14423840  0.24957202  1
  O  O216  1  0.99525974  0.13409349  0.74993878  1
  O  O217  1  1.00371025  0.62553616  0.25052078  1
  O  O218  1  0.99101177  0.63415383  0.75605280  1
  O  O219  1  0.36201247  0.23761869  0.00479137  1
  O  O220  1  0.38046740  0.26665817  0.51021997  1
  O  O221  1  0.36825069  0.76069124  0.01143313  1
  O  O222  1  0.36584108  0.75815712  0.50653013  1
  O  O223  1  0.86670229  0.25805175  -0.00098522  1
  O  O224  1  0.86596100  0.26254983  0.50702373  1
  O  O225  1  0.87001574  0.75280617  0.00196049  1
  O  O226  1  0.86770631  0.75400494  0.50507534  1
  O  O227  1  0.11878631  0.24102596  0.50295010  1
  O  O228  1  0.13341279  0.24071759  0.99280421  1
  O  O229  1  0.13813962  0.75461992  0.50416993  1
  O  O230  1  0.13362755  0.74854097  0.99990888  1
  O  O231  1  0.63765952  0.25695810  0.50629494  1
  O  O232  1  0.62763650  0.24485782  0.99086862  1
  O  O233  1  0.63183758  0.73977828  0.50415124  1
  O  O234  1  0.63403606  0.75023337  0.99330700  1
  O  O235  1  0.50404306  0.23014869  0.14081436  1
  O  O236  1  0.48626404  0.25120613  0.63311493  1
  O  O237  1  0.49533155  0.75826650  0.13970263  1
  O  O238  1  0.49714378  0.74864744  0.63203387  1
  O  O239  1  0.98870416  0.25313302  0.13429525  1
  O  O240  1  0.99440446  0.24451325  0.63987307  1
  O  O241  1  0.99140140  0.75035177  0.13340174  1
  O  O242  1  0.99518012  0.75433780  0.64061784  1
  O  O243  1  0.00340520  0.26211993  0.36943480  1
  O  O244  1  0.00761483  0.24564807  0.86581915  1
  O  O245  1  -0.00002896  0.75181087  0.36582704  1
  O  O246  1  0.00044256  0.75647450  0.86144118  1
  O  O247  1  0.49284190  0.25596446  0.36496400  1
  O  O248  1  0.50311913  0.24410531  0.86925889  1
  O  O249  1  0.50321256  0.75803986  0.36243417  1
  O  O250  1  0.50578008  0.75665662  0.86770990  1
  O  O251  1  0.22924348  0.11972322  0.49823482  1
  O  O252  1  0.23968938  0.12875350  0.98790091  1
  O  O253  1  0.25259431  0.63738351  0.49775517  1
  O  O254  1  0.24172877  0.63801437  0.99374974  1
  O  O255  1  0.75130859  0.14479034  0.50079165  1
  O  O256  1  0.73740656  0.13249811  0.99311827  1
  O  O257  1  0.74065810  0.62972559  0.49785431  1
  O  O258  1  0.74593898  0.63498012  1.00031750  1
  O  O259  1  0.25067393  0.35620077  -0.00811956  1
  O  O260  1  0.25960004  0.38225737  0.51052794  1
  O  O261  1  0.25460146  0.87118799  0.00441817  1
  O  O262  1  0.25066540  0.87378180  0.50673339  1
  O  O263  1  0.75322097  0.36677488  0.00388319  1
  O  O264  1  0.75569180  0.37131230  0.50750755  1
  O  O265  1  0.76158099  0.86720367  0.00372247  1
  O  O266  1  0.76120679  0.86394406  0.50867846  1
  O  O267  1  0.10736088  0.50532202  0.24355874  1
  O  O268  1  0.12645870  0.49090923  0.75459688  1
  O  O269  1  0.12799430  0.99588354  0.24538843  1
  O  O270  1  0.12406273  0.99054117  0.74815484  1
  O  O271  1  0.61867275  0.48882656  0.24658408  1
  O  O272  1  0.62776814  0.49561030  0.74914696  1
  O  O273  1  0.62564140  0.99914196  0.23967787  1
  O  O274  1  0.62005539  0.99302978  0.73063126  1
  O  O275  1  0.36717163  0.00249506  0.25433107  1
  O  O276  1  0.38264523  0.01366268  0.73302293  1
  O  O277  1  0.39338501  0.54322206  0.25547732  1
  O  O278  1  0.37301455  0.50456024  0.76335450  1
  O  O279  1  0.88139959  0.02174126  0.23241394  1
  O  O280  1  0.87851434  0.00507459  0.76555801  1
  O  O281  1  0.87446771  0.49815374  0.26873576  1
  O  O282  1  0.86636813  0.50237664  0.76023897  1
  O  O283  1  0.11289924  0.37989340  0.38158883  1
  O  O284  1  0.13175947  0.35977444  0.86898787  1
  O  O285  1  0.11646285  0.86788713  0.36809399  1
  O  O286  1  0.12257119  0.87499668  0.86653748  1
  O  O287  1  0.61353950  0.37856817  0.37077817  1
  O  O288  1  0.63003422  0.36756346  0.86912157  1
  O  O289  1  0.61447091  0.88496780  0.37156130  1
  O  O290  1  0.61742621  0.86550299  0.87374759  1
  O  O291  1  0.38321308  0.12882018  0.12695973  1
  O  O292  1  0.37056232  0.13339545  0.62038654  1
  O  O293  1  0.38503745  0.63977345  0.11849714  1
  O  O294  1  0.38145270  0.63323777  0.62732699  1
  O  O295  1  0.87013181  0.14403034  0.10824770  1
  O  O296  1  0.88338456  0.13647224  0.63982544  1
  O  O297  1  0.86652334  0.63329066  0.12597219  1
  O  O298  1  0.87117971  0.62151563  0.64054247  1
  O  O299  1  0.26174488  0.24633648  0.11262794  1
  O  O300  1  0.26251166  0.26210668  0.63354184  1
  O  O301  1  0.25439328  0.75788101  0.11463031  1
  O  O302  1  0.25459770  0.76365135  0.62164330  1
  O  O303  1  0.75121526  0.25859603  0.10977849  1
  O  O304  1  0.75391145  0.25702416  0.61894571  1
  O  O305  1  0.75603133  0.74967670  0.11483203  1
  O  O306  1  0.75140551  0.75503725  0.61501436  1
  O  O307  1  0.24899636  0.25150757  0.36665104  1
  O  O308  1  0.24424841  0.23937147  0.88151340  1
  O  O309  1  0.24917103  0.74675458  0.38779020  1
  O  O310  1  0.25121302  0.74947194  0.88681453  1
  O  O311  1  0.74731369  0.25676311  0.38464616  1
  O  O312  1  0.75338647  0.24172287  0.88591871  1
  O  O313  1  0.75278686  0.73658838  0.39134152  1
  O  O314  1  0.74077852  0.75644041  0.88432710  1
  O  O315  1  0.01284744  0.11863839  -0.00657267  1
  O  O316  1  0.00492464  0.13217813  0.51553420  1
  O  O317  1  0.01487450  0.63514045  -0.01008431  1
  O  O318  1  -0.00642557  0.61038680  0.49917832  1
  O  O319  1  0.50984490  0.12692970  0.00939868  1
  O  O320  1  0.49169760  0.11491472  0.49337806  1
  O  O321  1  0.50709117  0.62526064  0.00825956  1
  O  O322  1  0.50432576  0.62144301  0.50152967  1
  O  O323  1  0.49599404  0.38301505  0.49463803  1
  O  O324  1  0.51759998  0.36120950  0.98245681  1
  O  O325  1  0.49456797  0.88052649  0.49130434  1
  O  O326  1  0.49028608  0.87142720  0.98887879  1
  O  O327  1  0.98884043  0.37987352  0.49781825  1
  O  O328  1  0.98482263  0.36947263  0.99884644  1
  O  O329  1  0.99480756  0.86243223  0.48932270  1
  O  O330  1  0.98786132  0.88303855  0.99879172  1
  O  O331  1  0.50020087  0.49229879  0.38486711  1
  O  O332  1  0.48366791  0.50218881  0.87646275  1
  O  O333  1  0.49265644  0.99244297  0.38323534  1
  O  O334  1  0.50645234  0.98524519  0.86776244  1
  O  O335  1  0.98883822  0.49262296  0.39085170  1
  O  O336  1  0.98687721  0.49944930  0.87128536  1
  O  O337  1  1.00767108  0.98034846  0.37146022  1
  O  O338  1  0.99065480  0.99957344  0.88688727  1
  O  O339  1  0.00677676  0.00629935  0.10931988  1
  O  O340  1  -0.00169101  0.01767286  0.63553836  1
  O  O341  1  -0.00928064  0.51449249  0.12405263  1
  O  O342  1  -0.00480441  0.49405509  0.61536428  1
  O  O343  1  0.50979472  0.00905859  0.13268961  1
  O  O344  1  0.49247860  0.01250700  0.62251188  1
  O  O345  1  0.50475516  0.49551514  0.12393956  1
  O  O346  1  0.50377750  0.50937214  0.62121183  1
  O  O347  1  0.32365716  0.40153353  0.23947582  1
  O  O348  1  0.23675260  0.37446630  0.74491153  1
  O  O349  1  0.24224567  0.87931525  0.24400256  1
  O  O350  1  0.24441615  0.88069131  0.74316687  1
  O  O351  1  0.73830880  0.36572709  0.23958283  1
  O  O352  1  0.73680856  0.38045233  0.74586700  1
  O  O353  1  0.77501589  0.87520606  0.24699779  1
  O  O354  1  0.75306692  0.86793254  0.73393403  1
  O  O355  1  0.25288089  0.11666277  0.24936040  1
  O  O356  1  0.24449518  0.12468008  0.76376767  1
  O  O357  1  0.24540744  0.63846159  0.27218307  1
  O  O358  1  0.25335340  0.62827132  0.76155695  1
  O  O359  1  0.74033526  0.14723015  0.26386845  1
  O  O360  1  0.75468966  0.13321718  0.76601930  1
  O  O361  1  0.74796134  0.62812176  0.26737062  1
  O  O362  1  0.75584376  0.61486935  0.74679435  1
  O  O363  1  0.36905886  0.11474489  0.36882001  1
  O  O364  1  0.35854762  0.12412063  0.87432507  1
  O  O365  1  0.35922630  0.63217167  0.38402177  1
  O  O366  1  0.36407117  0.63152423  0.87831651  1
  O  O367  1  0.92241940  0.09951410  0.39741012  1
  O  O368  1  0.86659395  0.11726674  0.87459983  1
  O  O369  1  0.86452208  0.61469273  0.37570432  1
  O  O370  1  0.87337752  0.60938551  0.86554023  1
  O  O371  1  0.11805957  0.38858542  0.10628462  1
  O  O372  1  0.13180186  0.37696436  0.63418169  1
  O  O373  1  0.12758079  0.88387926  0.13077661  1
  O  O374  1  0.13145398  0.88138434  0.63155673  1
  O  O375  1  0.62761342  0.38228402  0.13596776  1
  O  O376  1  0.62601735  0.38273548  0.63380582  1
  O  O377  1  0.62358677  0.88943819  0.12098340  1
  O  O378  1  0.63579742  0.88231167  0.62451973  1
  O  O379  1  0.11924165  0.26734011  0.24482961  1
  O  O380  1  0.11724691  0.25460194  0.75748390  1
  O  O381  1  0.11151410  0.75807874  0.24861198  1
  O  O382  1  0.11867327  0.76443111  0.75103243  1
  O  O383  1  0.62156129  0.24921155  0.25915392  1
  O  O384  1  0.61086871  0.25968431  0.74484317  1
  O  O385  1  0.62466948  0.76116310  0.24394567  1
  O  O386  1  0.61913924  0.75320861  0.75611183  1
  O  O387  1  0.38400490  0.23754611  0.23882818  1
  O  O388  1  0.38760325  0.25499680  0.74350630  1
  O  O389  1  0.36110031  0.73267486  0.23112869  1
  O  O390  1  0.38441341  0.75234288  0.74349090  1
  O  O391  1  0.88408681  0.25370674  0.23923046  1
  O  O392  1  0.88097609  0.24921518  0.75135539  1
  O  O393  1  0.88520390  0.73696557  0.24250990  1
  O  O394  1  0.88073502  0.73934990  0.75042054  1
  O  O395  1  0.38758090  0.49172854  0.51007408  1
  O  O396  1  0.37697597  0.49632478  0.98402400  1
  O  O397  1  0.38035659  0.99469301  0.49476656  1
  O  O398  1  0.36914339  0.98841568  1.00660643  1
  O  O399  1  0.87988775  0.49100927  0.50084521  1
  O  O400  1  0.87034188  0.49332364  0.98549542  1
  O  O401  1  0.90144706  0.98567766  0.50601327  1
  O  O402  1  0.87916270  0.99296425  0.99753145  1
  O  O403  1  0.11730010  0.00534204  0.00168785  1
  O  O404  1  0.09802376  0.01555386  0.49687973  1
  O  O405  1  0.12740573  0.51550280  -0.01479557  1
  O  O406  1  0.10378698  0.49961730  0.50677598  1
  O  O407  1  0.62672226  0.00505351  0.00790911  1
  O  O408  1  0.61116204  0.00261762  0.51974361  1
  O  O409  1  0.61767087  0.49895832  0.00910127  1
  O  O410  1  0.61213772  0.50606463  0.50848021  1
  O  O411  1  0.41213368  0.34786953  0.10990864  1
  O  O412  1  0.36880539  0.37083674  0.62160139  1
  O  O413  1  0.36963780  0.87173899  0.12083926  1
  O  O414  1  0.36670353  0.87037734  0.61670208  1
  O  O415  1  0.86170901  0.36309285  0.11156266  1
  O  O416  1  0.86780131  0.37010834  0.62176007  1
  O  O417  1  0.87348479  0.85627733  0.11551653  1
  O  O418  1  0.86851789  0.87339245  0.61536068  1
  O  O419  1  0.12221504  0.13414238  0.38988595  1
  O  O420  1  0.13071050  0.13495032  0.88017387  1
  O  O421  1  0.13630310  0.63170836  0.39314763  1
  O  O422  1  0.13800248  0.63335700  0.87964858  1
  O  O423  1  0.62621823  0.12641882  0.37928797  1
  O  O424  1  0.63294724  0.11738935  0.88239843  1
  O  O425  1  0.63040532  0.61508023  0.38930771  1
  O  O426  1  0.61996595  0.64033927  0.87415876  1
