# generated using pymatgen
data_V85Zn86O256
_symmetry_space_group_name_H-M   'P 1'
_cell_length_a   16.97040160
_cell_length_b   16.96702876
_cell_length_c   16.96227727
_cell_angle_alpha   89.85417136
_cell_angle_beta   90.07933562
_cell_angle_gamma   89.95007822
_symmetry_Int_Tables_number   1
_chemical_formula_structural   V85Zn86O256
_chemical_formula_sum   'V85 Zn86 O256'
_cell_volume   4884.04981187
_cell_formula_units_Z   1
loop_
 _symmetry_equiv_pos_site_id
 _symmetry_equiv_pos_as_xyz
  1  'x, y, z'
loop_
 _atom_site_type_symbol
 _atom_site_label
 _atom_site_symmetry_multiplicity
 _atom_site_fract_x
 _atom_site_fract_y
 _atom_site_fract_z
 _atom_site_occupancy
  V  V0  1  0.37227499  0.87426508  0.50286338  1
  V  V1  1  0.61887313  -0.00883156  0.12344521  1
  V  V2  1  0.86799203  0.24639441  0.12273498  1
  V  V3  1  0.87703832  0.62379889  0.75214338  1
  V  V4  1  0.00169204  0.75090750  0.75227726  1
  V  V5  1  0.00160629  0.62417040  0.62622286  1
  V  V6  1  -0.00474907  0.24665919  0.24940003  1
  V  V7  1  0.74251822  0.24550860  0.49977383  1
  V  V8  1  0.12983621  0.75101852  0.87652945  1
  V  V9  1  0.12255346  0.38032001  0.24435005  1
  V  V10  1  0.37815138  0.25236114  0.12301953  1
  V  V11  1  0.87635469  0.75006495  0.62553599  1
  V  V12  1  0.74054389  0.38201921  0.62235475  1
  V  V13  1  0.37822455  0.49955049  0.37904275  1
  V  V14  1  0.37330183  0.36583756  0.50096385  1
  V  V15  1  0.37870746  -0.00090438  0.37458073  1
  V  V16  1  -0.00537453  0.74651037  0.24752897  1
  V  V17  1  0.62407633  0.12328992  -0.00521358  1
  V  V18  1  0.61085328  0.00515856  0.61247144  1
  V  V19  1  0.00742236  0.01246489  0.01891752  1
  V  V20  1  0.00035363  0.25276773  0.74769797  1
  V  V21  1  0.25368865  0.75295337  0.00247716  1
  V  V22  1  0.62733814  0.75176902  0.37216455  1
  V  V23  1  0.00657133  0.00108138  0.50380581  1
  V  V24  1  0.12619045  0.88584337  0.74392500  1
  V  V25  1  0.37662269  0.88948708  0.00487128  1
  V  V26  1  0.37279477  0.37798672  -0.00695655  1
  V  V27  1  0.30786064  0.69397605  0.55561045  1
  V  V28  1  0.46550772  0.13848855  0.62499521  1
  V  V29  1  0.87140104  0.36993012  0.00122055  1
  V  V30  1  0.50485970  0.87780416  0.38098070  1
  V  V31  1  0.62400747  0.87256438  0.75019814  1
  V  V32  1  0.86971318  0.87196461  0.00449804  1
  V  V33  1  0.24209706  0.88148174  0.61530127  1
  V  V34  1  0.63494819  0.62767600  0.01304028  1
  V  V35  1  -0.00329627  0.62197942  0.12856696  1
  V  V36  1  -0.00023905  0.37540202  0.37396703  1
  V  V37  1  0.50180618  0.75547181  0.25026035  1
  V  V38  1  0.87747705  0.25003508  0.62104682  1
  V  V39  1  0.12838021  0.75359110  0.37044284  1
  V  V40  1  0.12525304  0.24571624  0.87233852  1
  V  V41  1  0.25047113  0.63036128  0.37262758  1
  V  V42  1  0.49949297  0.11821290  0.11869248  1
  V  V43  1  0.12492750  0.62983397  0.49928734  1
  V  V44  1  0.74874037  0.50565586  0.24289776  1
  V  V45  1  0.24764221  0.50184080  0.24870354  1
  V  V46  1  0.25174817  0.12631759  0.37390598  1
  V  V47  1  0.12653673  0.62009715  0.00522376  1
  V  V48  1  0.13483092  0.37883043  0.74663371  1
  V  V49  1  0.00078395  0.50028213  0.49993739  1
  V  V50  1  0.73982756  0.12362053  0.37587832  1
  V  V51  1  0.50150880  0.88241360  0.88251699  1
  V  V52  1  0.75088301  0.74870619  0.49971275  1
  V  V53  1  0.87716965  0.12285004  0.74983034  1
  V  V54  1  0.87575707  0.87538366  0.49922482  1
  V  V55  1  0.23593182  0.87800828  0.12793911  1
  V  V56  1  0.50186965  0.37585582  0.37612296  1
  V  V57  1  0.87317628  0.00086513  0.37293797  1
  V  V58  1  0.37748165  0.62554863  0.24829474  1
  V  V59  1  0.62039214  0.62031515  0.51084269  1
  V  V60  1  0.13568449  0.49904412  0.62452072  1
  V  V61  1  0.48565010  0.75044438  0.74426483  1
  V  V62  1  0.00083511  0.37552921  0.87573407  1
  V  V63  1  0.75605916  0.62265046  0.37391392  1
  V  V64  1  0.75154931  0.63529702  0.87907101  1
  V  V65  1  0.87391419  0.12310719  0.24396186  1
  V  V66  1  0.25517360  0.12470052  0.87122235  1
  V  V67  1  0.74366279  -0.00852149  0.24709732  1
  V  V68  1  0.25024588  0.38229514  0.12554782  1
  V  V69  1  0.00299042  0.87612612  0.36484387  1
  V  V70  1  0.73954087  0.37387761  0.12433560  1
  V  V71  1  0.00222236  0.88166920  0.87974582  1
  V  V72  1  0.23582685  -0.00350481  0.24767876  1
  V  V73  1  0.26198451  0.62153991  0.87280753  1
  V  V74  1  0.25001158  0.25404741  0.51035714  1
  V  V75  1  0.87756446  0.50102555  0.87519239  1
  V  V76  1  0.74579563  0.12954593  0.87567024  1
  V  V77  1  0.49420591  0.50816235  0.00076885  1
  V  V78  1  0.75021496  -0.00241561  0.74567385  1
  V  V79  1  0.00524727  0.49434396  0.00886524  1
  V  V80  1  0.12533437  0.25002813  0.37549774  1
  V  V81  1  0.21707105  0.23169166  0.02572152  1
  V  V82  1  0.87491209  0.37635158  0.49684497  1
  V  V83  1  0.50359929  0.24770535  0.25090557  1
  V  V84  1  0.73872259  0.50383543  0.74815236  1
  Zn  Zn85  1  0.26336455  0.49823860  0.76320905  1
  Zn  Zn86  1  0.86631747  0.74291383  0.12412078  1
  Zn  Zn87  1  0.37609465  0.12198622  0.24795740  1
  Zn  Zn88  1  0.51383176  0.36805905  0.88257910  1
  Zn  Zn89  1  0.62186118  0.37987399  0.24729700  1
  Zn  Zn90  1  0.74147024  0.86832169  0.12151924  1
  Zn  Zn91  1  0.38244334  0.00858328  0.87009620  1
  Zn  Zn92  1  0.63325873  0.35775949  0.76912300  1
  Zn  Zn93  1  0.87773054  0.50578543  0.36858439  1
  Zn  Zn94  1  0.12959013  0.11994452  0.50568247  1
  Zn  Zn95  1  0.62582960  0.75247988  0.87994040  1
  Zn  Zn96  1  0.61975694  0.24666679  0.38137466  1
  Zn  Zn97  1  0.49587448  0.24486443  0.76332458  1
  Zn  Zn98  1  0.25633598  0.01690984  0.73157382  1
  Zn  Zn99  1  0.52047072  0.48551300  0.52241309  1
  Zn  Zn100  1  0.87685973  0.00156531  0.87894323  1
  Zn  Zn101  1  0.44740214  0.57839857  0.69410677  1
  Zn  Zn102  1  0.37572190  0.75290448  0.12725078  1
  Zn  Zn103  1  0.00782458  0.11839833  0.62917513  1
  Zn  Zn104  1  0.74757429  0.87519155  0.62374268  1
  Zn  Zn105  1  0.50562495  0.62038717  0.13102553  1
  Zn  Zn106  1  0.69347644  0.29174055  -0.05487833  1
  Zn  Zn107  1  0.18719998  0.18909750  0.19405496  1
  Zn  Zn108  1  0.18675679  0.18715116  0.68556280  1
  Zn  Zn109  1  0.18331970  0.69051317  0.18707055  1
  Zn  Zn110  1  0.18603874  0.68804107  0.69391768  1
  Zn  Zn111  1  0.68491597  0.18402520  0.18529285  1
  Zn  Zn112  1  0.69001026  0.18121510  0.68534139  1
  Zn  Zn113  1  0.69011755  0.69141719  0.19064870  1
  Zn  Zn114  1  0.68812586  0.69095287  0.68922298  1
  Zn  Zn115  1  0.31489762  0.31164905  0.31063444  1
  Zn  Zn116  1  0.31289684  0.30175973  0.81514579  1
  Zn  Zn117  1  0.31333256  0.81541707  0.31173936  1
  Zn  Zn118  1  0.32762080  0.85007271  0.79568761  1
  Zn  Zn119  1  0.80710653  0.31326364  0.31139636  1
  Zn  Zn120  1  0.81507041  0.31511499  0.80669995  1
  Zn  Zn121  1  0.81481648  0.81009284  0.30986782  1
  Zn  Zn122  1  0.81589396  0.81532182  0.81504410  1
  Zn  Zn123  1  0.18920287  0.44042220  0.43516981  1
  Zn  Zn124  1  0.18739290  0.43387619  0.93921240  1
  Zn  Zn125  1  0.18907806  0.93420985  0.43368805  1
  Zn  Zn126  1  0.18408850  0.94111486  0.94154781  1
  Zn  Zn127  1  0.68844911  0.43786128  0.43381748  1
  Zn  Zn128  1  0.68650134  0.45884081  0.94022778  1
  Zn  Zn129  1  0.68841247  0.93635174  0.43627599  1
  Zn  Zn130  1  0.68679525  0.94571202  0.93501214  1
  Zn  Zn131  1  0.30887819  0.06401603  0.06591027  1
  Zn  Zn132  1  0.31318411  0.06011890  0.55451718  1
  Zn  Zn133  1  0.31474301  0.56358724  0.06266491  1
  Zn  Zn134  1  0.35224247  0.50593877  0.60326185  1
  Zn  Zn135  1  0.81076479  0.05554519  0.05936066  1
  Zn  Zn136  1  0.81296226  0.06208717  0.56319008  1
  Zn  Zn137  1  0.81537552  0.55854716  0.06419932  1
  Zn  Zn138  1  0.81217905  0.56286205  0.56151501  1
  Zn  Zn139  1  0.44029926  0.43961184  0.18543216  1
  Zn  Zn140  1  0.42753164  0.39676770  0.70597110  1
  Zn  Zn141  1  0.43263272  0.93600847  0.19135450  1
  Zn  Zn142  1  0.43560156  0.93760435  0.68728356  1
  Zn  Zn143  1  0.93099326  0.43690330  0.18686408  1
  Zn  Zn144  1  0.93780224  0.43865704  0.68541909  1
  Zn  Zn145  1  0.93826012  0.93878220  0.18514438  1
  Zn  Zn146  1  0.93823027  0.93603136  0.68702324  1
  Zn  Zn147  1  0.05933624  0.06577329  0.31514529  1
  Zn  Zn148  1  0.06601042  0.06401900  0.81501603  1
  Zn  Zn149  1  0.06325859  0.56272427  0.31162120  1
  Zn  Zn150  1  0.06751096  0.56158179  0.81645234  1
  Zn  Zn151  1  0.56197623  0.06018913  0.30823249  1
  Zn  Zn152  1  0.56134347  0.06504324  0.80243238  1
  Zn  Zn153  1  0.56740603  0.56292782  0.31683428  1
  Zn  Zn154  1  0.56313888  0.56346560  0.82562823  1
  Zn  Zn155  1  0.44120614  0.18293652  0.44347346  1
  Zn  Zn156  1  0.43651074  0.19099414  0.93912610  1
  Zn  Zn157  1  0.44536990  0.68372973  0.43384714  1
  Zn  Zn158  1  0.44092350  0.69609480  0.93548163  1
  Zn  Zn159  1  0.93284579  0.18485254  0.43353815  1
  Zn  Zn160  1  0.93602042  0.18734883  0.93555872  1
  Zn  Zn161  1  0.93971093  0.68918909  0.43604524  1
  Zn  Zn162  1  0.94085339  0.68944118  0.94067903  1
  Zn  Zn163  1  0.06122434  0.29480521  0.07015409  1
  Zn  Zn164  1  0.06542354  0.31207465  0.56314555  1
  Zn  Zn165  1  0.05882991  0.81253571  0.06113054  1
  Zn  Zn166  1  0.06238115  0.81205710  0.55802494  1
  Zn  Zn167  1  0.55726737  0.31019806  0.05905966  1
  Zn  Zn168  1  0.57713590  0.28788970  0.60135328  1
  Zn  Zn169  1  0.55950134  0.80706879  0.06208320  1
  Zn  Zn170  1  0.56234122  0.81245085  0.56400694  1
  O  O171  1  0.13787625  0.19626335  0.09319185  1
  O  O172  1  0.11864589  0.13246125  0.61685801  1
  O  O173  1  0.11636727  0.62935050  0.11183110  1
  O  O174  1  0.11934934  0.62149236  0.62007542  1
  O  O175  1  0.61731622  0.11414446  0.12002857  1
  O  O176  1  0.63619346  0.10232009  0.62009079  1
  O  O177  1  0.62577392  0.62813187  0.11597225  1
  O  O178  1  0.63275977  0.62996842  0.60941854  1
  O  O179  1  0.38445811  0.38131183  0.37251386  1
  O  O180  1  0.36211018  0.37473036  0.89396242  1
  O  O181  1  0.38014519  0.87954525  0.38271128  1
  O  O182  1  0.38364668  0.87503614  0.89147708  1
  O  O183  1  0.87946245  0.37198616  0.38551166  1
  O  O184  1  0.87996612  0.37846312  0.88203777  1
  O  O185  1  0.88279807  0.87884894  0.38147233  1
  O  O186  1  0.88616370  0.87677112  0.88373430  1
  O  O187  1  0.25380619  0.00637380  0.36613807  1
  O  O188  1  0.24381429  0.02137812  0.88275856  1
  O  O189  1  0.25635891  0.50979586  0.36722244  1
  O  O190  1  0.24478093  0.51721466  0.88041392  1
  O  O191  1  0.75385684  0.00568846  0.36908607  1
  O  O192  1  0.75438067  0.00927825  0.86054075  1
  O  O193  1  0.75410162  0.50746435  0.36750072  1
  O  O194  1  0.76081375  0.51275220  0.86702357  1
  O  O195  1  0.25410182  0.48918164  0.13081250  1
  O  O196  1  0.23562434  0.50451406  0.62103188  1
  O  O197  1  0.25037382  0.99647016  0.14000963  1
  O  O198  1  0.24609201  0.98654346  0.61841768  1
  O  O199  1  0.75296846  0.49211664  0.13554362  1
  O  O200  1  0.76147465  0.49237541  0.63650382  1
  O  O201  1  0.74028808  0.99411422  0.13176449  1
  O  O202  1  0.75293503  0.99494851  0.63575618  1
  O  O203  1  0.00496433  0.37103661  0.25402073  1
  O  O204  1  0.00251140  0.36951680  0.75559924  1
  O  O205  1  -0.00369353  0.86983526  0.25977983  1
  O  O206  1  0.00687346  0.87024549  0.75666810  1
  O  O207  1  0.50190715  0.36784867  0.25602584  1
  O  O208  1  0.52094853  0.37691949  0.76670523  1
  O  O209  1  0.49216540  0.86165765  0.26299471  1
  O  O210  1  0.50807516  0.86761880  0.75661818  1
  O  O211  1  0.49778044  0.13231504  0.24094467  1
  O  O212  1  0.50310570  0.12837641  0.72804911  1
  O  O213  1  0.49363831  0.63230988  0.25454049  1
  O  O214  1  0.50431667  0.64350236  0.76304524  1
  O  O215  1  0.98549254  0.13220486  0.25700219  1
  O  O216  1  0.99319096  0.13163029  0.74995499  1
  O  O217  1  1.00458116  0.63008203  0.23933084  1
  O  O218  1  0.99714161  0.63081327  0.74823849  1
  O  O219  1  0.37280248  0.25847665  0.01493234  1
  O  O220  1  0.36397390  0.26013676  0.48632767  1
  O  O221  1  0.36191010  0.75525881  0.00345216  1
  O  O222  1  0.37136991  0.75105292  0.49579261  1
  O  O223  1  0.87822157  0.26112373  0.00630205  1
  O  O224  1  0.87130421  0.25616460  0.50484374  1
  O  O225  1  0.88430971  0.76780375  0.00192612  1
  O  O226  1  0.87331203  0.75820338  0.50375264  1
  O  O227  1  0.13144680  0.25595221  0.48574209  1
  O  O228  1  0.12514706  0.27737221  0.97538538  1
  O  O229  1  0.11442701  0.74103892  0.48337466  1
  O  O230  1  0.13339306  0.74559800  0.99504350  1
  O  O231  1  0.64017288  0.24986305  0.50580197  1
  O  O232  1  0.62706317  0.22974435  1.01226774  1
  O  O233  1  0.63111517  0.74340669  0.49230876  1
  O  O234  1  0.61848500  0.73196012  0.99750870  1
  O  O235  1  0.49449934  0.24312537  0.13184871  1
  O  O236  1  0.47661162  0.24064369  0.61752791  1
  O  O237  1  0.49671691  0.74539122  0.13786123  1
  O  O238  1  0.50430907  0.75436381  0.64510713  1
  O  O239  1  0.97766991  0.25514174  0.13613275  1
  O  O240  1  0.98838664  0.25186873  0.62717267  1
  O  O241  1  1.00026678  0.74135183  0.13216437  1
  O  O242  1  0.99581499  0.74374512  0.63016195  1
  O  O243  1  0.00593459  0.25565942  0.37141742  1
  O  O244  1  0.00518401  0.25564000  0.86763048  1
  O  O245  1  0.00418175  0.75722184  0.36741499  1
  O  O246  1  0.01160768  0.76114566  0.87527097  1
  O  O247  1  0.49977286  0.25374593  0.36841064  1
  O  O248  1  0.50573664  0.25134174  0.87940096  1
  O  O249  1  0.50953666  0.75584684  0.37053259  1
  O  O250  1  0.50384051  0.76492475  0.86730426  1
  O  O251  1  0.24969096  0.13384395  0.48692577  1
  O  O252  1  0.25045459  0.13735865  0.99611319  1
  O  O253  1  0.24631435  0.63520695  0.49396596  1
  O  O254  1  0.24367484  0.63277896  0.99817760  1
  O  O255  1  0.76233943  0.13447848  0.48856677  1
  O  O256  1  0.74366447  0.11817615  0.98605181  1
  O  O257  1  0.74501572  0.63105925  0.49375605  1
  O  O258  1  0.74209188  0.61764750  0.99556079  1
  O  O259  1  0.25079987  0.36645395  0.01329952  1
  O  O260  1  0.26089047  0.36361823  0.48125356  1
  O  O261  1  0.25466935  0.87067251  0.00655408  1
  O  O262  1  0.25512565  0.87025927  0.50348473  1
  O  O263  1  0.75665206  0.37767386  0.00639901  1
  O  O264  1  0.75963222  0.36903438  0.50099188  1
  O  O265  1  0.76716628  0.88401398  -0.00411529  1
  O  O266  1  0.76329877  0.86873828  0.49781272  1
  O  O267  1  0.13309638  0.49058888  0.25407559  1
  O  O268  1  0.12616166  0.49509695  0.74149235  1
  O  O269  1  0.13727306  1.00451045  0.25669046  1
  O  O270  1  0.13178496  0.98796401  0.75309296  1
  O  O271  1  0.64176318  0.49695580  0.25663141  1
  O  O272  1  0.63867420  0.50650779  0.75633274  1
  O  O273  1  0.63354923  1.00309213  0.23864281  1
  O  O274  1  0.63371412  0.98955479  0.74158673  1
  O  O275  1  0.36384777  0.00074183  0.26150262  1
  O  O276  1  0.35576454  -0.03312736  0.76282048  1
  O  O277  1  0.37069741  0.50614067  0.25970082  1
  O  O278  1  0.36894938  0.49762456  0.72700506  1
  O  O279  1  0.86853335  0.00683196  0.25322368  1
  O  O280  1  0.87089980  0.00764383  0.74959198  1
  O  O281  1  0.85666326  0.49282778  0.25382644  1
  O  O282  1  0.87333012  0.50714014  0.75696164  1
  O  O283  1  0.12059974  0.37003362  0.36442077  1
  O  O284  1  0.11651599  0.37557607  0.86273422  1
  O  O285  1  0.11470302  0.86577899  0.37842763  1
  O  O286  1  0.12231691  0.86892249  0.86862150  1
  O  O287  1  0.61177847  0.37083260  0.37699443  1
  O  O288  1  0.63887507  0.37227450  0.88570349  1
  O  O289  1  0.61633322  0.86575315  0.38079084  1
  O  O290  1  0.62030041  0.87575141  0.87052925  1
  O  O291  1  0.38121696  0.13334944  0.12613223  1
  O  O292  1  0.36681372  0.11739509  0.63541663  1
  O  O293  1  0.37548587  0.62679957  0.14009617  1
  O  O294  1  0.36305519  0.63121681  0.61093024  1
  O  O295  1  0.86176782  0.13121714  0.13532194  1
  O  O296  1  0.87859046  0.13272779  0.63397894  1
  O  O297  1  0.89192942  0.62627140  0.11493356  1
  O  O298  1  0.88196057  0.63035932  0.63061514  1
  O  O299  1  0.26329656  0.26169684  0.13032908  1
  O  O300  1  0.24243876  0.25414706  0.60878875  1
  O  O301  1  0.25067199  0.75822397  0.11940260  1
  O  O302  1  0.24813729  0.75085680  0.61699827  1
  O  O303  1  0.75930292  0.25826619  0.13170419  1
  O  O304  1  0.76343020  0.25805564  0.61783079  1
  O  O305  1  0.75501710  0.75781754  0.13271017  1
  O  O306  1  0.75914293  0.75334989  0.61795130  1
  O  O307  1  0.24236810  0.24085371  0.37051281  1
  O  O308  1  0.24181832  0.23957047  0.88267569  1
  O  O309  1  0.23998576  0.74414145  0.36546916  1
  O  O310  1  0.23880873  0.74261890  0.88445097  1
  O  O311  1  0.74571477  0.24247868  0.38233888  1
  O  O312  1  0.75497302  0.23562427  0.86600728  1
  O  O313  1  0.74476497  0.74493356  0.37794133  1
  O  O314  1  0.75324025  0.73800463  0.87311891  1
  O  O315  1  -0.00791405  0.11020016  -0.00406697  1
  O  O316  1  -0.00422398  0.10811753  0.49492789  1
  O  O317  1  0.00830487  0.61540711  0.00460186  1
  O  O318  1  0.00460284  0.61860259  0.50426684  1
  O  O319  1  0.50431707  0.12483539  0.01311396  1
  O  O320  1  0.48580340  0.11855524  0.52472143  1
  O  O321  1  0.50144230  0.61974666  0.00296914  1
  O  O322  1  0.51800298  0.62214640  0.49637183  1
  O  O323  1  0.48542279  0.37384136  0.48918400  1
  O  O324  1  0.48937626  0.38392417  1.00188421  1
  O  O325  1  0.48950622  0.86531438  0.48835650  1
  O  O326  1  0.48908798  0.87087057  0.99495832  1
  O  O327  1  0.99436111  0.37975569  0.49422695  1
  O  O328  1  0.99385623  0.37985137  0.99914527  1
  O  O329  1  0.99213152  0.88307792  0.49101927  1
  O  O330  1  0.99389992  0.88377416  0.99454878  1
  O  O331  1  0.49339604  0.49207066  0.37643158  1
  O  O332  1  0.50418661  0.49500355  0.89629541  1
  O  O333  1  0.49219820  0.98946890  0.36778829  1
  O  O334  1  0.49954913  0.98742465  0.86584603  1
  O  O335  1  0.99753270  0.49354571  0.37999688  1
  O  O336  1  0.99614886  0.49508657  0.88611464  1
  O  O337  1  0.99261358  0.99253509  0.37944846  1
  O  O338  1  1.00029498  0.98818557  0.87254367  1
  O  O339  1  0.00073792  0.00613221  0.11930261  1
  O  O340  1  -0.00551718  -0.00136239  0.60721570  1
  O  O341  1  -0.00365935  0.50339810  0.11584527  1
  O  O342  1  0.00695213  0.50719794  0.61873519  1
  O  O343  1  0.50496801  0.00766299  0.13548080  1
  O  O344  1  0.50813328  0.00289370  0.62886589  1
  O  O345  1  0.49950734  0.50299179  0.11128338  1
  O  O346  1  0.47328712  0.49659624  0.62095607  1
  O  O347  1  0.24291077  0.38022848  0.24562657  1
  O  O348  1  0.23595436  0.37904827  0.75975476  1
  O  O349  1  0.25061739  0.88824711  0.24418729  1
  O  O350  1  0.23539820  0.86251904  0.73111368  1
  O  O351  1  0.74428526  0.38213375  0.24224524  1
  O  O352  1  0.74806418  0.38422934  0.74039005  1
  O  O353  1  0.75470264  0.88943042  0.25284530  1
  O  O354  1  0.74543465  0.88222045  0.75072592  1
  O  O355  1  0.25062664  0.11689243  0.25704420  1
  O  O356  1  0.24691105  0.12792064  0.76510644  1
  O  O357  1  0.25653218  0.62154783  0.25219270  1
  O  O358  1  0.24438882  0.62522843  0.76989126  1
  O  O359  1  0.75419605  0.11639305  0.25701518  1
  O  O360  1  0.75845973  0.11731178  0.75214754  1
  O  O361  1  0.74770275  0.61320814  0.25705175  1
  O  O362  1  0.75772913  0.62145664  0.75679062  1
  O  O363  1  0.36816019  0.11695808  0.37275188  1
  O  O364  1  0.36021344  0.12496631  0.88007605  1
  O  O365  1  0.37197994  0.61838691  0.36732108  1
  O  O366  1  0.35962409  0.63101908  0.88248621  1
  O  O367  1  0.86392442  0.12023310  0.36338581  1
  O  O368  1  0.86950005  0.12415045  0.86186358  1
  O  O369  1  0.86089781  0.62654855  0.38110326  1
  O  O370  1  0.87277750  0.62187957  0.87364398  1
  O  O371  1  0.13179418  0.36813050  0.13886847  1
  O  O372  1  0.11702349  0.38604974  0.63494335  1
  O  O373  1  0.13697622  0.87104892  0.12176974  1
  O  O374  1  0.12910883  0.86927058  0.63054676  1
  O  O375  1  0.63669130  0.36911650  0.12188869  1
  O  O376  1  0.64167672  0.38524562  0.60790286  1
  O  O377  1  0.62138654  0.88714992  0.11659069  1
  O  O378  1  0.62683085  0.88260204  0.63326462  1
  O  O379  1  0.11750850  0.25637010  0.26149434  1
  O  O380  1  0.12017624  0.26017717  0.75530528  1
  O  O381  1  0.11248122  0.74479964  0.26240712  1
  O  O382  1  0.11787631  0.75541471  0.76044542  1
  O  O383  1  0.61223013  0.25063155  0.25080581  1
  O  O384  1  0.61615394  0.25868903  0.71110413  1
  O  O385  1  0.61662807  0.74474106  0.26440693  1
  O  O386  1  0.62854532  0.76446196  0.75436723  1
  O  O387  1  0.38624668  0.24919145  0.24082938  1
  O  O388  1  0.38996607  0.28959359  0.74000212  1
  O  O389  1  0.38301505  0.74125598  0.25344971  1
  O  O390  1  0.38666069  0.75903356  0.75107147  1
  O  O391  1  0.87432925  0.24241255  0.24501754  1
  O  O392  1  0.87992876  0.24449176  0.73964060  1
  O  O393  1  0.89034887  0.75045600  0.24888194  1
  O  O394  1  0.88272787  0.74509459  0.74644971  1
  O  O395  1  0.36569581  0.48630921  0.48281420  1
  O  O396  1  0.38417732  0.49399556  1.00460465  1
  O  O397  1  0.36737695  0.98833018  0.48310191  1
  O  O398  1  0.36933818  0.99151545  0.99878259  1
  O  O399  1  0.88119158  0.49136510  0.49723043  1
  O  O400  1  0.88232213  0.48738869  0.99581162  1
  O  O401  1  0.88028788  0.99198326  0.49298979  1
  O  O402  1  0.88660061  0.98969689  0.99841408  1
  O  O403  1  0.10603042  -0.00212026  -0.00001051  1
  O  O404  1  0.10881017  -0.00092782  0.48997246  1
  O  O405  1  0.11618115  0.50679971  -0.00238005  1
  O  O406  1  0.12010720  0.50637081  0.50429086  1
  O  O407  1  0.62687236  0.01214102  0.00950857  1
  O  O408  1  0.62579608  -0.01209399  0.51499769  1
  O  O409  1  0.61426173  0.52022484  0.00343994  1
  O  O410  1  0.62935893  0.51501533  0.49585421  1
  O  O411  1  0.36752562  0.37024329  0.12238070  1
  O  O412  1  0.36303736  0.37908183  0.59861061  1
  O  O413  1  0.36516874  0.87380664  0.11933118  1
  O  O414  1  0.36677018  0.87738260  0.60827410  1
  O  O415  1  0.86361985  0.36866557  0.11746158  1
  O  O416  1  0.87161131  0.36956806  0.61305259  1
  O  O417  1  0.87560351  0.87518435  0.11149069  1
  O  O418  1  0.87656012  0.86804003  0.61519538  1
  O  O419  1  0.13184763  0.13424096  0.37885277  1
  O  O420  1  0.13113199  0.13892926  0.87339165  1
  O  O421  1  0.13179260  0.62981379  0.38034602  1
  O  O422  1  0.12638015  0.63416681  0.88824997  1
  O  O423  1  0.63598813  0.12450744  0.37278085  1
  O  O424  1  0.63289845  0.11711432  0.88119083  1
  O  O425  1  0.63707317  0.63341337  0.38340434  1
  O  O426  1  0.63772327  0.62859093  0.88644631  1
