# generated using pymatgen
data_V85Zn86O256
_symmetry_space_group_name_H-M   'P 1'
_cell_length_a   16.95274216
_cell_length_b   16.96532677
_cell_length_c   16.94940632
_cell_angle_alpha   90.04446753
_cell_angle_beta   90.03494981
_cell_angle_gamma   89.98914065
_symmetry_Int_Tables_number   1
_chemical_formula_structural   V85Zn86O256
_chemical_formula_sum   'V85 Zn86 O256'
_cell_volume   4874.79612750
_cell_formula_units_Z   1
loop_
 _symmetry_equiv_pos_site_id
 _symmetry_equiv_pos_as_xyz
  1  'x, y, z'
loop_
 _atom_site_type_symbol
 _atom_site_label
 _atom_site_symmetry_multiplicity
 _atom_site_fract_x
 _atom_site_fract_y
 _atom_site_fract_z
 _atom_site_occupancy
  V  V0  1  0.36310894  0.00436764  0.87330427  1
  V  V1  1  0.25391019  0.50657265  0.24928304  1
  V  V2  1  0.50254137  0.37487539  0.87073556  1
  V  V3  1  0.62160747  -0.00095215  0.12425276  1
  V  V4  1  0.00180907  0.62545243  0.11557021  1
  V  V5  1  0.63394008  0.37266608  0.74014745  1
  V  V6  1  0.24733097  0.36381049  0.61541073  1
  V  V7  1  0.00311491  0.76231391  0.25405182  1
  V  V8  1  0.74913676  0.12609758  0.37026760  1
  V  V9  1  0.12381744  0.77057096  0.37471206  1
  V  V10  1  0.37208765  0.25321570  0.12152525  1
  V  V11  1  0.24720145  0.62462311  0.37618973  1
  V  V12  1  0.24573650  0.13856267  0.87186544  1
  V  V13  1  0.62178116  0.74755999  0.87559173  1
  V  V14  1  0.49751525  0.74387940  0.25312663  1
  V  V15  1  0.62708415  -0.00029960  0.62543915  1
  V  V16  1  0.49642285  0.24974679  0.74663199  1
  V  V17  1  0.38070304  0.36640967  0.49033647  1
  V  V18  1  0.62147509  0.49548575  0.13208663  1
  V  V19  1  0.50246060  0.12396064  0.62375641  1
  V  V20  1  0.89030307  0.87901792  0.49858986  1
  V  V21  1  0.24672574  0.88856831  0.13794669  1
  V  V22  1  0.75363268  0.49706921  0.74209050  1
  V  V23  1  0.87034196  0.24129022  0.12386706  1
  V  V24  1  0.75345874  0.87699157  0.62581772  1
  V  V25  1  0.35377867  0.83984599  -0.02018434  1
  V  V26  1  0.00153968  0.61788056  0.62040687  1
  V  V27  1  0.13265339  0.11903111  -0.00016479  1
  V  V28  1  0.62503477  0.26667846  0.36888003  1
  V  V29  1  0.74542325  -0.00146836  0.24558255  1
  V  V30  1  0.12077558  0.50301282  0.11996903  1
  V  V31  1  0.37136035  0.49865896  0.86940423  1
  V  V32  1  0.74860161  0.74957952  0.00106203  1
  V  V33  1  0.50376241  0.26308806  0.25111356  1
  V  V34  1  0.74713096  0.25816823  -0.00119935  1
  V  V35  1  0.49971065  0.74653202  0.74933843  1
  V  V36  1  0.49948910  -0.00774151  0.48867398  1
  V  V37  1  0.12388802  0.49460923  0.61350379  1
  V  V38  1  0.87823605  0.23956095  0.62976258  1
  V  V39  1  0.61360550  0.87696184  0.25306475  1
  V  V40  1  0.37280542  0.74944036  0.62222924  1
  V  V41  1  0.10955539  0.13104787  0.49859387  1
  V  V42  1  0.24398207  0.49684530  0.74308098  1
  V  V43  1  0.06126276  0.06281890  0.18674117  1
  V  V44  1  0.49874527  0.50371981  -0.00216346  1
  V  V45  1  0.37236168  0.37249240  -0.00416214  1
  V  V46  1  0.87746430  0.62614259  0.25181037  1
  V  V47  1  0.88416057  0.50098136  0.38045160  1
  V  V48  1  0.87467758  0.75091171  0.12659797  1
  V  V49  1  0.62405541  0.62415271  0.50303795  1
  V  V50  1  0.49890297  0.12661950  0.12515857  1
  V  V51  1  0.75111264  0.25553368  0.50233307  1
  V  V52  1  0.87783972  0.37727536  0.51155363  1
  V  V53  1  0.74792122  0.49351915  0.25407439  1
  V  V54  1  0.38119826  0.50271529  0.37354154  1
  V  V55  1  0.37084154  0.12173251  0.74720084  1
  V  V56  1  0.87604879  0.87691228  -0.00633780  1
  V  V57  1  0.36434148  0.74118964  0.13390151  1
  V  V58  1  0.12939479  0.88964610  0.75295940  1
  V  V59  1  0.62588478  0.12697311  0.49676507  1
  V  V60  1  0.75208555  0.75300156  0.50058976  1
  V  V61  1  0.87899395  -0.00451287  0.37597763  1
  V  V62  1  0.62491362  0.12654343  -0.00549958  1
  V  V63  1  0.01420303  0.74905393  0.75396622  1
  V  V64  1  0.00185306  0.37425071  0.37938991  1
  V  V65  1  0.61933320  0.75618818  0.37794563  1
  V  V66  1  0.88118593  0.38822961  0.00510062  1
  V  V67  1  0.75570857  0.00488532  0.76462183  1
  V  V68  1  0.00196088  0.00664815  0.00056504  1
  V  V69  1  0.25283898  0.88518476  0.62814392  1
  V  V70  1  0.14102517  0.63669251  -0.01328166  1
  V  V71  1  0.49674214  -0.00067960  -0.00355951  1
  V  V72  1  0.62083488  0.62398849  0.00083396  1
  V  V73  1  0.36941276  0.62035878  0.74603528  1
  V  V74  1  0.63488922  0.24784014  0.87002936  1
  V  V75  1  0.49816864  0.87806887  0.87446297  1
  V  V76  1  0.87920471  0.75073223  0.62732007  1
  V  V77  1  0.75093736  0.62192565  0.87475556  1
  V  V78  1  0.87849992  0.62456745  0.75226395  1
  V  V79  1  0.36812912  0.12040626  0.24621368  1
  V  V80  1  0.25709887  0.12787347  0.39041953  1
  V  V81  1  0.00780033  0.87314220  0.87923909  1
  V  V82  1  0.12558219  0.37862766  0.24472895  1
  V  V83  1  0.75312431  0.62751728  0.37625809  1
  V  V84  1  0.00053137  0.25237599  0.24049574  1
  Zn  Zn85  1  0.49460343  0.62420644  0.13134181  1
  Zn  Zn86  1  0.88794664  0.50361359  0.88304648  1
  Zn  Zn87  1  0.24699334  0.74915144  0.50165903  1
  Zn  Zn88  1  0.37329064  0.24557000  0.61496682  1
  Zn  Zn89  1  0.87095744  0.12241912  0.78613308  1
  Zn  Zn90  1  0.37996437  0.86941258  0.49292899  1
  Zn  Zn91  1  0.37392486  -0.01240960  0.35759393  1
  Zn  Zn92  1  0.19526223  0.29302440  -0.04142132  1
  Zn  Zn93  1  0.10830163  -0.01097818  0.59919665  1
  Zn  Zn94  1  0.12025490  0.62342457  0.49487867  1
  Zn  Zn95  1  -0.00318128  0.11726974  0.64475201  1
  Zn  Zn96  1  0.74466954  0.87210179  0.12435548  1
  Zn  Zn97  1  0.49953042  0.61781304  0.62283952  1
  Zn  Zn98  1  0.02244983  0.24519134  0.78293813  1
  Zn  Zn99  1  0.87706693  0.11952542  0.24074822  1
  Zn  Zn100  1  0.62738905  0.87407512  0.75163597  1
  Zn  Zn101  1  0.74390104  0.37423929  0.13253787  1
  Zn  Zn102  1  0.50226892  0.49587060  0.49886493  1
  Zn  Zn103  1  0.62661634  0.49349691  0.62035815  1
  Zn  Zn104  1  0.02124461  0.38087910  0.87662618  1
  Zn  Zn105  1  0.13259263  0.25145357  0.37301306  1
  Zn  Zn106  1  0.24920249  0.37773018  0.12245911  1
  Zn  Zn107  1  0.19129194  0.19333790  0.18466335  1
  Zn  Zn108  1  0.18672526  0.17781707  0.68043028  1
  Zn  Zn109  1  0.18396068  0.68948486  0.19183646  1
  Zn  Zn110  1  0.18835352  0.68526062  0.68416405  1
  Zn  Zn111  1  0.68563615  0.18687993  0.18541145  1
  Zn  Zn112  1  0.69511624  0.18590004  0.68676844  1
  Zn  Zn113  1  0.68445866  0.68354550  0.18923757  1
  Zn  Zn114  1  0.68921329  0.68754053  0.68799748  1
  Zn  Zn115  1  0.31289040  0.31168613  0.30936911  1
  Zn  Zn116  1  0.18979721  0.32188546  0.79416573  1
  Zn  Zn117  1  0.31070237  0.81272604  0.31408649  1
  Zn  Zn118  1  0.31082621  0.81062169  0.80801691  1
  Zn  Zn119  1  0.81693889  0.31262446  0.31436675  1
  Zn  Zn120  1  0.84452210  0.33058218  0.79984442  1
  Zn  Zn121  1  0.80836396  0.81608867  0.31141369  1
  Zn  Zn122  1  0.81533832  0.81181571  0.81225145  1
  Zn  Zn123  1  0.19016812  0.43619799  0.43630850  1
  Zn  Zn124  1  0.18974921  0.46022862  0.93800054  1
  Zn  Zn125  1  0.21077499  0.94021119  0.44029778  1
  Zn  Zn126  1  0.18523264  0.93887509  0.93909492  1
  Zn  Zn127  1  0.69489235  0.43970559  0.43906515  1
  Zn  Zn128  1  0.68745152  0.43748235  0.93324556  1
  Zn  Zn129  1  0.68993115  0.93794664  0.43717235  1
  Zn  Zn130  1  0.68397200  0.93314475  0.94077092  1
  Zn  Zn131  1  0.31148981  0.06132624  0.05894756  1
  Zn  Zn132  1  0.31608581  0.05966536  0.56266154  1
  Zn  Zn133  1  0.31123550  0.56453069  0.06381190  1
  Zn  Zn134  1  0.31202480  0.56059735  0.55629028  1
  Zn  Zn135  1  0.82799683  0.08099036  0.00047572  1
  Zn  Zn136  1  0.81140737  0.06138743  0.55857819  1
  Zn  Zn137  1  0.80623488  0.56651657  0.06887299  1
  Zn  Zn138  1  0.81489268  0.56288136  0.56272764  1
  Zn  Zn139  1  0.43550328  0.43981330  0.18678101  1
  Zn  Zn140  1  0.43775862  0.43356854  0.67859494  1
  Zn  Zn141  1  0.43056763  0.93069616  0.17788394  1
  Zn  Zn142  1  0.43915980  0.93756109  0.68740878  1
  Zn  Zn143  1  0.93592577  0.43727771  0.18510836  1
  Zn  Zn144  1  0.94824864  0.43318230  0.70042101  1
  Zn  Zn145  1  0.92925674  0.93476574  0.18545836  1
  Zn  Zn146  1  0.93950569  0.94077815  0.69197230  1
  Zn  Zn147  1  0.08896629  0.01950643  0.36941577  1
  Zn  Zn148  1  0.05807306  0.06235461  0.81811838  1
  Zn  Zn149  1  0.06237159  0.56677605  0.30709752  1
  Zn  Zn150  1  0.06594040  0.56011098  0.81190165  1
  Zn  Zn151  1  0.56030947  0.07141003  0.30981787  1
  Zn  Zn152  1  0.56564686  0.06216990  0.80978939  1
  Zn  Zn153  1  0.56524220  0.56401555  0.31710578  1
  Zn  Zn154  1  0.56269758  0.56034662  0.80817197  1
  Zn  Zn155  1  0.44232411  0.18599609  0.43134575  1
  Zn  Zn156  1  0.43899345  0.18971397  0.93328756  1
  Zn  Zn157  1  0.43712599  0.68364241  0.43547409  1
  Zn  Zn158  1  0.41928091  0.68683796  0.93220361  1
  Zn  Zn159  1  0.93454577  0.19043775  0.42916965  1
  Zn  Zn160  1  0.93751371  0.19388490  0.93311500  1
  Zn  Zn161  1  0.94228154  0.69277038  0.43883094  1
  Zn  Zn162  1  0.94050100  0.69008420  0.93730677  1
  Zn  Zn163  1  0.03710679  0.28693284  0.03053192  1
  Zn  Zn164  1  0.06201446  0.30501311  0.56617556  1
  Zn  Zn165  1  0.06803108  0.81249303  0.06522927  1
  Zn  Zn166  1  0.06699232  0.80875018  0.56525704  1
  Zn  Zn167  1  0.55877224  0.31584723  0.06235049  1
  Zn  Zn168  1  0.56130797  0.31225595  0.55912389  1
  Zn  Zn169  1  0.55344449  0.81149815  0.06328250  1
  Zn  Zn170  1  0.56384205  0.81247594  0.56576118  1
  O  O171  1  0.12987836  0.11304097  0.12769271  1
  O  O172  1  0.12522173  0.11601245  0.60470681  1
  O  O173  1  0.11701811  0.62171465  0.12396020  1
  O  O174  1  0.11778159  0.61605886  0.62141520  1
  O  O175  1  0.61637660  0.11867457  0.11838113  1
  O  O176  1  0.62464208  0.11709543  0.61778040  1
  O  O177  1  0.62069092  0.61525597  0.11742518  1
  O  O178  1  0.62633657  0.62893900  0.61145739  1
  O  O179  1  0.36636826  0.38266930  0.38548180  1
  O  O180  1  0.38562610  0.38617991  0.88243383  1
  O  O181  1  0.37121740  0.87818628  0.38023684  1
  O  O182  1  0.38133839  0.89032163  0.87469063  1
  O  O183  1  0.88367664  0.38244127  0.38207823  1
  O  O184  1  0.85968197  0.38378744  0.90147516  1
  O  O185  1  0.86530166  0.88595496  0.38387251  1
  O  O186  1  0.88195938  0.86843648  0.88902168  1
  O  O187  1  0.25924181  0.02082642  0.37314031  1
  O  O188  1  0.26103597  0.00681124  0.87486738  1
  O  O189  1  0.25599639  0.50613956  0.36850413  1
  O  O190  1  0.26185993  0.49630415  0.85738921  1
  O  O191  1  0.75114725  0.00725351  0.36403103  1
  O  O192  1  0.74263846  -0.00831393  0.86255027  1
  O  O193  1  0.76131554  0.50823433  0.37066749  1
  O  O194  1  0.74825459  0.51374789  0.86797239  1
  O  O195  1  0.24310194  0.49967641  0.13364182  1
  O  O196  1  0.24314553  0.49303557  0.62465655  1
  O  O197  1  0.26032412  0.98820132  0.12676078  1
  O  O198  1  0.24938138  0.98708288  0.62165627  1
  O  O199  1  0.73959320  0.50167271  0.13760711  1
  O  O200  1  0.74678358  0.50689928  0.63830518  1
  O  O201  1  0.73935164  0.99841021  0.13912086  1
  O  O202  1  0.74191961  0.99410864  0.62754679  1
  O  O203  1  0.00478477  0.37048641  0.25650751  1
  O  O204  1  -0.03852724  0.34839525  0.77285428  1
  O  O205  1  -0.00853024  0.86091053  0.24653867  1
  O  O206  1  0.00748626  0.86863068  0.75971660  1
  O  O207  1  0.49611563  0.36244990  0.24573169  1
  O  O208  1  0.50868997  0.36556917  0.74960632  1
  O  O209  1  0.50959807  0.86754709  0.24466463  1
  O  O210  1  0.50083225  0.86734159  0.76004853  1
  O  O211  1  0.49323110  0.13605371  0.24106413  1
  O  O212  1  0.49880202  0.13064346  0.74215234  1
  O  O213  1  0.50638887  0.64015670  0.25287867  1
  O  O214  1  0.49219573  0.63124213  0.74626993  1
  O  O215  1  0.99887199  0.13225364  0.23713720  1
  O  O216  1  0.98707239  0.13354722  0.76355711  1
  O  O217  1  0.99258982  0.63641063  0.24233494  1
  O  O218  1  0.99795510  0.63283676  0.74353305  1
  O  O219  1  0.38456438  0.26301936  0.00510320  1
  O  O220  1  0.38081806  0.26199781  0.49493608  1
  O  O221  1  0.39661750  0.74779433  0.02775054  1
  O  O222  1  0.38077913  0.74906045  0.51411989  1
  O  O223  1  0.86314200  0.26456016  0.00835037  1
  O  O224  1  0.86917591  0.25636943  0.50388144  1
  O  O225  1  0.86982721  0.75502770  0.00847925  1
  O  O226  1  0.87038877  0.75875926  0.50551417  1
  O  O227  1  0.12299517  0.23575479  0.49442160  1
  O  O228  1  0.13187498  0.22698841  1.02447771  1
  O  O229  1  0.12371718  0.74733902  0.48536640  1
  O  O230  1  0.12281964  0.73471473  1.00166950  1
  O  O231  1  0.63284306  0.24731284  0.49132565  1
  O  O232  1  0.62552935  0.24706770  0.99228454  1
  O  O233  1  0.63064453  0.74734474  0.49454249  1
  O  O234  1  0.62624416  0.74442317  0.99529139  1
  O  O235  1  0.49279934  0.24664754  0.12942973  1
  O  O236  1  0.50106587  0.24145660  0.62951960  1
  O  O237  1  0.49670238  0.74666649  0.13974007  1
  O  O238  1  0.49501910  0.75144505  0.63789416  1
  O  O239  1  0.98660188  0.25855248  0.13361541  1
  O  O240  1  0.98356416  0.24199200  0.62550280  1
  O  O241  1  0.99246938  0.74544570  0.13172185  1
  O  O242  1  0.99674183  0.74249836  0.63410944  1
  O  O243  1  -0.00042050  0.25761003  0.35774734  1
  O  O244  1  0.01513742  0.26541127  0.90470029  1
  O  O245  1  0.01419010  0.74922217  0.36879368  1
  O  O246  1  -0.00350007  0.76165381  0.86666062  1
  O  O247  1  0.51379719  0.24564935  0.36394689  1
  O  O248  1  0.50986008  0.25575332  0.86483065  1
  O  O249  1  0.51215429  0.74761056  0.37162842  1
  O  O250  1  0.49892143  0.75478579  0.86423798  1
  O  O251  1  0.25718931  0.12959609  0.49202776  1
  O  O252  1  0.24505061  0.12140916  0.98708240  1
  O  O253  1  0.24516689  0.62950075  0.49153547  1
  O  O254  1  0.24099470  0.62487390  0.99818367  1
  O  O255  1  0.74437691  0.13147115  0.48911420  1
  O  O256  1  0.73123846  0.14203169  1.00741434  1
  O  O257  1  0.74732622  0.63369474  0.49557344  1
  O  O258  1  0.74268696  0.63038435  0.99307000  1
  O  O259  1  0.26144189  0.38096289  0.00179862  1
  O  O260  1  0.26092059  0.37703417  0.50794171  1
  O  O261  1  0.26206423  0.88000400  0.00185079  1
  O  O262  1  0.25762337  0.86770287  0.51342347  1
  O  O263  1  0.74324315  0.36634644  0.00652099  1
  O  O264  1  0.76407998  0.36593958  0.49444452  1
  O  O265  1  0.75728012  0.86765804  0.00169977  1
  O  O266  1  0.75398060  0.87111592  0.51191775  1
  O  O267  1  0.13139626  0.49591127  0.24274768  1
  O  O268  1  0.13988739  0.50467835  0.73781496  1
  O  O269  1  0.10850089  1.00967902  0.25550220  1
  O  O270  1  0.12161868  0.98998175  0.75069291  1
  O  O271  1  0.63408871  0.50803667  0.24454292  1
  O  O272  1  0.63394737  0.48966616  0.74855727  1
  O  O273  1  0.62487307  0.99407420  0.24765806  1
  O  O274  1  0.63391888  0.99610375  0.74103238  1
  O  O275  1  0.38983782  0.01706489  0.24470477  1
  O  O276  1  0.38689987  0.01381309  0.75855241  1
  O  O277  1  0.36450865  0.49388256  0.25854189  1
  O  O278  1  0.37108293  0.50306676  0.75029725  1
  O  O279  1  0.86215908  -0.00081196  0.25576137  1
  O  O280  1  0.85896117  0.00004180  0.75216091  1
  O  O281  1  0.86870720  0.50700519  0.25766782  1
  O  O282  1  0.86771256  0.50772906  0.75261873  1
  O  O283  1  0.11856092  0.37484448  0.36513996  1
  O  O284  1  0.14083890  0.37076791  0.88686877  1
  O  O285  1  0.13290879  0.86917590  0.37889655  1
  O  O286  1  0.11995045  0.87488303  0.86781629  1
  O  O287  1  0.63190850  0.36549485  0.37712383  1
  O  O288  1  0.62081203  0.36807375  0.86281137  1
  O  O289  1  0.62963453  0.86656474  0.36734314  1
  O  O290  1  0.61469881  0.86589401  0.87510471  1
  O  O291  1  0.37936740  0.13372711  0.12858086  1
  O  O292  1  0.38193991  0.12593616  0.63108269  1
  O  O293  1  0.37550121  0.63599145  0.12895591  1
  O  O294  1  0.37767288  0.63026371  0.62910251  1
  O  O295  1  0.86609502  0.13990396  0.11566812  1
  O  O296  1  0.87538562  0.13626734  0.61475402  1
  O  O297  1  0.87985260  0.63532877  0.12931641  1
  O  O298  1  0.88234001  0.62922437  0.63232396  1
  O  O299  1  0.26768217  0.25784872  0.12825013  1
  O  O300  1  0.25395960  0.26183998  0.62399972  1
  O  O301  1  0.26256855  0.74992658  0.13216523  1
  O  O302  1  0.25938318  0.75569580  0.62468044  1
  O  O303  1  0.75171067  0.25565547  0.11969975  1
  O  O304  1  0.75665268  0.24445370  0.60724784  1
  O  O305  1  0.75616677  0.74727056  0.11971708  1
  O  O306  1  0.75805128  0.75830872  0.62288023  1
  O  O307  1  0.25049222  0.23234392  0.36428146  1
  O  O308  1  0.25299706  0.24093514  0.87106709  1
  O  O309  1  0.23673455  0.74258784  0.37351389  1
  O  O310  1  0.32143673  0.76210949  0.90850558  1
  O  O311  1  0.74718919  0.24324728  0.37920967  1
  O  O312  1  0.73705371  0.25606063  0.88302156  1
  O  O313  1  0.74146958  0.74627479  0.37985411  1
  O  O314  1  0.74462127  0.74025978  0.87877173  1
  O  O315  1  0.00828460  0.11064625  0.00042234  1
  O  O316  1  0.00971682  0.12785644  0.49131846  1
  O  O317  1  0.00151685  0.62887076  0.01318042  1
  O  O318  1  -0.00243389  0.62748906  0.51692961  1
  O  O319  1  0.50849252  0.12348161  0.00458543  1
  O  O320  1  0.50749142  0.11708655  0.50474341  1
  O  O321  1  0.50032796  0.61326006  -0.00415093  1
  O  O322  1  0.51141516  0.62281206  0.50086488  1
  O  O323  1  0.48545043  0.37660769  0.50015445  1
  O  O324  1  0.49451144  0.38758056  0.99416019  1
  O  O325  1  0.50406603  0.88956131  0.50401128  1
  O  O326  1  0.48661723  0.87454481  0.98590470  1
  O  O327  1  0.99477883  0.36564347  0.48578874  1
  O  O328  1  0.98308482  0.38561180  1.00880599  1
  O  O329  1  0.98902111  0.87092261  0.50478416  1
  O  O330  1  0.99647670  0.87804007  0.99701344  1
  O  O331  1  0.48513742  0.50615036  0.37408902  1
  O  O332  1  0.49757115  0.49368620  0.87950259  1
  O  O333  1  0.50219674  1.00630319  0.38723634  1
  O  O334  1  0.49862206  0.99225913  0.87706441  1
  O  O335  1  0.99017952  0.49303552  0.36788850  1
  O  O336  1  0.99916582  0.49120612  0.86641669  1
  O  O337  1  0.97701206  1.00253137  0.36854655  1
  O  O338  1  1.00183325  0.98462533  0.88830283  1
  O  O339  1  0.00356506  0.00048426  0.12552271  1
  O  O340  1  -0.00035447  0.00582794  0.62698494  1
  O  O341  1  0.00884642  0.51322308  0.13604163  1
  O  O342  1  0.01124664  0.50493228  0.63655056  1
  O  O343  1  0.50232305  0.00389078  0.11513577  1
  O  O344  1  0.51362794  0.00333818  0.62089984  1
  O  O345  1  0.50340176  0.50485134  0.11796391  1
  O  O346  1  0.50842102  0.50061750  0.62008771  1
  O  O347  1  0.24069516  0.38491381  0.24953668  1
  O  O348  1  0.25810359  0.38598189  0.72737689  1
  O  O349  1  0.25530006  0.87707485  0.23741742  1
  O  O350  1  0.23996781  0.86788827  0.74344484  1
  O  O351  1  0.75524916  0.38997092  0.25354127  1
  O  O352  1  0.74722443  0.38621058  0.75694331  1
  O  O353  1  0.73535290  0.88159276  0.24699534  1
  O  O354  1  0.75084114  0.88090186  0.74014194  1
  O  O355  1  0.26701299  0.12867392  0.24713639  1
  O  O356  1  0.26285759  0.12657983  0.75423105  1
  O  O357  1  0.24453637  0.61279745  0.25710053  1
  O  O358  1  0.26310371  0.61633158  0.74199809  1
  O  O359  1  0.75038412  0.11727163  0.25453068  1
  O  O360  1  0.74968352  0.10793979  0.75133175  1
  O  O361  1  0.75700867  0.61910431  0.25787907  1
  O  O362  1  0.75602788  0.62136429  0.75783164  1
  O  O363  1  0.37053364  0.12454011  0.36278647  1
  O  O364  1  0.36979076  0.12301611  0.86660746  1
  O  O365  1  0.36024719  0.61688123  0.37932632  1
  O  O366  1  0.38334309  0.60647678  0.86029876  1
  O  O367  1  0.86244821  0.11664247  0.37105408  1
  O  O368  1  0.86349283  0.12243548  0.89986918  1
  O  O369  1  0.87480377  0.61933539  0.37423267  1
  O  O370  1  0.86744009  0.62436317  0.87227982  1
  O  O371  1  0.12410361  0.38633470  0.13599183  1
  O  O372  1  0.13727264  0.37891379  0.61451323  1
  O  O373  1  0.14811937  0.87032268  0.11894738  1
  O  O374  1  0.13391634  0.87680015  0.63177562  1
  O  O375  1  0.62237462  0.39166755  0.12345511  1
  O  O376  1  0.62749107  0.37000982  0.63665862  1
  O  O377  1  0.62275281  0.88177591  0.12997638  1
  O  O378  1  0.63482522  0.88175021  0.62792710  1
  O  O379  1  0.11742260  0.26014356  0.24625038  1
  O  O380  1  0.12550495  0.25036374  0.73860999  1
  O  O381  1  0.11660525  0.74939867  0.26492418  1
  O  O382  1  0.11618245  0.75441833  0.74552578  1
  O  O383  1  0.61776680  0.24819314  0.25659162  1
  O  O384  1  0.62375253  0.25284238  0.75381110  1
  O  O385  1  0.62023012  0.75700132  0.25849378  1
  O  O386  1  0.61656789  0.74975035  0.75637231  1
  O  O387  1  0.38404347  0.24377412  0.24156699  1
  O  O388  1  0.39269238  0.23874544  0.74618931  1
  O  O389  1  0.38421357  0.75414200  0.24152197  1
  O  O390  1  0.38052146  0.73955795  0.74078290  1
  O  O391  1  0.88023283  0.24590262  0.24177305  1
  O  O392  1  0.85044534  0.23706074  0.72993619  1
  O  O393  1  0.87687948  0.74622144  0.24459344  1
  O  O394  1  0.88406431  0.74446924  0.74470363  1
  O  O395  1  0.37667975  0.48989581  0.48976844  1
  O  O396  1  0.38014144  0.49656822  0.99138603  1
  O  O397  1  0.39496621  0.99921796  0.50300598  1
  O  O398  1  0.38476798  1.00797460  0.98557520  1
  O  O399  1  0.87134165  0.49076012  0.49201206  1
  O  O400  1  0.86490694  0.49138883  1.00672696  1
  O  O401  1  0.86505511  0.99149885  0.48546706  1
  O  O402  1  0.88706361  0.98548942  1.01429061  1
  O  O403  1  0.11848219  0.00863407  0.00298705  1
  O  O404  1  0.12661673  0.01348702  0.48246463  1
  O  O405  1  0.12692936  0.51528521  0.01548955  1
  O  O406  1  0.12534871  0.50077762  0.50984352  1
  O  O407  1  0.61936270  0.00815097  0.00242339  1
  O  O408  1  0.61904896  0.00445959  0.50534410  1
  O  O409  1  0.61695999  0.50462805  0.00482465  1
  O  O410  1  0.62757237  0.50946546  0.49939583  1
  O  O411  1  0.37699639  0.37077440  0.11279468  1
  O  O412  1  0.36634472  0.37138793  0.60892719  1
  O  O413  1  0.36422803  0.86071859  0.11340958  1
  O  O414  1  0.36953399  0.86665896  0.62865839  1
  O  O415  1  0.86624139  0.37088418  0.11770436  1
  O  O416  1  0.88367917  0.36475600  0.61414724  1
  O  O417  1  0.86966408  0.86169206  0.11775137  1
  O  O418  1  0.86945691  0.87176851  0.61935043  1
  O  O419  1  0.14113878  0.12880027  0.38530893  1
  O  O420  1  0.13591724  0.11997991  0.88541662  1
  O  O421  1  0.13505570  0.62319998  0.37633961  1
  O  O422  1  0.12552627  0.62248161  0.88785944  1
  O  O423  1  0.63621776  0.13125255  0.37766489  1
  O  O424  1  0.61844955  0.13480436  0.88300454  1
  O  O425  1  0.63252653  0.63367683  0.38638915  1
  O  O426  1  0.63045967  0.62921286  0.87932726  1
