# generated using pymatgen
data_V85Zn86O256
_symmetry_space_group_name_H-M   'P 1'
_cell_length_a   16.98024809
_cell_length_b   16.94818658
_cell_length_c   16.98013219
_cell_angle_alpha   90.05737849
_cell_angle_beta   89.95583016
_cell_angle_gamma   90.08369527
_symmetry_Int_Tables_number   1
_chemical_formula_structural   V85Zn86O256
_chemical_formula_sum   'V85 Zn86 O256'
_cell_volume   4886.60825877
_cell_formula_units_Z   1
loop_
 _symmetry_equiv_pos_site_id
 _symmetry_equiv_pos_as_xyz
  1  'x, y, z'
loop_
 _atom_site_type_symbol
 _atom_site_label
 _atom_site_symmetry_multiplicity
 _atom_site_fract_x
 _atom_site_fract_y
 _atom_site_fract_z
 _atom_site_occupancy
  V  V0  1  0.50437984  0.37694222  0.37546017  1
  V  V1  1  0.25215842  0.49965585  0.74502555  1
  V  V2  1  0.51729924  0.50255403  0.00259780  1
  V  V3  1  0.37441007  0.62394906  0.24752535  1
  V  V4  1  0.77272220  0.75516711  0.51481579  1
  V  V5  1  0.12036526  0.75136030  0.37393629  1
  V  V6  1  0.12449212  0.37439050  0.25013547  1
  V  V7  1  0.36575847  0.12218129  0.25148008  1
  V  V8  1  0.50473641  -0.00127905  0.49984153  1
  V  V9  1  0.00063721  0.12531616  0.11893623  1
  V  V10  1  0.24368296  0.12245356  0.87498522  1
  V  V11  1  0.24830057  0.37574003  0.12347199  1
  V  V12  1  -0.00353697  0.24284298  0.25258081  1
  V  V13  1  0.62378316  0.12203195  -0.00099398  1
  V  V14  1  0.12569511  0.62301057  0.50997690  1
  V  V15  1  0.24703386  0.75780684  0.50510498  1
  V  V16  1  0.74640014  0.37152399  0.61650440  1
  V  V17  1  0.74886386  0.50357126  0.24952319  1
  V  V18  1  0.36637014  0.00270078  0.36928423  1
  V  V19  1  0.49945174  0.25443517  0.24679429  1
  V  V20  1  0.00454736  0.49689689  0.49856727  1
  V  V21  1  0.60458237  0.87048730  0.75127482  1
  V  V22  1  0.49601984  0.87283306  0.37383109  1
  V  V23  1  -0.01915636  0.00150840  0.49315659  1
  V  V24  1  0.24831866  0.49992260  0.25044334  1
  V  V25  1  0.25351364  0.37540591  0.62583953  1
  V  V26  1  0.75111430  0.24243965  -0.00442516  1
  V  V27  1  0.87242630  0.24429346  0.12864392  1
  V  V28  1  0.37751916  0.63098591  0.75072407  1
  V  V29  1  0.37469358  0.24848582  0.12115816  1
  V  V30  1  0.37479158  0.12315636  0.75047869  1
  V  V31  1  0.24897796  -0.00823590  0.74592554  1
  V  V32  1  0.65285854  0.76822499  0.36027341  1
  V  V33  1  0.62477295  0.50822816  0.62303195  1
  V  V34  1  0.50022395  -0.00539978  -0.00631161  1
  V  V35  1  0.11849810  0.87618827  0.74402807  1
  V  V36  1  0.23871263  0.24798643  -0.00239106  1
  V  V37  1  0.37429163  0.37820275  -0.00313488  1
  V  V38  1  0.00056548  0.37028791  0.37443401  1
  V  V39  1  0.85429908  0.00449662  0.35363234  1
  V  V40  1  -0.00951272  0.87570620  0.87871047  1
  V  V41  1  0.50126346  0.24974744  0.74802942  1
  V  V42  1  0.62385592  0.37752530  0.74750491  1
  V  V43  1  0.37515055  0.50269611  0.37514860  1
  V  V44  1  0.13226530  0.00492207  0.13090085  1
  V  V45  1  -0.00230329  0.64599588  0.62940588  1
  V  V46  1  0.12218999  0.25464019  0.85516807  1
  V  V47  1  0.61840755  0.39023362  0.23844166  1
  V  V48  1  0.37444052  0.74886503  0.12387174  1
  V  V49  1  0.37592333  0.37675996  0.49892538  1
  V  V50  1  0.51732831  0.62250039  0.12389696  1
  V  V51  1  0.50261119  0.50701671  0.49951010  1
  V  V52  1  0.24718796  0.62421743  0.87399478  1
  V  V53  1  -0.00842523  0.62404714  0.12465790  1
  V  V54  1  0.00420926  -0.00263150  0.00172350  1
  V  V55  1  0.24807090  0.62464173  0.37788878  1
  V  V56  1  0.13192840  0.00350100  0.60927679  1
  V  V57  1  0.37808690  0.87327895  -0.00666899  1
  V  V58  1  0.37877441  0.24967752  0.62073650  1
  V  V59  1  0.78079192  0.87450064  0.63484504  1
  V  V60  1  0.87359074  0.49771638  0.37317945  1
  V  V61  1  0.60786814  0.74932261  0.87878591  1
  V  V62  1  0.87641580  0.37286007  -0.00406392  1
  V  V63  1  0.87913745  0.63775610  0.74937952  1
  V  V64  1  0.50007360  0.37705917  0.87365001  1
  V  V65  1  0.07826332  0.44009857  0.68215693  1
  V  V66  1  0.74572965  0.38200463  0.12294412  1
  V  V67  1  0.63244408  -0.01972339  0.12572279  1
  V  V68  1  0.86313751  0.01326426  0.88443424  1
  V  V69  1  0.62833392  0.63785978  0.49952996  1
  V  V70  1  0.12243224  0.50097140  0.12383705  1
  V  V71  1  0.12288680  0.62499174  0.00060001  1
  V  V72  1  0.62907621  0.24471724  0.87143815  1
  V  V73  1  0.13182790  0.23561258  0.37487633  1
  V  V74  1  0.37004146  0.75804646  0.62794725  1
  V  V75  1  0.51032154  0.12123632  0.62444993  1
  V  V76  1  0.25389338  0.23619920  0.49405002  1
  V  V77  1  0.74684986  0.50721188  0.75079407  1
  V  V78  1  0.11707731  0.75500242  0.87209281  1
  V  V79  1  0.87663510  0.50216696  0.87608042  1
  V  V80  1  0.49802550  0.75343551  0.25150505  1
  V  V81  1  0.87183928  0.77072411  0.12330194  1
  V  V82  1  0.50128098  0.63777607  0.62893818  1
  V  V83  1  0.75325060  0.75628648  -0.00337092  1
  V  V84  1  0.24620379  0.75337830  0.00235177  1
  Zn  Zn85  1  0.00071810  0.37046927  0.86184560  1
  Zn  Zn86  1  0.00567955  0.12724740  0.62815097  1
  Zn  Zn87  1  0.12806478  0.87916073  0.25131470  1
  Zn  Zn88  1  0.65628810  0.21247167  0.35406595  1
  Zn  Zn89  1  0.37576797  0.50190536  0.87534556  1
  Zn  Zn90  1  0.68749063  0.92614278  0.29333094  1
  Zn  Zn91  1  0.74360516  0.62561957  0.88403085  1
  Zn  Zn92  1  0.74615869  0.00112516  0.75653249  1
  Zn  Zn93  1  0.89193737  0.24687298  0.62873290  1
  Zn  Zn94  1  -0.00023210  0.75186382  0.24902041  1
  Zn  Zn95  1  0.37191923  0.87736676  0.50315424  1
  Zn  Zn96  1  0.75352284  0.61998103  0.38403844  1
  Zn  Zn97  1  0.87471071  0.36720518  0.49841056  1
  Zn  Zn98  1  0.75022776  0.22508224  0.49522882  1
  Zn  Zn99  1  0.00103232  0.49674655  -0.00255413  1
  Zn  Zn100  1  -0.00850395  0.87621642  0.37550227  1
  Zn  Zn101  1  0.25323055  0.88445814  0.13006667  1
  Zn  Zn102  1  0.87259467  0.13445481  0.75016252  1
  Zn  Zn103  1  0.63209583  -0.00720515  0.62323625  1
  Zn  Zn104  1  0.49860351  0.11966539  0.12289618  1
  Zn  Zn105  1  0.37717226  -0.00566989  0.87266343  1
  Zn  Zn106  1  0.87501912  0.62564217  0.24926890  1
  Zn  Zn107  1  0.18444593  0.18522294  0.18698430  1
  Zn  Zn108  1  0.19046063  0.18439921  0.68213067  1
  Zn  Zn109  1  0.18604741  0.68858571  0.18763905  1
  Zn  Zn110  1  0.18496263  0.68944129  0.68903565  1
  Zn  Zn111  1  0.68445552  0.18884536  0.17924620  1
  Zn  Zn112  1  0.69628500  0.18191779  0.68879916  1
  Zn  Zn113  1  0.69448033  0.70556380  0.19489716  1
  Zn  Zn114  1  0.68868999  0.69659018  0.69440638  1
  Zn  Zn115  1  0.31509825  0.31180353  0.31218328  1
  Zn  Zn116  1  0.31134648  0.31149217  0.81067119  1
  Zn  Zn117  1  0.30792662  0.81517092  0.31202748  1
  Zn  Zn118  1  0.30814293  0.81088740  0.81469152  1
  Zn  Zn119  1  0.81547881  0.19155641  0.31329068  1
  Zn  Zn120  1  0.81103107  0.31163639  0.80737309  1
  Zn  Zn121  1  0.82435096  0.80831356  0.31814434  1
  Zn  Zn122  1  0.81110013  0.81685093  0.81478136  1
  Zn  Zn123  1  0.18542344  0.43415351  0.43962841  1
  Zn  Zn124  1  0.18562242  0.43578841  0.93298390  1
  Zn  Zn125  1  0.19227991  0.93473431  0.43054917  1
  Zn  Zn126  1  0.18362440  0.93930572  0.94105216  1
  Zn  Zn127  1  0.69891400  0.36136596  0.41964531  1
  Zn  Zn128  1  0.69118761  0.43313487  0.93362794  1
  Zn  Zn129  1  0.67748179  1.05936976  0.43484890  1
  Zn  Zn130  1  0.68405458  0.92766708  0.93995217  1
  Zn  Zn131  1  0.31381481  0.06515658  0.05782952  1
  Zn  Zn132  1  0.31900889  0.05763052  0.56336309  1
  Zn  Zn133  1  0.31312880  0.56338946  0.06188255  1
  Zn  Zn134  1  0.31335460  0.56548009  0.56507870  1
  Zn  Zn135  1  0.81334863  0.05756753  0.06321538  1
  Zn  Zn136  1  0.81271883  0.06211590  0.57082845  1
  Zn  Zn137  1  0.80512549  0.56642133  0.05798298  1
  Zn  Zn138  1  0.81646483  0.56230904  0.56393996  1
  Zn  Zn139  1  0.43504160  0.44264181  0.18147958  1
  Zn  Zn140  1  0.43815910  0.44326574  0.68616904  1
  Zn  Zn141  1  0.43976442  0.93612764  0.18216758  1
  Zn  Zn142  1  0.43794448  0.93784000  0.68890235  1
  Zn  Zn143  1  0.93459327  0.43385768  0.18645811  1
  Zn  Zn144  1  0.91723466  0.43868509  0.68786164  1
  Zn  Zn145  1  0.94478702  0.93961769  0.19714169  1
  Zn  Zn146  1  0.95197218  0.97201689  0.70272680  1
  Zn  Zn147  1  0.05637464  0.06225801  0.31182821  1
  Zn  Zn148  1  0.06334029  0.06281364  0.81381196  1
  Zn  Zn149  1  0.06193214  0.56660125  0.31272941  1
  Zn  Zn150  1  0.05604709  0.56826714  0.81706292  1
  Zn  Zn151  1  0.55394343  0.05892432  0.29864338  1
  Zn  Zn152  1  0.56572540  0.05905994  0.81269893  1
  Zn  Zn153  1  0.56722307  0.57184015  0.31444377  1
  Zn  Zn154  1  0.56022715  0.56779655  0.81499001  1
  Zn  Zn155  1  0.48389721  0.16754018  0.41777772  1
  Zn  Zn156  1  0.43821901  0.18612404  0.93538871  1
  Zn  Zn157  1  0.43445639  0.69034314  0.44012008  1
  Zn  Zn158  1  0.43531400  0.68145878  0.94211396  1
  Zn  Zn159  1  0.93180889  0.17736052  0.45175053  1
  Zn  Zn160  1  0.94396618  0.18809850  0.93641834  1
  Zn  Zn161  1  0.94097639  0.68133053  0.43891496  1
  Zn  Zn162  1  0.93410996  0.68900428  0.94177274  1
  Zn  Zn163  1  0.05960592  0.31235099  0.06183923  1
  Zn  Zn164  1  0.06362192  0.30000674  0.55273527  1
  Zn  Zn165  1  0.06027655  0.81618499  0.06505268  1
  Zn  Zn166  1  0.06025784  0.82384235  0.55996588  1
  Zn  Zn167  1  0.56213102  0.31312981  0.05870201  1
  Zn  Zn168  1  0.56978398  0.30701950  0.55541519  1
  Zn  Zn169  1  0.56163626  0.80757903  0.05743662  1
  Zn  Zn170  1  0.56509781  0.81633677  0.55885686  1
  O  O171  1  0.11598414  0.11645939  0.12569562  1
  O  O172  1  0.12820310  0.10630829  0.62847935  1
  O  O173  1  0.11551174  0.62049199  0.11941232  1
  O  O174  1  0.11755596  0.62761961  0.61593507  1
  O  O175  1  0.61893581  0.12732131  0.10753035  1
  O  O176  1  0.61190055  0.11668612  0.63534860  1
  O  O177  1  0.61450872  0.63622731  0.13236401  1
  O  O178  1  0.61717333  0.63074281  0.62332802  1
  O  O179  1  0.38371693  0.38531595  0.37724911  1
  O  O180  1  0.38067060  0.37513773  0.88114697  1
  O  O181  1  0.37892207  0.88492632  0.37432540  1
  O  O182  1  0.36787298  0.87446609  0.88903684  1
  O  O183  1  0.89337184  0.38630744  0.37794892  1
  O  O184  1  0.87678208  0.38157659  0.88017397  1
  O  O185  1  0.87398635  0.89732058  0.36651561  1
  O  O186  1  0.88917927  0.87313864  0.87894911  1
  O  O187  1  0.26733822  -0.00016025  0.37327096  1
  O  O188  1  0.25020161  0.00914411  0.87012862  1
  O  O189  1  0.25397972  0.50456204  0.37128152  1
  O  O190  1  0.25040961  0.50248571  0.86096857  1
  O  O191  1  0.74873397  -0.00419823  0.36417065  1
  O  O192  1  0.76235140  -0.00230938  0.89214258  1
  O  O193  1  0.76130661  0.49650305  0.36506097  1
  O  O194  1  0.75529945  0.50325053  0.86741454  1
  O  O195  1  0.24296153  0.49577281  0.12951302  1
  O  O196  1  0.25363105  0.49473118  0.63621181  1
  O  O197  1  0.23520865  1.00566465  0.11698817  1
  O  O198  1  0.24504095  1.00076943  0.63429089  1
  O  O199  1  0.75846844  0.48801018  0.12905893  1
  O  O200  1  0.74371794  0.49821637  0.63387439  1
  O  O201  1  0.73049496  1.00252948  0.11875126  1
  O  O202  1  0.74965921  0.97874290  0.62820092  1
  O  O203  1  0.00433932  0.36480998  0.25469190  1
  O  O204  1  0.01146354  0.38917632  0.74005762  1
  O  O205  1  0.01000425  0.86997364  0.25783061  1
  O  O206  1  0.01365343  0.88572175  0.76305912  1
  O  O207  1  0.50048566  0.37640129  0.25086805  1
  O  O208  1  0.50472073  0.37164226  0.75245193  1
  O  O209  1  0.49391010  0.86270426  0.25578332  1
  O  O210  1  0.50584767  0.87515844  0.75664211  1
  O  O211  1  0.49015653  0.13966662  0.24106299  1
  O  O212  1  0.49268265  0.12848021  0.74617625  1
  O  O213  1  0.48904108  0.62602990  0.24315857  1
  O  O214  1  0.48781744  0.62226609  0.74161646  1
  O  O215  1  1.00324803  0.13815937  0.23878677  1
  O  O216  1  0.98481176  0.08459866  0.73884671  1
  O  O217  1  0.99797366  0.62658653  0.23850940  1
  O  O218  1  0.99282620  0.62239097  0.73983954  1
  O  O219  1  0.36977922  0.26034611  0.00331249  1
  O  O220  1  0.36915273  0.26263570  0.50610940  1
  O  O221  1  0.36622351  0.75403444  0.00342912  1
  O  O222  1  0.36370383  0.74831723  0.51059198  1
  O  O223  1  0.86787091  0.25503623  0.00157047  1
  O  O224  1  0.86891193  0.25190116  0.50978946  1
  O  O225  1  0.86793815  0.75103647  0.01343000  1
  O  O226  1  0.87044046  0.73995427  0.50853394  1
  O  O227  1  0.14213444  0.25498126  0.48509430  1
  O  O228  1  0.13724790  0.25404842  0.99884827  1
  O  O229  1  0.13033041  0.74291601  0.49690439  1
  O  O230  1  0.13063800  0.74589178  0.99699785  1
  O  O231  1  0.63579112  0.27147564  0.47442818  1
  O  O232  1  0.63007455  0.24480429  0.99127213  1
  O  O233  1  0.63369634  0.74722378  0.49336166  1
  O  O234  1  0.63341618  0.75356010  0.98523217  1
  O  O235  1  0.48578121  0.25561088  0.12662309  1
  O  O236  1  0.49925114  0.24258954  0.62726514  1
  O  O237  1  0.49359647  0.74352566  0.13157068  1
  O  O238  1  0.48995825  0.74153025  0.61937070  1
  O  O239  1  0.99256213  0.24574110  0.13055308  1
  O  O240  1  1.00844819  0.24227728  0.62475044  1
  O  O241  1  0.98728044  0.74333955  0.12189416  1
  O  O242  1  1.00391387  0.74442027  0.62169187  1
  O  O243  1  0.00635595  0.25438335  0.36940437  1
  O  O244  1  0.01761564  0.25043277  0.87416457  1
  O  O245  1  0.00745096  0.74976132  0.37665703  1
  O  O246  1  0.01148799  0.75672761  0.88409789  1
  O  O247  1  0.48892047  0.26631141  0.35997204  1
  O  O248  1  0.50866455  0.25634438  0.86908253  1
  O  O249  1  0.49082398  0.76107681  0.36842647  1
  O  O250  1  0.50925618  0.74772050  0.88455671  1
  O  O251  1  0.26190115  0.13817340  0.50424554  1
  O  O252  1  0.25922669  0.13685791  0.98565620  1
  O  O253  1  0.24128198  0.62787865  0.49739270  1
  O  O254  1  0.24409305  0.63022079  0.99238395  1
  O  O255  1  0.73554866  0.11513130  0.51106655  1
  O  O256  1  0.74338937  0.13806912  1.00360274  1
  O  O257  1  0.74318616  0.63420287  0.50913712  1
  O  O258  1  0.74936809  0.64198696  0.99917247  1
  O  O259  1  0.25698284  0.36928950  0.00248273  1
  O  O260  1  0.25744559  0.37765049  0.51187554  1
  O  O261  1  0.25392594  0.86698407  0.00500461  1
  O  O262  1  0.25282685  0.86067618  0.49827440  1
  O  O263  1  0.75899370  0.36744867  0.00386565  1
  O  O264  1  0.75129629  0.39663988  0.51564704  1
  O  O265  1  0.74748829  0.85706106  0.00424531  1
  O  O266  1  0.76172458  0.85792758  0.52267416  1
  O  O267  1  0.13006117  0.49510501  0.24554134  1
  O  O268  1  0.13050466  0.50247153  0.74635691  1
  O  O269  1  0.12121134  1.00341151  0.23447880  1
  O  O270  1  0.13446746  0.99249705  0.74483655  1
  O  O271  1  0.62917193  0.49724318  0.24835486  1
  O  O272  1  0.62996498  0.50030594  0.74507787  1
  O  O273  1  0.61804529  0.99342422  0.23190125  1
  O  O274  1  0.62663137  0.98248772  0.75377519  1
  O  O275  1  0.38332597  0.00780400  0.25832477  1
  O  O276  1  0.36831442  0.00627506  0.75264407  1
  O  O277  1  0.36689201  0.50490427  0.25393316  1
  O  O278  1  0.36755060  0.51219049  0.75070008  1
  O  O279  1  0.86976647  0.00689209  0.25517636  1
  O  O280  1  0.86592938  -0.01106988  0.78137709  1
  O  O281  1  0.86728799  0.49746934  0.25656914  1
  O  O282  1  0.86466734  0.50640650  0.76150114  1
  O  O283  1  0.11589922  0.37131933  0.36784428  1
  O  O284  1  0.12358287  0.35952792  0.87425253  1
  O  O285  1  0.12881549  0.85900583  0.37512554  1
  O  O286  1  0.11940843  0.86968986  0.87028729  1
  O  O287  1  0.60777437  0.39011016  0.35721474  1
  O  O288  1  0.61879195  0.36846130  0.86643554  1
  O  O289  1  0.61281355  0.86373170  0.37700602  1
  O  O290  1  0.62795481  0.86113787  0.86398357  1
  O  O291  1  0.37682103  0.13401548  0.12800534  1
  O  O292  1  0.38066871  0.12965479  0.63746321  1
  O  O293  1  0.37790174  0.63124811  0.13067899  1
  O  O294  1  0.38153230  0.63325324  0.63268460  1
  O  O295  1  0.87870929  0.13845901  0.11955135  1
  O  O296  1  0.88435154  0.12406762  0.62899410  1
  O  O297  1  0.88706475  0.61854645  0.12365050  1
  O  O298  1  0.88864445  0.61597704  0.63700235  1
  O  O299  1  0.25778062  0.25379859  0.11623327  1
  O  O300  1  0.25682276  0.25812749  0.61773067  1
  O  O301  1  0.25404371  0.74313575  0.11130331  1
  O  O302  1  0.25771028  0.74111120  0.61612540  1
  O  O303  1  0.75524378  0.26019877  0.11577437  1
  O  O304  1  0.73344291  0.26888641  0.62041698  1
  O  O305  1  0.76650383  0.74764906  0.11740271  1
  O  O306  1  0.75487639  0.75805388  0.62318432  1
  O  O307  1  0.24463046  0.25696314  0.38293151  1
  O  O308  1  0.24099491  0.24630353  0.87894785  1
  O  O309  1  0.24460640  0.74006990  0.38563244  1
  O  O310  1  0.23902046  0.74588223  0.88678119  1
  O  O311  1  0.75656445  0.26777943  0.38181066  1
  O  O312  1  0.73622238  0.26062350  0.88272789  1
  O  O313  1  0.75824347  0.74392841  0.39889161  1
  O  O314  1  0.75296450  0.74856430  0.88813780  1
  O  O315  1  -0.00115704  0.12131855  0.01320428  1
  O  O316  1  0.00501360  0.10471132  0.50147830  1
  O  O317  1  0.00656625  0.62129750  0.00680960  1
  O  O318  1  0.00621364  0.61580485  0.51208535  1
  O  O319  1  0.50589066  0.11850150  0.00110641  1
  O  O320  1  0.48907488  0.11323257  0.51609481  1
  O  O321  1  0.49631901  0.61342236  0.01094564  1
  O  O322  1  0.50729267  0.62815897  0.50713509  1
  O  O323  1  0.49597502  0.38340422  0.49018109  1
  O  O324  1  0.49203380  0.38191537  0.99463230  1
  O  O325  1  0.49214170  0.87789776  0.49134480  1
  O  O326  1  0.49008690  0.88108300  1.00267332  1
  O  O327  1  1.00444722  0.38118016  0.49039060  1
  O  O328  1  0.98471198  0.37450880  0.99993748  1
  O  O329  1  1.00932025  0.89554671  0.48998298  1
  O  O330  1  1.00588724  0.88520246  0.99131290  1
  O  O331  1  0.49430094  0.50045466  0.38057962  1
  O  O332  1  0.49726861  0.49570261  0.88299605  1
  O  O333  1  0.49362597  0.98588051  0.37815747  1
  O  O334  1  0.49643704  1.00491811  0.88908024  1
  O  O335  1  0.99856615  0.49448430  0.38152749  1
  O  O336  1  0.99113333  0.49299637  0.87655518  1
  O  O337  1  0.99231825  1.00117921  0.38194517  1
  O  O338  1  0.99635243  0.99401902  0.88720898  1
  O  O339  1  0.00442906  0.00864324  0.12136855  1
  O  O340  1  0.01923129  -0.00485525  0.60599554  1
  O  O341  1  0.00600500  0.50421090  0.12273090  1
  O  O342  1  0.00939306  0.49183211  0.62184882  1
  O  O343  1  0.51053107  -0.00024085  0.11240449  1
  O  O344  1  0.49635187  0.00550028  0.61700986  1
  O  O345  1  0.49885144  0.50959525  0.11475069  1
  O  O346  1  0.50401590  0.51431015  0.61892501  1
  O  O347  1  0.24586337  0.38008042  0.24270246  1
  O  O348  1  0.25754080  0.38241396  0.73580154  1
  O  O349  1  0.24095798  0.86364537  0.23995031  1
  O  O350  1  0.24237231  0.88738040  0.75851949  1
  O  O351  1  0.73405145  0.38922589  0.23810153  1
  O  O352  1  0.74221480  0.38876831  0.73979395  1
  O  O353  1  0.71829842  0.81732521  0.27567503  1
  O  O354  1  0.74624597  0.87260262  0.73905374  1
  O  O355  1  0.26717139  0.13623023  0.24787379  1
  O  O356  1  0.25750538  0.11675733  0.75513942  1
  O  O357  1  0.25516007  0.61949864  0.25639274  1
  O  O358  1  0.25373399  0.61765515  0.75434225  1
  O  O359  1  0.71889598  0.14834961  0.27388210  1
  O  O360  1  0.75598238  0.11435658  0.74971393  1
  O  O361  1  0.75071930  0.61278037  0.24999157  1
  O  O362  1  0.75619759  0.61654957  0.75002371  1
  O  O363  1  0.38835833  0.11032319  0.36541683  1
  O  O364  1  0.36645023  0.12817018  0.86220282  1
  O  O365  1  0.36880938  0.62037146  0.36958147  1
  O  O366  1  0.36625270  0.62458142  0.86754796  1
  O  O367  1  0.87290996  0.11018514  0.37453519  1
  O  O368  1  0.87668631  0.11493923  0.87858552  1
  O  O369  1  0.87621771  0.61026204  0.37243095  1
  O  O370  1  0.87679133  0.61601085  0.86955963  1
  O  O371  1  0.12959716  0.37988729  0.12921725  1
  O  O372  1  0.13436796  0.37759489  0.62254458  1
  O  O373  1  0.12471199  0.89286181  0.12402279  1
  O  O374  1  0.12648477  0.88437569  0.63610130  1
  O  O375  1  0.63267936  0.37390093  0.12709744  1
  O  O376  1  0.62861340  0.38703507  0.62885860  1
  O  O377  1  0.62559874  0.88098777  0.12064425  1
  O  O378  1  0.61772335  0.87217033  0.64319406  1
  O  O379  1  0.11930306  0.25739682  0.25409957  1
  O  O380  1  0.13349654  0.25165200  0.75738576  1
  O  O381  1  0.12111592  0.74079360  0.26396502  1
  O  O382  1  0.13212871  0.76159977  0.76162919  1
  O  O383  1  0.60687961  0.26860901  0.24493753  1
  O  O384  1  0.62017275  0.25412198  0.75573697  1
  O  O385  1  0.60228330  0.72951221  0.26408906  1
  O  O386  1  0.62313065  0.76143037  0.76267608  1
  O  O387  1  0.38143050  0.24960959  0.23902654  1
  O  O388  1  0.38185006  0.24396286  0.74277800  1
  O  O389  1  0.38108550  0.74238478  0.24527131  1
  O  O390  1  0.36440973  0.73889763  0.74417555  1
  O  O391  1  0.88457692  0.25224806  0.24018708  1
  O  O392  1  0.87341357  0.25088796  0.74301155  1
  O  O393  1  0.87750353  0.74514636  0.23509637  1
  O  O394  1  0.87184312  0.73613094  0.75769031  1
  O  O395  1  0.38226385  0.49829919  0.49617659  1
  O  O396  1  0.37570477  0.48730545  0.99830767  1
  O  O397  1  0.38221250  0.99679909  0.48713257  1
  O  O398  1  0.38200518  0.99115462  0.99959694  1
  O  O399  1  0.88934039  0.49836604  0.49351973  1
  O  O400  1  0.87174880  0.49222182  0.98866068  1
  O  O401  1  0.88071349  0.99913214  0.49433405  1
  O  O402  1  0.88798416  1.00307050  0.99403360  1
  O  O403  1  0.11264178  0.00275883  0.01005071  1
  O  O404  1  0.14335925  -0.00088866  0.51047561  1
  O  O405  1  0.12503211  0.50577220  0.00439334  1
  O  O406  1  0.11431253  0.50871197  0.49545119  1
  O  O407  1  0.61889348  0.00414195  0.00411605  1
  O  O408  1  0.60732795  -0.00936105  0.50349993  1
  O  O409  1  0.61614710  0.49395135  -0.00436884  1
  O  O410  1  0.61728938  0.52276053  0.50862861  1
  O  O411  1  0.36698676  0.36969130  0.11664624  1
  O  O412  1  0.37175492  0.37141552  0.61997758  1
  O  O413  1  0.37281205  0.86631811  0.11415575  1
  O  O414  1  0.37663513  0.86129164  0.62730611  1
  O  O415  1  0.86778798  0.36420401  0.11693292  1
  O  O416  1  0.85625947  0.37447837  0.62080813  1
  O  O417  1  0.87829162  0.86848741  0.12976986  1
  O  O418  1  0.87728592  0.88499861  0.64365245  1
  O  O419  1  0.12626678  0.13725292  0.36495681  1
  O  O420  1  0.13613916  0.13664449  0.86904489  1
  O  O421  1  0.12741866  0.63190774  0.38818432  1
  O  O422  1  0.12793025  0.63401690  0.87971930  1
  O  O423  1  0.59049393  0.12265254  0.38463663  1
  O  O424  1  0.62018159  0.13402496  0.88560107  1
  O  O425  1  0.63317095  0.63898705  0.38506634  1
  O  O426  1  0.62765277  0.64459436  0.86498118  1
