# generated using pymatgen
data_V85Zn86O256
_symmetry_space_group_name_H-M   'P 1'
_cell_length_a   16.95114507
_cell_length_b   16.95141794
_cell_length_c   16.94381806
_cell_angle_alpha   89.96404032
_cell_angle_beta   90.04291561
_cell_angle_gamma   89.98279980
_symmetry_Int_Tables_number   1
_chemical_formula_structural   V85Zn86O256
_chemical_formula_sum   'V85 Zn86 O256'
_cell_volume   4868.73486023
_cell_formula_units_Z   1
loop_
 _symmetry_equiv_pos_site_id
 _symmetry_equiv_pos_as_xyz
  1  'x, y, z'
loop_
 _atom_site_type_symbol
 _atom_site_label
 _atom_site_symmetry_multiplicity
 _atom_site_fract_x
 _atom_site_fract_y
 _atom_site_fract_z
 _atom_site_occupancy
  V  V0  1  0.37818682  0.87766654  -0.00092742  1
  V  V1  1  0.00699713  0.49649209  0.50423387  1
  V  V2  1  0.12176854  0.87959937  0.75865035  1
  V  V3  1  0.61173603  0.36964882  0.25787111  1
  V  V4  1  0.37302875  0.63398112  0.74756151  1
  V  V5  1  0.87763359  0.87100187  0.48526733  1
  V  V6  1  0.74991675  0.62289630  0.87522823  1
  V  V7  1  0.74620974  0.14579740  0.87741646  1
  V  V8  1  0.62409159  0.37277960  0.75394861  1
  V  V9  1  0.75178939  0.37137927  0.12070907  1
  V  V10  1  0.87508779  0.75038070  0.62490478  1
  V  V11  1  0.12442056  0.11500571  0.00382689  1
  V  V12  1  -0.00310193  0.24876082  0.75368317  1
  V  V13  1  0.37791744  0.24565231  0.13104036  1
  V  V14  1  0.24937952  0.25091453  -0.00094140  1
  V  V15  1  0.12062558  0.37832699  0.75331096  1
  V  V16  1  0.24789669  -0.00410406  0.75241064  1
  V  V17  1  0.61583348  0.61937732  -0.00344209  1
  V  V18  1  0.62491427  0.76488573  0.37023460  1
  V  V19  1  0.00061150  0.24727836  0.24591499  1
  V  V20  1  0.00188642  0.11884387  0.62585883  1
  V  V21  1  0.74719385  0.62525353  0.37291269  1
  V  V22  1  0.00035658  0.49164157  -0.00549556  1
  V  V23  1  0.82500479  0.19155620  0.18115725  1
  V  V24  1  0.37912074  0.38136026  -0.00069025  1
  V  V25  1  0.17602555  -0.05300276  0.57568292  1
  V  V26  1  0.87295095  0.62397603  0.24521621  1
  V  V27  1  0.49787032  0.12395123  0.12776265  1
  V  V28  1  0.87123378  0.24622584  0.62360078  1
  V  V29  1  0.00392062  0.62031693  0.62743381  1
  V  V30  1  0.75416843  0.75402331  -0.00108701  1
  V  V31  1  -0.00190807  0.62134171  0.12300958  1
  V  V32  1  0.87054149  0.01758953  0.36905495  1
  V  V33  1  0.24985778  0.62846988  0.37577932  1
  V  V34  1  0.37406168  0.24676906  0.63006217  1
  V  V35  1  0.25028128  0.12491631  0.87546666  1
  V  V36  1  0.62405839  0.75052321  0.87125257  1
  V  V37  1  -0.00140993  0.87374929  0.88875853  1
  V  V38  1  0.75657378  0.87759116  0.12648949  1
  V  V39  1  0.12797085  0.12697611  0.50235777  1
  V  V40  1  0.12889842  0.62483738  0.50274537  1
  V  V41  1  0.11745751  0.75190441  0.37344562  1
  V  V42  1  0.50182198  0.25078447  0.75794025  1
  V  V43  1  0.12949861  0.25023900  0.37337304  1
  V  V44  1  0.24855243  0.24962847  0.50439256  1
  V  V45  1  0.74694600  0.49758813  0.24671725  1
  V  V46  1  0.12522007  0.50082178  0.12202215  1
  V  V47  1  0.50459156  -0.01206020  0.49732342  1
  V  V48  1  0.25061063  0.49850782  0.24971974  1
  V  V49  1  0.38048863  0.62451546  0.24991961  1
  V  V50  1  0.49943081  0.49873566  0.49245432  1
  V  V51  1  0.24268786  0.63012782  0.87413975  1
  V  V52  1  0.75398989  0.88572138  0.62979031  1
  V  V53  1  0.25069728  0.37522215  0.12343542  1
  V  V54  1  0.12525316  0.37717024  0.25076522  1
  V  V55  1  0.87597008  0.50088549  0.37615897  1
  V  V56  1  0.37994594  -0.02013854  0.37380429  1
  V  V57  1  0.51169990  0.12794243  0.62135545  1
  V  V58  1  0.26741791  0.12896377  0.37345930  1
  V  V59  1  0.24368825  0.37768454  0.62909489  1
  V  V60  1  0.23741230  0.75329883  -0.00166901  1
  V  V61  1  0.61580647  0.49644738  0.11900072  1
  V  V62  1  0.37551857  0.75055334  0.12320070  1
  V  V63  1  0.61577585  -0.00923752  0.11908944  1
  V  V64  1  0.86061069  -0.00997088  0.87510465  1
  V  V65  1  0.11877814  0.25196190  0.87767490  1
  V  V66  1  0.87422047  0.36227199  0.00163650  1
  V  V67  1  0.50174615  0.87789030  0.87538687  1
  V  V68  1  0.00363077  0.75068152  0.75733378  1
  V  V69  1  -0.00431631  -0.00362458  0.49605699  1
  V  V70  1  0.24930280  0.50327764  0.74563915  1
  V  V71  1  0.00433803  0.11955703  0.12835128  1
  V  V72  1  0.38325389  0.00339285  0.87650734  1
  V  V73  1  0.24731832  0.88277939  0.12975528  1
  V  V74  1  0.62662990  0.62475590  0.49663281  1
  V  V75  1  0.75044866  0.49917648  0.74985454  1
  V  V76  1  0.37907066  0.38109987  0.50233689  1
  V  V77  1  0.62351919  0.13862830  0.00000724  1
  V  V78  1  0.62473424  0.50068035  0.62480346  1
  V  V79  1  0.74102953  0.24444481  0.48558774  1
  V  V80  1  0.50458403  0.76519553  0.25013225  1
  V  V81  1  0.50294121  0.38344580  0.87890034  1
  V  V82  1  0.87749121  0.49229886  0.87440868  1
  V  V83  1  0.49651746  0.63239258  0.62345677  1
  V  V84  1  0.87425941  0.37372466  0.50044211  1
  Zn  Zn85  1  0.11557719  0.88138841  0.24670123  1
  Zn  Zn86  1  0.49826347  0.75330573  0.74634130  1
  Zn  Zn87  1  0.75031547  0.74973959  0.49847104  1
  Zn  Zn88  1  0.87466293  0.75189137  0.11969889  1
  Zn  Zn89  1  0.74698618  0.37235418  0.62352422  1
  Zn  Zn90  1  0.37837730  0.12382034  0.75128573  1
  Zn  Zn91  1  -0.00506593  0.75311433  0.25215989  1
  Zn  Zn92  1  0.49751476  0.62227000  0.11934165  1
  Zn  Zn93  1  0.63436273  0.88507592  0.75434558  1
  Zn  Zn94  1  0.25127552  0.01010498  0.24651246  1
  Zn  Zn95  1  0.74925422  -0.00179970  0.25377624  1
  Zn  Zn96  1  0.63240278  0.00851003  0.62457425  1
  Zn  Zn97  1  0.12004748  0.62987070  -0.00421729  1
  Zn  Zn98  1  0.86315314  0.11680190  0.74852526  1
  Zn  Zn99  1  0.37560711  0.50463236  0.87814292  1
  Zn  Zn100  1  0.32820384  0.82587815  0.57263921  1
  Zn  Zn101  1  -0.00517136  -0.00304878  0.00341445  1
  Zn  Zn102  1  0.53186084  0.21840318  0.30932122  1
  Zn  Zn103  1  0.62633751  0.12378157  0.45917782  1
  Zn  Zn104  1  0.37775693  0.50150229  0.37659540  1
  Zn  Zn105  1  0.00253042  0.37430748  0.37430996  1
  Zn  Zn106  1  0.87725794  0.62212481  0.75058474  1
  Zn  Zn107  1  0.18875749  0.18761436  0.18810063  1
  Zn  Zn108  1  0.18541978  0.18383063  0.69113396  1
  Zn  Zn109  1  0.18723886  0.68899525  0.18661267  1
  Zn  Zn110  1  0.18597250  0.69797048  0.68588472  1
  Zn  Zn111  1  0.65464493  0.15529751  0.22992408  1
  Zn  Zn112  1  0.68959459  0.19040690  0.69239590  1
  Zn  Zn113  1  0.68427239  0.68755783  0.18347388  1
  Zn  Zn114  1  0.68944097  0.68836841  0.68811461  1
  Zn  Zn115  1  0.35575013  0.29361477  0.33406241  1
  Zn  Zn116  1  0.31295993  0.31400311  0.81547544  1
  Zn  Zn117  1  0.31056084  0.80642508  0.31298165  1
  Zn  Zn118  1  0.30998582  0.81350499  0.81169671  1
  Zn  Zn119  1  0.80977743  0.31913561  0.31312687  1
  Zn  Zn120  1  0.81400824  0.31410092  0.81089627  1
  Zn  Zn121  1  0.80879888  0.81037502  0.30610756  1
  Zn  Zn122  1  0.81669740  0.81053311  0.81187993  1
  Zn  Zn123  1  0.19178801  0.43870700  0.43808049  1
  Zn  Zn124  1  0.18824944  0.43864584  0.93358856  1
  Zn  Zn125  1  0.17535956  0.95282274  0.39960594  1
  Zn  Zn126  1  0.18799148  0.93503257  0.93645106  1
  Zn  Zn127  1  0.68898653  0.43514949  0.43696211  1
  Zn  Zn128  1  0.68928588  0.43301818  0.93824342  1
  Zn  Zn129  1  0.69399437  0.93934360  0.44240990  1
  Zn  Zn130  1  0.68352648  0.93894566  0.94489810  1
  Zn  Zn131  1  0.31399688  0.06173615  0.05916016  1
  Zn  Zn132  1  0.34123805  0.02751415  0.58247417  1
  Zn  Zn133  1  0.31119412  0.56563353  0.06082431  1
  Zn  Zn134  1  0.31265579  0.66495782  0.56019911  1
  Zn  Zn135  1  0.80813921  0.05708588  0.05218860  1
  Zn  Zn136  1  0.81287126  0.06674664  0.55365432  1
  Zn  Zn137  1  0.80773523  0.55761953  0.05809245  1
  Zn  Zn138  1  0.81396922  0.56317045  0.56293749  1
  Zn  Zn139  1  0.43618968  0.43753829  0.18537138  1
  Zn  Zn140  1  0.43481139  0.44384538  0.68603058  1
  Zn  Zn141  1  0.43305298  0.94164835  0.18686590  1
  Zn  Zn142  1  0.44721864  0.93959249  0.69042997  1
  Zn  Zn143  1  0.93646196  0.43533677  0.18552857  1
  Zn  Zn144  1  0.93841041  0.43445930  0.68621804  1
  Zn  Zn145  1  0.93523246  0.93761567  0.18800698  1
  Zn  Zn146  1  0.93554603  0.93804923  0.69111817  1
  Zn  Zn147  1  0.06306409  0.06412331  0.31477916  1
  Zn  Zn148  1  0.05812190  0.06022037  0.81584186  1
  Zn  Zn149  1  0.06064845  0.56349210  0.31327159  1
  Zn  Zn150  1  0.06265282  0.56149684  0.81443936  1
  Zn  Zn151  1  0.55573259  0.04160619  0.30418597  1
  Zn  Zn152  1  0.57114203  0.06375584  0.81029379  1
  Zn  Zn153  1  0.56391232  0.56081762  0.30938721  1
  Zn  Zn154  1  0.56002457  0.56204723  0.81047964  1
  Zn  Zn155  1  0.43829776  0.18667822  0.45129274  1
  Zn  Zn156  1  0.44065463  0.19071232  0.94216542  1
  Zn  Zn157  1  0.44071206  0.69592939  0.43513080  1
  Zn  Zn158  1  0.43305013  0.69166175  0.93352272  1
  Zn  Zn159  1  0.94127770  0.18998773  0.43660522  1
  Zn  Zn160  1  0.93498489  0.17845820  0.93675386  1
  Zn  Zn161  1  0.93882953  0.68399201  0.43783203  1
  Zn  Zn162  1  0.93669497  0.68208347  0.93634676  1
  Zn  Zn163  1  0.06010185  0.30949866  0.06439414  1
  Zn  Zn164  1  0.06134410  0.31030989  0.56657255  1
  Zn  Zn165  1  0.05321317  0.82121897  0.08438554  1
  Zn  Zn166  1  0.05876905  0.80539565  0.55912574  1
  Zn  Zn167  1  0.56125254  0.31179679  0.06587863  1
  Zn  Zn168  1  0.56316290  0.31215363  0.56321067  1
  Zn  Zn169  1  0.56290076  0.80960145  0.05915291  1
  Zn  Zn170  1  0.56957504  0.81031307  0.56130208  1
  O  O171  1  0.11799914  0.12895559  0.11605775  1
  O  O172  1  0.11248010  0.13451700  0.61654294  1
  O  O173  1  0.11679277  0.61744071  0.12221492  1
  O  O174  1  0.11224798  0.62979730  0.61707557  1
  O  O175  1  0.61639896  0.11923266  0.11711418  1
  O  O176  1  0.61619244  0.13108909  0.62744466  1
  O  O177  1  0.62369899  0.61512991  0.11415401  1
  O  O178  1  0.62207286  0.61840421  0.61923611  1
  O  O179  1  0.35515736  0.38755147  0.39977800  1
  O  O180  1  0.38200172  0.37786718  0.88286712  1
  O  O181  1  0.36489404  0.88222027  0.38047706  1
  O  O182  1  0.38089138  0.88144424  0.87984016  1
  O  O183  1  0.87766776  0.38052891  0.38676133  1
  O  O184  1  0.86843809  0.38542149  0.88364114  1
  O  O185  1  0.87286751  0.87025987  0.38352074  1
  O  O186  1  0.88171895  0.88294021  0.87320393  1
  O  O187  1  0.27024783  0.01519108  0.38476282  1
  O  O188  1  0.25749526  0.00470323  0.86932251  1
  O  O189  1  0.24815361  0.51130239  0.36443476  1
  O  O190  1  0.25151065  0.50836412  0.86506822  1
  O  O191  1  0.76493862  -0.00045535  0.37365715  1
  O  O192  1  0.75913249  -0.00600451  0.87638001  1
  O  O193  1  0.75644912  0.50539498  0.36873984  1
  O  O194  1  0.75590839  0.50272724  0.86910382  1
  O  O195  1  0.24468447  0.49772729  0.13048161  1
  O  O196  1  0.24568336  0.48920053  0.64257099  1
  O  O197  1  0.26046470  0.98804242  0.12975522  1
  O  O198  1  0.23375971  1.01293906  0.63220889  1
  O  O199  1  0.73979550  0.49057700  0.12782235  1
  O  O200  1  0.74008789  0.49960026  0.62943267  1
  O  O201  1  0.74431383  0.98712998  0.12144611  1
  O  O202  1  0.75525638  0.98878223  0.61852199  1
  O  O203  1  0.00599470  0.36809313  0.24994206  1
  O  O204  1  0.00784122  0.35995326  0.74241234  1
  O  O205  1  0.01192296  0.85719788  0.20424586  1
  O  O206  1  0.00516128  0.86917504  0.75841340  1
  O  O207  1  0.51189609  0.38190906  0.24960394  1
  O  O208  1  0.50507758  0.37239789  0.75443846  1
  O  O209  1  0.49763910  0.86325786  0.24578265  1
  O  O210  1  0.50105891  0.87083563  0.76291875  1
  O  O211  1  0.49885185  0.12602201  0.23144049  1
  O  O212  1  0.50004414  0.13697919  0.74557496  1
  O  O213  1  0.48778295  0.62413282  0.24690421  1
  O  O214  1  0.49105933  0.62638656  0.74298339  1
  O  O215  1  1.00703731  0.13339681  0.24219112  1
  O  O216  1  1.00003150  0.13345747  0.74190254  1
  O  O217  1  0.98968911  0.62197009  0.23991551  1
  O  O218  1  1.00160533  0.63125249  0.74438399  1
  O  O219  1  0.36726954  0.26118741  0.00486997  1
  O  O220  1  0.36785056  0.25873843  0.51776325  1
  O  O221  1  0.36747537  0.76099422  0.00320135  1
  O  O222  1  0.37442134  0.74520198  0.50618466  1
  O  O223  1  0.88495591  0.26392974  -0.00539240  1
  O  O224  1  0.86952595  0.25529900  0.50494481  1
  O  O225  1  0.85745178  0.73804533  0.00028735  1
  O  O226  1  0.87802250  0.75543572  0.50660306  1
  O  O227  1  0.13054052  0.24958422  0.49373602  1
  O  O228  1  0.12890906  0.24531774  0.99322843  1
  O  O229  1  0.11695801  0.73471246  0.48835677  1
  O  O230  1  0.13623811  0.75170580  1.01016045  1
  O  O231  1  0.63834668  0.25414510  0.49852412  1
  O  O232  1  0.62721845  0.23758242  1.00669240  1
  O  O233  1  0.62703468  0.74178969  0.48743803  1
  O  O234  1  0.63223473  0.74194457  0.98855145  1
  O  O235  1  0.48453846  0.24416044  0.12042729  1
  O  O236  1  0.49246529  0.24725342  0.63309659  1
  O  O237  1  0.49611223  0.74685726  0.13439147  1
  O  O238  1  0.51101277  0.73675775  0.62812969  1
  O  O239  1  1.00233332  0.24176913  0.13831449  1
  O  O240  1  0.98800940  0.24049800  0.62852487  1
  O  O241  1  0.99262371  0.72762161  0.11357032  1
  O  O242  1  0.99077252  0.74275918  0.63160402  1
  O  O243  1  0.00720778  0.25159120  0.36330488  1
  O  O244  1  0.00574101  0.24186966  0.86438720  1
  O  O245  1  0.01191697  0.73957298  0.36906658  1
  O  O246  1  -0.00833149  0.75721383  0.86769943  1
  O  O247  1  0.46004862  0.26635437  0.37555140  1
  O  O248  1  0.49284842  0.26091119  0.86208870  1
  O  O249  1  0.50945019  0.74653152  0.35849443  1
  O  O250  1  0.50840976  0.75735766  0.87198262  1
  O  O251  1  0.24510898  0.13466105  0.49075281  1
  O  O252  1  0.24260316  0.13049179  0.99522522  1
  O  O253  1  0.23628181  0.61276316  0.49003220  1
  O  O254  1  0.24809182  0.63504980  0.99218275  1
  O  O255  1  0.74260585  0.13911086  0.49744111  1
  O  O256  1  0.73798077  0.12330023  0.98775900  1
  O  O257  1  0.74525216  0.62596134  0.49232258  1
  O  O258  1  0.73796698  0.62900190  0.99246308  1
  O  O259  1  0.25491399  0.37019540  0.00439944  1
  O  O260  1  0.25103861  0.37106987  0.51439002  1
  O  O261  1  0.25677049  0.87053014  0.00674108  1
  O  O262  1  0.23236920  0.89607760  0.51208677  1
  O  O263  1  0.75641326  0.37484144  0.01239127  1
  O  O264  1  0.75820282  0.36700539  0.50259544  1
  O  O265  1  0.74284933  0.86363932  0.01073135  1
  O  O266  1  0.76256084  0.86995185  0.51024359  1
  O  O267  1  0.13096008  0.49765970  0.24398182  1
  O  O268  1  0.12814007  0.48389074  0.75835436  1
  O  O269  1  0.14112121  0.98583267  0.28724808  1
  O  O270  1  0.13078353  0.99135450  0.75412843  1
  O  O271  1  0.62966149  0.49293163  0.23923926  1
  O  O272  1  0.62886668  0.49382267  0.74281504  1
  O  O273  1  0.63423769  1.00922375  0.22692910  1
  O  O274  1  0.61801180  0.99519588  0.73758884  1
  O  O275  1  0.37254308  -0.00423320  0.26876449  1
  O  O276  1  0.36663176  0.00364579  0.76154231  1
  O  O277  1  0.36769591  0.50625552  0.25075769  1
  O  O278  1  0.36499699  0.51098563  0.75258616  1
  O  O279  1  0.87508535  -0.00543747  0.26665151  1
  O  O280  1  0.88153850  0.00353294  0.76861645  1
  O  O281  1  0.86941574  0.50661077  0.25473057  1
  O  O282  1  0.87018498  0.49665909  0.75638665  1
  O  O283  1  0.12707353  0.36943876  0.36812719  1
  O  O284  1  0.12802279  0.36011515  0.86906203  1
  O  O285  1  0.12436855  0.85285126  0.37955879  1
  O  O286  1  0.11514017  0.87638838  0.86694483  1
  O  O287  1  0.63043450  0.38025277  0.35607415  1
  O  O288  1  0.61737036  0.37947975  0.86551921  1
  O  O289  1  0.63521693  0.86373245  0.37685348  1
  O  O290  1  0.61844080  0.86871640  0.87652679  1
  O  O291  1  0.38093735  0.13729628  0.11255960  1
  O  O292  1  0.38729822  0.13193190  0.62764176  1
  O  O293  1  0.37575223  0.63181112  0.13121816  1
  O  O294  1  0.38769208  0.61661374  0.63487357  1
  O  O295  1  0.87941855  0.13153597  0.11612678  1
  O  O296  1  0.87895257  0.13082849  0.62721734  1
  O  O297  1  0.87841123  0.61745478  0.13131678  1
  O  O298  1  0.88622945  0.63125314  0.62575199  1
  O  O299  1  0.25577130  0.25391466  0.11652966  1
  O  O300  1  0.25696163  0.25427754  0.62737684  1
  O  O301  1  0.25759239  0.75834863  0.11871046  1
  O  O302  1  0.25795806  0.74605475  0.61951694  1
  O  O303  1  0.76162783  0.25440225  0.13366145  1
  O  O304  1  0.76128163  0.25025170  0.61916579  1
  O  O305  1  0.74629417  0.75956188  0.11656791  1
  O  O306  1  0.76533119  0.75057562  0.62343990  1
  O  O307  1  0.25351672  0.24309563  0.38157230  1
  O  O308  1  0.24296209  0.24375218  0.87959266  1
  O  O309  1  0.23858036  0.73450409  0.36945031  1
  O  O310  1  0.25237456  0.74360206  0.88496648  1
  O  O311  1  0.75407172  0.25286522  0.38766495  1
  O  O312  1  0.75148302  0.24411825  0.87874781  1
  O  O313  1  0.74225342  0.74086935  0.37184628  1
  O  O314  1  0.74458628  0.74544033  0.87979000  1
  O  O315  1  0.00952704  0.12654279  0.00840543  1
  O  O316  1  0.00579991  0.11854294  0.50633452  1
  O  O317  1  0.00008090  0.60983599  0.00360959  1
  O  O318  1  0.00592753  0.61524955  0.50741341  1
  O  O319  1  0.51401320  0.12945023  0.00630006  1
  O  O320  1  0.51223194  0.12302945  0.50641182  1
  O  O321  1  0.51174727  0.63155904  -0.00269007  1
  O  O322  1  0.50753463  0.61778841  0.50647021  1
  O  O323  1  0.49010388  0.38527884  0.51207910  1
  O  O324  1  0.49246807  0.36853307  0.99040903  1
  O  O325  1  0.50624690  0.88934857  0.50799677  1
  O  O326  1  0.49148979  0.86863792  0.98682263  1
  O  O327  1  0.99397131  0.38006590  0.50097023  1
  O  O328  1  0.99258853  0.38552239  1.00821696  1
  O  O329  1  0.99033682  0.88553749  0.50796817  1
  O  O330  1  1.00577372  0.87342917  0.99206702  1
  O  O331  1  0.50000717  0.50411572  0.38856408  1
  O  O332  1  0.49544774  0.48777216  0.87095240  1
  O  O333  1  0.49102051  0.99185211  0.38163794  1
  O  O334  1  0.49014313  0.99488312  0.87190208  1
  O  O335  1  0.99262202  0.49851929  0.38416647  1
  O  O336  1  0.99128570  0.50003000  0.88229144  1
  O  O337  1  0.98850417  1.00463621  0.38778654  1
  O  O338  1  0.99338201  0.98911844  0.87976164  1
  O  O339  1  -0.00726785  0.01544900  0.12287112  1
  O  O340  1  -0.00978368  0.01211370  0.61519035  1
  O  O341  1  0.00404120  0.50594338  0.11793917  1
  O  O342  1  -0.00400560  0.50798464  0.61765999  1
  O  O343  1  0.50778546  0.00448916  0.12476730  1
  O  O344  1  0.50404247  0.01180252  0.61143724  1
  O  O345  1  0.51159572  0.50086718  0.12339305  1
  O  O346  1  0.51169579  0.50951569  0.62118230  1
  O  O347  1  0.24664398  0.38989991  0.24289767  1
  O  O348  1  0.24293576  0.38032608  0.74847264  1
  O  O349  1  0.25199044  0.87108957  0.23486275  1
  O  O350  1  0.23994504  0.88746780  0.75590135  1
  O  O351  1  0.74507854  0.38013420  0.23830119  1
  O  O352  1  0.74120260  0.38032639  0.74728462  1
  O  O353  1  0.74832325  0.87403679  0.23093896  1
  O  O354  1  0.75518163  0.86981559  0.73322482  1
  O  O355  1  0.24472569  0.12637438  0.26915521  1
  O  O356  1  0.25017069  0.11415533  0.75780573  1
  O  O357  1  0.25943888  0.61778834  0.25214581  1
  O  O358  1  0.25222787  0.62083291  0.75470968  1
  O  O359  1  0.76595239  0.12702011  0.23410569  1
  O  O360  1  0.74574933  0.12975491  0.77048757  1
  O  O361  1  0.75471074  0.61801036  0.25069418  1
  O  O362  1  0.75270012  0.61712502  0.75661174  1
  O  O363  1  0.36779319  0.12658885  0.37635804  1
  O  O364  1  0.37097533  0.11873396  0.87785888  1
  O  O365  1  0.36690472  0.62359219  0.36669986  1
  O  O366  1  0.36428844  0.62381186  0.86812863  1
  O  O367  1  0.87602827  0.11590723  0.37637600  1
  O  O368  1  0.85738720  0.11856149  0.87494364  1
  O  O369  1  0.86851419  0.62035415  0.36662236  1
  O  O370  1  0.86812271  0.61048931  0.87306165  1
  O  O371  1  0.13168244  0.37998214  0.13035776  1
  O  O372  1  0.13595245  0.36446815  0.63768866  1
  O  O373  1  0.14616474  0.87962846  0.12118483  1
  O  O374  1  0.11911109  0.88018460  0.63027353  1
  O  O375  1  0.63117927  0.38044088  0.12852300  1
  O  O376  1  0.62526057  0.38494752  0.63310547  1
  O  O377  1  0.62828479  0.88647624  0.11731849  1
  O  O378  1  0.64753075  0.87126555  0.62209235  1
  O  O379  1  0.12007269  0.25742694  0.25450988  1
  O  O380  1  0.11796534  0.25529343  0.75863186  1
  O  O381  1  0.12213981  0.74672575  0.26227864  1
  O  O382  1  0.11106569  0.76176674  0.74627444  1
  O  O383  1  0.61749063  0.26572757  0.24252345  1
  O  O384  1  0.61576474  0.26475739  0.74452109  1
  O  O385  1  0.61122705  0.74441669  0.25352450  1
  O  O386  1  0.62719619  0.75315569  0.76275172  1
  O  O387  1  0.36295471  0.25210336  0.22867356  1
  O  O388  1  0.38024327  0.25073109  0.74198964  1
  O  O389  1  0.38564714  0.74337386  0.24629874  1
  O  O390  1  0.37556634  0.73842748  0.75351421  1
  O  O391  1  0.88137731  0.24960441  0.24959483  1
  O  O392  1  0.88106074  0.24791177  0.74186063  1
  O  O393  1  0.87469215  0.73565786  0.24327857  1
  O  O394  1  0.88655117  0.74648254  0.74254200  1
  O  O395  1  0.38887159  0.49448007  0.50501668  1
  O  O396  1  0.36928600  0.48592062  1.00079997  1
  O  O397  1  0.39653891  1.01040321  0.48389816  1
  O  O398  1  0.36960916  0.98644445  0.99023405  1
  O  O399  1  0.88284924  0.49171845  0.49805822  1
  O  O400  1  0.88063693  0.49195877  0.99189372  1
  O  O401  1  0.87900499  0.99323409  0.48819362  1
  O  O402  1  0.87865451  1.00315184  0.98077806  1
  O  O403  1  0.12379503  0.01274466  -0.00548163  1
  O  O404  1  0.11786903  0.00159199  0.50069873  1
  O  O405  1  0.11681982  0.49896828  0.00337942  1
  O  O406  1  0.11261975  0.50453170  0.49591608  1
  O  O407  1  0.62666680  0.01106380  0.01509745  1
  O  O408  1  0.61784931  0.00746143  0.49754358  1
  O  O409  1  0.62945092  0.50747275  0.00567600  1
  O  O410  1  0.62113397  0.50218823  0.50711646  1
  O  O411  1  0.37088737  0.36700086  0.11805709  1
  O  O412  1  0.36341161  0.37047903  0.62333574  1
  O  O413  1  0.37025728  0.87115059  0.11598218  1
  O  O414  1  0.36272306  0.91855086  0.62159435  1
  O  O415  1  0.86399752  0.38094673  0.11516206  1
  O  O416  1  0.87400361  0.36692991  0.61409361  1
  O  O417  1  0.86001028  0.87298795  0.12051564  1
  O  O418  1  0.86979318  0.86831995  0.61937783  1
  O  O419  1  0.13121097  0.13427107  0.38460224  1
  O  O420  1  0.12841388  0.13458011  0.88144457  1
  O  O421  1  0.13008049  0.62823286  0.38158026  1
  O  O422  1  0.13745631  0.62386827  0.87650939  1
  O  O423  1  0.60985004  0.13583245  0.34489369  1
  O  O424  1  0.63315967  0.12392363  0.88881915  1
  O  O425  1  0.63218117  0.62658050  0.37768865  1
  O  O426  1  0.62877363  0.63003991  0.87779228  1
