# generated using pymatgen
data_V85Zn86O256
_symmetry_space_group_name_H-M   'P 1'
_cell_length_a   16.92282556
_cell_length_b   16.91591753
_cell_length_c   16.91104641
_cell_angle_alpha   89.93960357
_cell_angle_beta   89.96939671
_cell_angle_gamma   90.05318457
_symmetry_Int_Tables_number   1
_chemical_formula_structural   V85Zn86O256
_chemical_formula_sum   'V85 Zn86 O256'
_cell_volume   4841.03728755
_cell_formula_units_Z   1
loop_
 _symmetry_equiv_pos_site_id
 _symmetry_equiv_pos_as_xyz
  1  'x, y, z'
loop_
 _atom_site_type_symbol
 _atom_site_label
 _atom_site_symmetry_multiplicity
 _atom_site_fract_x
 _atom_site_fract_y
 _atom_site_fract_z
 _atom_site_occupancy
  V  V0  1  0.12447408  0.87190898  0.25405911  1
  V  V1  1  0.12954954  0.50804964  0.62584266  1
  V  V2  1  0.37858343  -0.00163185  0.87215313  1
  V  V3  1  0.87130492  0.25675809  0.12350788  1
  V  V4  1  0.87684269  0.50185796  0.87321846  1
  V  V5  1  0.37157629  0.37658926  0.49926682  1
  V  V6  1  0.37654695  0.24529382  0.62195210  1
  V  V7  1  0.74905427  0.50031535  0.74527640  1
  V  V8  1  0.00102312  0.62329305  0.12183344  1
  V  V9  1  0.25528362  0.24642470  0.00186176  1
  V  V10  1  0.25356566  0.36877889  0.12655420  1
  V  V11  1  0.50424687  0.37365364  0.87282467  1
  V  V12  1  0.49313662  0.12696877  0.12290764  1
  V  V13  1  0.11550563  0.87404679  0.74790574  1
  V  V14  1  0.24848186  0.12654454  0.38531607  1
  V  V15  1  0.86648501  0.26496943  0.62060525  1
  V  V16  1  0.24286691  0.74502361  0.50146839  1
  V  V17  1  0.49794723  0.61713885  0.62410715  1
  V  V18  1  0.38187902  0.50896424  0.37497151  1
  V  V19  1  0.13226694  0.37786805  0.75082783  1
  V  V20  1  0.36267117  0.50169720  0.87239522  1
  V  V21  1  0.88197682  0.76162626  0.62219742  1
  V  V22  1  0.75164339  -0.00627643  0.75424775  1
  V  V23  1  0.73572761  0.87490660  0.62886036  1
  V  V24  1  0.51455581  0.87104840  0.87125352  1
  V  V25  1  0.50082608  -0.00099010  -0.00158543  1
  V  V26  1  0.63030452  0.49817804  0.12078492  1
  V  V27  1  0.62876647  0.37053783  0.74906732  1
  V  V28  1  0.00811558  0.51007818  0.49764333  1
  V  V29  1  0.62521372  0.62770334  -0.00641523  1
  V  V30  1  0.82753320  0.44523672  0.43130263  1
  V  V31  1  0.24823960  0.87584674  0.62304616  1
  V  V32  1  0.49630199  0.01133284  0.50296672  1
  V  V33  1  0.62419427  0.86789132  0.25871135  1
  V  V34  1  -0.00143226  0.12080500  0.12174150  1
  V  V35  1  0.37621722  0.87186377  -0.00039823  1
  V  V36  1  0.12256616  0.11898485  -0.00168891  1
  V  V37  1  0.12773922  0.74746313  0.87104115  1
  V  V38  1  0.00128415  0.24852335  0.25269810  1
  V  V39  1  0.12226102  -0.00128386  0.12457432  1
  V  V40  1  0.61889169  0.62741757  0.49599625  1
  V  V41  1  0.12704582  0.37296979  0.25083135  1
  V  V42  1  0.87832570  0.88578936  0.00137686  1
  V  V43  1  0.62353765  -0.00027071  0.12605579  1
  V  V44  1  0.49923388  0.62464558  0.12933544  1
  V  V45  1  0.00106855  0.87850747  0.88019899  1
  V  V46  1  0.87392982  0.74939020  0.12357412  1
  V  V47  1  0.13297011  0.62369435  -0.00379075  1
  V  V48  1  0.37454035  0.75006530  0.62674392  1
  V  V49  1  0.37348234  0.12388880  0.25228333  1
  V  V50  1  0.75633744  0.49751288  0.24494269  1
  V  V51  1  0.00076964  -0.00166240  0.49988497  1
  V  V52  1  0.12710125  0.01465467  0.61970781  1
  V  V53  1  0.37693099  0.37306413  0.00245965  1
  V  V54  1  0.74740991  0.76017878  0.49724623  1
  V  V55  1  0.00228050  0.37667421  0.38381021  1
  V  V56  1  0.49298511  0.87244541  0.37886590  1
  V  V57  1  0.51156391  0.74930181  0.75388647  1
  V  V58  1  0.24419824  0.62253389  0.37858802  1
  V  V59  1  0.74289118  0.25507009  0.00121811  1
  V  V60  1  0.75250594  0.13459479  0.86720663  1
  V  V61  1  0.74761918  0.00273879  0.25311122  1
  V  V62  1  -0.01600584  0.12618942  0.62731703  1
  V  V63  1  0.37601459  0.74516051  0.13220451  1
  V  V64  1  0.49783045  0.37634960  0.37994725  1
  V  V65  1  0.75141480  0.63275469  0.37558227  1
  V  V66  1  0.12586440  0.24818509  0.87409253  1
  V  V67  1  0.87322295  -0.00626216  0.38255028  1
  V  V68  1  0.12807729  0.24669444  0.39038127  1
  V  V69  1  0.25070742  0.87221007  0.12496791  1
  V  V70  1  0.25091511  0.00068729  0.74929961  1
  V  V71  1  -0.00080528  0.37382133  0.87406732  1
  V  V72  1  0.74800922  0.75360076  -0.00336611  1
  V  V73  1  0.87541215  0.12307321  0.25111998  1
  V  V74  1  0.24813514  0.37302005  0.62177899  1
  V  V75  1  0.62792409  0.37306067  0.24307822  1
  V  V76  1  0.25407265  -0.00057523  0.25496483  1
  V  V77  1  0.74848239  0.63239129  0.87050242  1
  V  V78  1  0.25641778  0.50532433  0.24881240  1
  V  V79  1  -0.00142873  0.74824867  0.25259358  1
  V  V80  1  0.88639872  0.63325480  0.74796111  1
  V  V81  1  0.36240577  0.62219580  0.75419105  1
  V  V82  1  0.49326528  0.25171079  0.24575741  1
  V  V83  1  0.50362302  0.24287138  0.74799214  1
  V  V84  1  0.62777700  0.24358150  0.37946333  1
  Zn  Zn85  1  0.62353478  0.12877950  -0.00472151  1
  Zn  Zn86  1  0.25417356  0.74455010  -0.00497623  1
  Zn  Zn87  1  0.12605435  0.49812661  0.12252764  1
  Zn  Zn88  1  0.88308120  0.00851474  0.87188392  1
  Zn  Zn89  1  0.00060413  0.49956482  -0.00058696  1
  Zn  Zn90  1  0.11938420  0.74277982  0.38118156  1
  Zn  Zn91  1  0.74933685  0.37882571  0.60755969  1
  Zn  Zn92  1  0.74890942  0.87583734  0.12524183  1
  Zn  Zn93  1  0.00539181  0.63215917  0.62185021  1
  Zn  Zn94  1  0.50209207  0.74369456  0.25810973  1
  Zn  Zn95  1  0.37145362  0.87931308  0.49564084  1
  Zn  Zn96  1  0.75539296  0.12942667  0.38564195  1
  Zn  Zn97  1  0.61675370  0.00996410  0.63352542  1
  Zn  Zn98  1  0.61903550  0.49844114  0.62165038  1
  Zn  Zn99  1  -0.00344820  0.24253243  0.75145649  1
  Zn  Zn100  1  -0.00396210  0.86983068  0.38339984  1
  Zn  Zn101  1  0.38034734  0.12242788  0.74518663  1
  Zn  Zn102  1  0.62828683  0.13139955  0.51774775  1
  Zn  Zn103  1  0.50064989  0.50102689  -0.00322736  1
  Zn  Zn104  1  0.87212237  0.37717123  0.00103083  1
  Zn  Zn105  1  0.25248711  0.12417199  0.87417935  1
  Zn  Zn106  1  0.87616427  0.62094632  0.25358633  1
  Zn  Zn107  1  0.18710587  0.18813409  0.18828737  1
  Zn  Zn108  1  0.19119250  0.19088769  0.68835032  1
  Zn  Zn109  1  0.18732138  0.68574378  0.18670921  1
  Zn  Zn110  1  0.18647704  0.68908694  0.69090359  1
  Zn  Zn111  1  0.68503023  0.18604578  0.18656190  1
  Zn  Zn112  1  0.69230291  0.18728427  0.68535281  1
  Zn  Zn113  1  0.68777308  0.68536603  0.18505591  1
  Zn  Zn114  1  0.68857286  0.68715964  0.68274397  1
  Zn  Zn115  1  0.31316916  0.30983118  0.31458329  1
  Zn  Zn116  1  0.31403455  0.31202339  0.81167788  1
  Zn  Zn117  1  0.31397324  0.80859189  0.31328288  1
  Zn  Zn118  1  0.31169462  0.81343244  0.81090190  1
  Zn  Zn119  1  0.80869950  0.30884858  0.30574220  1
  Zn  Zn120  1  0.81680620  0.30989835  0.80625011  1
  Zn  Zn121  1  0.81159023  0.81412628  0.31161019  1
  Zn  Zn122  1  0.81612385  0.81536458  0.81067586  1
  Zn  Zn123  1  0.18905557  0.43749076  0.43997146  1
  Zn  Zn124  1  0.18613456  0.43670021  0.93987502  1
  Zn  Zn125  1  0.18607333  0.93787840  0.43755113  1
  Zn  Zn126  1  0.18933034  0.93579759  0.93677632  1
  Zn  Zn127  1  0.66248709  0.44513845  0.43184690  1
  Zn  Zn128  1  0.68932589  0.43761640  0.93272999  1
  Zn  Zn129  1  0.68122433  0.94251196  0.44047141  1
  Zn  Zn130  1  0.69034961  0.94232599  0.93698683  1
  Zn  Zn131  1  0.31272989  0.05955000  0.06461231  1
  Zn  Zn132  1  0.31839563  0.06047387  0.56142813  1
  Zn  Zn133  1  0.31425933  0.55915780  0.06233161  1
  Zn  Zn134  1  0.31330802  0.55895557  0.56139545  1
  Zn  Zn135  1  0.80859296  0.06829631  0.06095593  1
  Zn  Zn136  1  0.80628546  0.06152493  0.56196677  1
  Zn  Zn137  1  0.81347578  0.56377865  0.06009371  1
  Zn  Zn138  1  0.81025128  0.57414272  0.56636635  1
  Zn  Zn139  1  0.43930274  0.43933731  0.18671223  1
  Zn  Zn140  1  0.43414051  0.43460271  0.69106320  1
  Zn  Zn141  1  0.43735967  0.93599195  0.19045059  1
  Zn  Zn142  1  0.44013427  0.93288370  0.68578456  1
  Zn  Zn143  1  0.94126424  0.43643659  0.19006719  1
  Zn  Zn144  1  0.94157256  0.43793230  0.68737061  1
  Zn  Zn145  1  0.93658178  0.93640809  0.18878922  1
  Zn  Zn146  1  0.93431474  0.94082285  0.68797562  1
  Zn  Zn147  1  0.06415124  0.06174963  0.31473997  1
  Zn  Zn148  1  0.06247643  0.05995133  0.81038262  1
  Zn  Zn149  1  0.06402043  0.55889202  0.31117665  1
  Zn  Zn150  1  0.06653114  0.56133078  0.81146963  1
  Zn  Zn151  1  0.55685634  0.05763265  0.31691567  1
  Zn  Zn152  1  0.57238825  0.06406546  0.81172203  1
  Zn  Zn153  1  0.56713478  0.56238993  0.31153242  1
  Zn  Zn154  1  0.55899332  0.55969101  0.81085411  1
  Zn  Zn155  1  0.43421138  0.19041702  0.43488652  1
  Zn  Zn156  1  0.43823618  0.18819400  0.93321983  1
  Zn  Zn157  1  0.43459895  0.69157231  0.43930498  1
  Zn  Zn158  1  0.43760242  0.68590703  0.93791495  1
  Zn  Zn159  1  0.93823595  0.18282100  0.44356664  1
  Zn  Zn160  1  0.93494889  0.18825022  0.93892441  1
  Zn  Zn161  1  0.93031061  0.68655121  0.43894865  1
  Zn  Zn162  1  0.94178196  0.69329321  0.93581697  1
  Zn  Zn163  1  0.06272164  0.30915879  0.06094609  1
  Zn  Zn164  1  0.05813983  0.31349556  0.56479697  1
  Zn  Zn165  1  0.06299463  0.80909953  0.06068365  1
  Zn  Zn166  1  0.06371922  0.81830849  0.56230561  1
  Zn  Zn167  1  0.56036392  0.31223656  0.06272371  1
  Zn  Zn168  1  0.56151977  0.31407531  0.56442377  1
  Zn  Zn169  1  0.56323864  0.81229536  0.06309267  1
  Zn  Zn170  1  0.56085625  0.80952004  0.56045738  1
  O  O171  1  0.11801447  0.12148026  0.11938032  1
  O  O172  1  0.12610107  0.11631379  0.62678990  1
  O  O173  1  0.11743268  0.62317851  0.11713663  1
  O  O174  1  0.12405568  0.61302821  0.63135331  1
  O  O175  1  0.61205269  0.11399382  0.12737086  1
  O  O176  1  0.61838729  0.12616765  0.63120494  1
  O  O177  1  0.62158966  0.61841035  0.11287732  1
  O  O178  1  0.61465765  0.62362856  0.61912142  1
  O  O179  1  0.37952556  0.38025075  0.38056625  1
  O  O180  1  0.37865438  0.38347935  0.88234796  1
  O  O181  1  0.38777541  0.87461069  0.37325758  1
  O  O182  1  0.38133146  0.88355087  0.87892728  1
  O  O183  1  0.88059273  0.37648522  0.37313092  1
  O  O184  1  0.88318381  0.38396889  0.87222462  1
  O  O185  1  0.87915328  0.88970054  0.36668574  1
  O  O186  1  0.88448504  0.87432770  0.88440025  1
  O  O187  1  0.24193978  0.01125898  0.36309634  1
  O  O188  1  0.25962247  -0.00213074  0.86594542  1
  O  O189  1  0.25765215  0.50445787  0.36914636  1
  O  O190  1  0.26381136  0.49456301  0.87713703  1
  O  O191  1  0.75607134  0.00047578  0.36855577  1
  O  O192  1  0.75529631  0.00665608  0.86778889  1
  O  O193  1  0.75728474  0.50128064  0.37172840  1
  O  O194  1  0.75724229  0.51136059  0.86579011  1
  O  O195  1  0.25069178  0.48816712  0.13235807  1
  O  O196  1  0.24154510  0.48757529  0.62016612  1
  O  O197  1  0.24375528  0.99322875  0.13583193  1
  O  O198  1  0.24518271  0.99707729  0.62928025  1
  O  O199  1  0.73892262  0.50587725  0.12977198  1
  O  O200  1  0.75297422  0.50035258  0.63676929  1
  O  O201  1  0.74034497  1.00148288  0.13268714  1
  O  O202  1  0.75058785  0.98930167  0.63585526  1
  O  O203  1  0.00831321  0.37126479  0.26114112  1
  O  O204  1  0.01016279  0.37382520  0.76089971  1
  O  O205  1  0.00713074  0.86236112  0.24844740  1
  O  O206  1  0.01114955  0.88061236  0.75455633  1
  O  O207  1  0.50418679  0.36734697  0.25426927  1
  O  O208  1  0.50772541  0.37048803  0.75584642  1
  O  O209  1  0.50687674  0.87624077  0.26146022  1
  O  O210  1  0.49649833  0.85900864  0.75676640  1
  O  O211  1  0.49097649  0.12877299  0.24612509  1
  O  O212  1  0.50033533  0.13974993  0.76141715  1
  O  O213  1  0.51086227  0.62676930  0.23451567  1
  O  O214  1  0.49155062  0.63437464  0.74560182  1
  O  O215  1  0.99681305  0.13054897  0.24405004  1
  O  O216  1  1.00587637  0.12269499  0.73240690  1
  O  O217  1  1.00082252  0.63306045  0.24390731  1
  O  O218  1  0.98869510  0.62282148  0.74780182  1
  O  O219  1  0.36327014  0.25658600  -0.00579072  1
  O  O220  1  0.38357759  0.26477089  0.50740589  1
  O  O221  1  0.37395864  0.75525064  0.00724904  1
  O  O222  1  0.36492865  0.75150297  0.51326852  1
  O  O223  1  0.86585230  0.25267352  0.00848522  1
  O  O224  1  0.88421335  0.24713586  0.52117499  1
  O  O225  1  0.86554883  0.75562747  0.00410599  1
  O  O226  1  0.86363979  0.74703021  0.51404306  1
  O  O227  1  0.12222291  0.25390719  0.48931725  1
  O  O228  1  0.13568586  0.24054449  0.99590965  1
  O  O229  1  0.13750610  0.75339306  0.50002783  1
  O  O230  1  0.12840943  0.74146624  0.99268157  1
  O  O231  1  0.61580472  0.25134102  0.48241232  1
  O  O232  1  0.63865292  0.24969431  1.00633665  1
  O  O233  1  0.63514416  0.73914081  0.50565780  1
  O  O234  1  0.63907736  0.74324356  1.00484482  1
  O  O235  1  0.50390231  0.23940193  0.13299566  1
  O  O236  1  0.48880633  0.26147237  0.63650016  1
  O  O237  1  0.49377158  0.74209012  0.12506840  1
  O  O238  1  0.49140061  0.74492388  0.63542137  1
  O  O239  1  0.99516514  0.24059465  0.13140652  1
  O  O240  1  0.99811533  0.23641357  0.62656999  1
  O  O241  1  0.99592287  0.73999561  0.13121293  1
  O  O242  1  0.98661707  0.75160818  0.61768303  1
  O  O243  1  0.00628760  0.25466767  0.37165232  1
  O  O244  1  0.00561588  0.25602941  0.87377404  1
  O  O245  1  -0.00070457  0.74959108  0.36822546  1
  O  O246  1  0.01370200  0.76435114  0.87758644  1
  O  O247  1  0.50575470  0.25723875  0.36469369  1
  O  O248  1  0.49295835  0.26490987  0.86583103  1
  O  O249  1  0.49780225  0.76354299  0.37401648  1
  O  O250  1  0.49463188  0.75491089  0.86189090  1
  O  O251  1  0.25521312  0.11936188  0.48350235  1
  O  O252  1  0.24524923  0.13163186  1.00182161  1
  O  O253  1  0.25506848  0.63192196  0.49119138  1
  O  O254  1  0.23707635  0.62396052  1.00509575  1
  O  O255  1  0.74041720  0.12097540  0.49616916  1
  O  O256  1  0.74677247  0.13799165  0.99345626  1
  O  O257  1  0.74328282  0.63518263  0.49368092  1
  O  O258  1  0.74557084  0.63221454  0.99075394  1
  O  O259  1  0.25514589  0.36764558  0.00745721  1
  O  O260  1  0.25907817  0.37450234  0.50709392  1
  O  O261  1  0.25857104  0.87474641  0.00834704  1
  O  O262  1  0.25192020  0.86824305  0.50456036  1
  O  O263  1  0.75283692  0.36054741  -0.00810402  1
  O  O264  1  0.75815403  0.39319594  0.48586380  1
  O  O265  1  0.75621973  0.86807254  0.00108380  1
  O  O266  1  0.74350645  0.86662752  0.50711429  1
  O  O267  1  0.13421624  0.48649645  0.24891636  1
  O  O268  1  0.12143915  0.48991447  0.74019476  1
  O  O269  1  0.13015048  0.99122536  0.24439639  1
  O  O270  1  0.13403547  0.99362888  0.74270920  1
  O  O271  1  0.63475806  0.49242737  0.24293651  1
  O  O272  1  0.63288971  0.49380156  0.74671786  1
  O  O273  1  0.62987910  0.99482241  0.24608796  1
  O  O274  1  0.64294059  0.99990951  0.74991508  1
  O  O275  1  0.36453666  0.00802523  0.24716530  1
  O  O276  1  0.37069041  -0.00068494  0.75489021  1
  O  O277  1  0.36622841  0.49173951  0.25990084  1
  O  O278  1  0.37724837  0.50585343  0.76385674  1
  O  O279  1  0.86600761  0.00470180  0.25353608  1
  O  O280  1  0.86001522  -0.00228449  0.75360526  1
  O  O281  1  0.86098777  0.49984654  0.24231418  1
  O  O282  1  0.87017600  0.50779737  0.75742118  1
  O  O283  1  0.12099622  0.36811525  0.36976362  1
  O  O284  1  0.12032821  0.37052258  0.86972672  1
  O  O285  1  0.12198725  0.87178101  0.36288814  1
  O  O286  1  0.12001210  0.87231096  0.86849074  1
  O  O287  1  0.61557064  0.36756859  0.36301202  1
  O  O288  1  0.61521176  0.38139058  0.86486452  1
  O  O289  1  0.61458565  0.87877581  0.36627426  1
  O  O290  1  0.61331998  0.87586689  0.88181275  1
  O  O291  1  0.38543203  0.12013929  0.13405743  1
  O  O292  1  0.37038193  0.14103590  0.62513751  1
  O  O293  1  0.38683823  0.63102406  0.11705426  1
  O  O294  1  0.37897622  0.62979012  0.63196868  1
  O  O295  1  0.88224247  0.13207500  0.12910432  1
  O  O296  1  0.88308358  0.12574366  0.62738977  1
  O  O297  1  0.88277799  0.63148493  0.12615068  1
  O  O298  1  0.87781494  0.63830941  0.63290723  1
  O  O299  1  0.24830888  0.26049817  0.11907859  1
  O  O300  1  0.25954533  0.26374528  0.62950950  1
  O  O301  1  0.25807148  0.75439262  0.12396363  1
  O  O302  1  0.25474641  0.75338537  0.61994218  1
  O  O303  1  0.75779455  0.24423553  0.11416801  1
  O  O304  1  0.76165320  0.25975483  0.62546762  1
  O  O305  1  0.75714506  0.75099194  0.11642023  1
  O  O306  1  0.75631703  0.75786719  0.61926577  1
  O  O307  1  0.24243889  0.23648640  0.37037675  1
  O  O308  1  0.24480840  0.24726096  0.88321469  1
  O  O309  1  0.25169477  0.73977485  0.38259381  1
  O  O310  1  0.23492471  0.75846902  0.87749157  1
  O  O311  1  0.73145823  0.24966492  0.36713027  1
  O  O312  1  0.75639075  0.24203473  0.88268311  1
  O  O313  1  0.75319697  0.74598273  0.38399630  1
  O  O314  1  0.75516596  0.73969913  0.87963436  1
  O  O315  1  0.01046479  0.13109871  0.00942705  1
  O  O316  1  0.00079378  0.11359331  0.51625110  1
  O  O317  1  0.00774135  0.62560336  0.00732441  1
  O  O318  1  -0.00137851  0.61409151  0.49900629  1
  O  O319  1  0.50083866  0.12116471  0.00666250  1
  O  O320  1  0.49950204  0.11378140  0.49180081  1
  O  O321  1  0.51085567  0.62447848  0.00600155  1
  O  O322  1  0.50602238  0.63557570  0.51094223  1
  O  O323  1  0.49705247  0.37614570  0.48495502  1
  O  O324  1  0.49208259  0.37416862  0.99319210  1
  O  O325  1  0.49731824  0.87536969  0.48954522  1
  O  O326  1  0.49425465  0.87789626  0.99282920  1
  O  O327  1  1.00149416  0.38334952  0.48868447  1
  O  O328  1  0.99961828  0.37556250  0.98711067  1
  O  O329  1  1.00118072  0.89052990  0.49999262  1
  O  O330  1  0.99104570  0.87168402  0.99480487  1
  O  O331  1  0.49263704  0.49075069  0.36444145  1
  O  O332  1  0.49129029  0.48863748  0.87606846  1
  O  O333  1  0.50194500  0.98683722  0.38833726  1
  O  O334  1  0.49671645  0.99273024  0.87713784  1
  O  O335  1  1.00384897  0.49126303  0.38240859  1
  O  O336  1  0.99232135  0.49366940  0.87471636  1
  O  O337  1  0.99369021  1.00094523  0.38315904  1
  O  O338  1  1.00041051  0.98661159  0.87369142  1
  O  O339  1  0.00497569  0.01274782  0.13158280  1
  O  O340  1  0.00579668  0.00817010  0.62137601  1
  O  O341  1  0.00120538  0.51137073  0.12484145  1
  O  O342  1  0.00917135  0.50113424  0.61525521  1
  O  O343  1  0.50390406  0.00506676  0.11961232  1
  O  O344  1  0.49974374  -0.00782829  0.60974901  1
  O  O345  1  0.51149918  0.50631095  0.12170229  1
  O  O346  1  0.49595127  0.51390105  0.63159403  1
  O  O347  1  0.24599940  0.37771477  0.24425937  1
  O  O348  1  0.23894705  0.37235820  0.74437913  1
  O  O349  1  0.24428128  0.88035897  0.24799727  1
  O  O350  1  0.24320520  0.88555445  0.74419233  1
  O  O351  1  0.73936776  0.38312383  0.25163824  1
  O  O352  1  0.74294498  0.38550858  0.75449093  1
  O  O353  1  0.74187292  0.88582688  0.24831984  1
  O  O354  1  0.74982344  0.88335329  0.74556811  1
  O  O355  1  0.25665402  0.11792963  0.25038945  1
  O  O356  1  0.25278858  0.11188464  0.75172317  1
  O  O357  1  0.24794826  0.61093988  0.25404325  1
  O  O358  1  0.26304230  0.62655397  0.74932114  1
  O  O359  1  0.75335218  0.11468564  0.25288931  1
  O  O360  1  0.75224159  0.11986098  0.76282446  1
  O  O361  1  0.74727668  0.61618880  0.25763728  1
  O  O362  1  0.75615208  0.62095973  0.75495869  1
  O  O363  1  0.36245959  0.13067218  0.36221648  1
  O  O364  1  0.37468181  0.10917584  0.87460890  1
  O  O365  1  0.36950936  0.61350858  0.37841812  1
  O  O366  1  0.37885607  0.61066955  0.87063674  1
  O  O367  1  0.87583988  0.11704521  0.36740601  1
  O  O368  1  0.86010743  0.12216155  0.88405645  1
  O  O369  1  0.85866998  0.62468213  0.37199028  1
  O  O370  1  0.87044184  0.62220710  0.86847650  1
  O  O371  1  0.13224400  0.37432522  0.13238005  1
  O  O372  1  0.13026524  0.37873229  0.63196041  1
  O  O373  1  0.12897269  0.87661089  0.13425337  1
  O  O374  1  0.13023790  0.88380949  0.63281686  1
  O  O375  1  0.61885777  0.38337073  0.13433957  1
  O  O376  1  0.63107662  0.38054187  0.62934033  1
  O  O377  1  0.62273727  0.88775694  0.13247974  1
  O  O378  1  0.63379570  0.87381831  0.62593687  1
  O  O379  1  0.12149062  0.25984113  0.25585073  1
  O  O380  1  0.12326913  0.25696063  0.75816493  1
  O  O381  1  0.11778128  0.75539332  0.25206034  1
  O  O382  1  0.12754986  0.76181778  0.75615568  1
  O  O383  1  0.61569056  0.25642162  0.25311309  1
  O  O384  1  0.61998640  0.26407793  0.74630260  1
  O  O385  1  0.62449367  0.76508426  0.24054247  1
  O  O386  1  0.61003109  0.74243477  0.74890163  1
  O  O387  1  0.38553218  0.24355689  0.25068247  1
  O  O388  1  0.38357655  0.24957321  0.74236604  1
  O  O389  1  0.37923283  0.75123931  0.23625883  1
  O  O390  1  0.37728112  0.74268417  0.74234969  1
  O  O391  1  0.87932219  0.24273941  0.24367041  1
  O  O392  1  0.88169521  0.25360338  0.73082286  1
  O  O393  1  0.88235763  0.74840225  0.24295607  1
  O  O394  1  0.87075848  0.74448747  0.73594268  1
  O  O395  1  0.37444048  0.48813887  0.48948065  1
  O  O396  1  0.37752401  0.49235929  0.98979665  1
  O  O397  1  0.38895164  0.99557754  0.50112684  1
  O  O398  1  0.38120746  0.99302847  0.99350523  1
  O  O399  1  0.87971844  0.50310975  0.49812394  1
  O  O400  1  0.87526935  0.49875532  0.98656893  1
  O  O401  1  0.88277606  1.00456221  0.49097648  1
  O  O402  1  0.86915745  0.98806466  1.00194443  1
  O  O403  1  0.13283374  0.01186377  0.00681972  1
  O  O404  1  0.11829722  -0.00263354  0.50983978  1
  O  O405  1  0.12113650  0.50771242  0.00153287  1
  O  O406  1  0.11783769  0.49556757  0.51007067  1
  O  O407  1  0.61892739  0.00208909  0.00967272  1
  O  O408  1  0.60961645  0.00235544  0.50582301  1
  O  O409  1  0.62695794  0.50651593  0.00567995  1
  O  O410  1  0.62434959  0.51886766  0.50548564  1
  O  O411  1  0.37022067  0.37960540  0.11108428  1
  O  O412  1  0.36739840  0.37349120  0.61813879  1
  O  O413  1  0.37235656  0.86708248  0.11980669  1
  O  O414  1  0.36595744  0.86437060  0.62605608  1
  O  O415  1  0.88341511  0.36053202  0.12439163  1
  O  O416  1  0.87278788  0.37025164  0.62242705  1
  O  O417  1  0.87411120  0.86758632  0.11856053  1
  O  O418  1  0.86629494  0.86383014  0.62951855  1
  O  O419  1  0.13836613  0.13335653  0.36845479  1
  O  O420  1  0.12698729  0.12757026  0.88309317  1
  O  O421  1  0.13968778  0.62385457  0.37092562  1
  O  O422  1  0.11950232  0.63449836  0.88203790  1
  O  O423  1  0.62103073  0.14036842  0.36849904  1
  O  O424  1  0.64543779  0.12238468  0.87998686  1
  O  O425  1  0.63722259  0.62019701  0.38206080  1
  O  O426  1  0.63252001  0.61899128  0.88481936  1
