# generated using pymatgen
data_V85Zn86O256
_symmetry_space_group_name_H-M   'P 1'
_cell_length_a   16.96094203
_cell_length_b   16.94992838
_cell_length_c   16.95442870
_cell_angle_alpha   89.99579323
_cell_angle_beta   89.94611687
_cell_angle_gamma   90.01232975
_symmetry_Int_Tables_number   1
_chemical_formula_structural   V85Zn86O256
_chemical_formula_sum   'V85 Zn86 O256'
_cell_volume   4874.17136930
_cell_formula_units_Z   1
loop_
 _symmetry_equiv_pos_site_id
 _symmetry_equiv_pos_as_xyz
  1  'x, y, z'
loop_
 _atom_site_type_symbol
 _atom_site_label
 _atom_site_symmetry_multiplicity
 _atom_site_fract_x
 _atom_site_fract_y
 _atom_site_fract_z
 _atom_site_occupancy
  V  V0  1  0.87538655  0.62713152  0.24823674  1
  V  V1  1  0.00116899  0.38068395  0.87833671  1
  V  V2  1  0.50076119  0.38242701  0.87938826  1
  V  V3  1  0.51350836  0.74711301  0.24692116  1
  V  V4  1  0.87421332  0.12274231  0.75697376  1
  V  V5  1  0.24900608  0.25245226  0.50095951  1
  V  V6  1  0.61007894  0.50452985  0.12566983  1
  V  V7  1  0.12457175  0.24965859  0.37340980  1
  V  V8  1  0.51373695  0.86818434  0.37273665  1
  V  V9  1  0.61645430  0.62010127  -0.00254037  1
  V  V10  1  0.75163030  0.12197925  0.37239932  1
  V  V11  1  0.87392111  -0.00217436  0.88853438  1
  V  V12  1  -0.00153127  0.37487670  0.37551717  1
  V  V13  1  0.87466607  0.50282081  0.37276387  1
  V  V14  1  0.12243269  0.62300074  0.48417130  1
  V  V15  1  0.12385763  0.87628241  0.75261823  1
  V  V16  1  0.75076155  0.00134272  0.75315526  1
  V  V17  1  0.12390028  0.38357555  0.74688957  1
  V  V18  1  0.49995298  0.87050007  0.87603540  1
  V  V19  1  0.63692262  0.74355367  0.87389920  1
  V  V20  1  0.01318113  0.61719642  0.63110009  1
  V  V21  1  0.11681662  0.00222896  0.12434565  1
  V  V22  1  0.11610233  0.50598135  0.11413755  1
  V  V23  1  0.12020955  0.12259837  0.49847521  1
  V  V24  1  0.87736989  0.12224693  0.24041861  1
  V  V25  1  0.38026968  0.74296080  0.12574915  1
  V  V26  1  0.25102379  0.24420194  0.00006872  1
  V  V27  1  0.49807865  0.12646742  0.62228784  1
  V  V28  1  0.24676705  0.50858241  0.75337230  1
  V  V29  1  0.62295555  0.37864271  0.75015419  1
  V  V30  1  0.73906261  0.74627469  0.49465393  1
  V  V31  1  0.75369576  0.87366325  0.62138980  1
  V  V32  1  0.38024113  0.00154477  0.87763313  1
  V  V33  1  0.63108149  0.37777979  0.25065921  1
  V  V34  1  0.62571696  0.87150106  0.74689384  1
  V  V35  1  0.75438265  0.74843369  0.01735305  1
  V  V36  1  0.01559218  0.74921825  0.24908369  1
  V  V37  1  0.24836134  0.37416157  0.12415437  1
  V  V38  1  0.01254860  0.86762766  0.37390188  1
  V  V39  1  0.49846588  0.25497763  0.74767871  1
  V  V40  1  0.88278197  0.87366301  0.49815789  1
  V  V41  1  0.24923050  0.63933567  0.36641318  1
  V  V42  1  0.74035392  0.62375426  0.37382831  1
  V  V43  1  0.24706378  0.73922602  -0.00446668  1
  V  V44  1  0.74136566  -0.01673530  0.24432503  1
  V  V45  1  0.38168608  0.12437195  0.25029864  1
  V  V46  1  0.74970545  0.50659822  0.75472086  1
  V  V47  1  0.62393470  0.12306167  0.50054408  1
  V  V48  1  0.62562635  -0.00016038  0.62294877  1
  V  V49  1  0.37257577  0.12717965  0.74976365  1
  V  V50  1  0.24616482  0.38846980  0.62379263  1
  V  V51  1  0.49901407  0.37514694  0.37658494  1
  V  V52  1  0.88156580  -0.00183857  0.37778172  1
  V  V53  1  0.24921850  0.00038675  0.24641171  1
  V  V54  1  0.12375445  0.37363074  0.24785819  1
  V  V55  1  -0.00264964  0.88004442  0.88739173  1
  V  V56  1  0.37708947  0.62755935  0.74664846  1
  V  V57  1  0.75079072  0.38634403  0.12664589  1
  V  V58  1  0.62596835  0.50784778  0.61775988  1
  V  V59  1  0.37261658  0.50764738  0.87875732  1
  V  V60  1  0.10592221  0.12304820  0.00341892  1
  V  V61  1  0.62601113  0.24950794  0.37403001  1
  V  V62  1  0.48810828  -0.00930492  0.50221251  1
  V  V63  1  0.87728192  0.24974864  0.12621991  1
  V  V64  1  0.50770095  0.12449086  0.10489797  1
  V  V65  1  0.37809435  0.37831754  0.00155959  1
  V  V66  1  0.12549208  0.73526496  0.87909903  1
  V  V67  1  0.74689882  0.24787542  -0.00527536  1
  V  V68  1  0.12066799  -0.00109906  0.62204774  1
  V  V69  1  0.87323145  0.24918600  0.62644886  1
  V  V70  1  0.37648718  0.87649942  0.00060611  1
  V  V71  1  0.00004243  0.75204183  0.74752607  1
  V  V72  1  0.87498053  0.62625018  0.74887144  1
  V  V73  1  0.87884252  0.38113360  0.00192815  1
  V  V74  1  0.00008509  0.12408187  0.62431551  1
  V  V75  1  0.87432075  0.50794037  0.88183508  1
  V  V76  1  0.24792803  0.87631496  0.12576770  1
  V  V77  1  0.00055157  0.25166532  0.75163398  1
  V  V78  1  0.75024341  0.24853269  0.50244033  1
  V  V79  1  0.24908085  0.00100190  0.75201834  1
  V  V80  1  0.37211143  0.25364816  0.62370912  1
  V  V81  1  0.24938337  0.50022710  0.25028346  1
  V  V82  1  0.50237072  0.51211302  0.49526458  1
  V  V83  1  0.75028500  0.37592802  0.62491133  1
  V  V84  1  0.37251861  -0.01100532  0.37235787  1
  Zn  Zn85  1  0.38200344  0.62195482  0.24442213  1
  Zn  Zn86  1  0.50362398  0.63050472  0.62100990  1
  Zn  Zn87  1  0.87510690  0.37699936  0.50050439  1
  Zn  Zn88  1  0.50244473  0.24725987  0.24867622  1
  Zn  Zn89  1  0.62410746  0.24890870  0.87932133  1
  Zn  Zn90  1  0.37246743  0.38306952  0.49876543  1
  Zn  Zn91  1  0.87828384  0.74745477  0.62003297  1
  Zn  Zn92  1  0.37789376  0.25102064  0.12774922  1
  Zn  Zn93  1  0.37373153  0.50092131  0.37209037  1
  Zn  Zn94  1  0.12532416  0.24911940  0.87518817  1
  Zn  Zn95  1  0.24979114  0.75666494  0.50048212  1
  Zn  Zn96  1  0.87844023  0.76585018  0.12962078  1
  Zn  Zn97  1  0.62841331  -0.00062750  0.10085335  1
  Zn  Zn98  1  0.68777650  0.09062757  0.93363697  1
  Zn  Zn99  1  0.00065696  0.49762059  0.50526319  1
  Zn  Zn100  1  -0.00466245  0.62763828  0.11092097  1
  Zn  Zn101  1  0.38047177  0.76685938  0.61080528  1
  Zn  Zn102  1  0.50102890  0.74633234  0.74797154  1
  Zn  Zn103  1  0.25177990  0.12504335  0.37370814  1
  Zn  Zn104  1  0.25869244  0.87691543  0.61809586  1
  Zn  Zn105  1  0.00274081  0.24316247  0.24607006  1
  Zn  Zn106  1  0.24783902  0.12457681  0.87897770  1
  Zn  Zn107  1  0.18992636  0.18461577  0.18500365  1
  Zn  Zn108  1  0.18565572  0.19075495  0.68809031  1
  Zn  Zn109  1  0.19020026  0.68554795  0.17924699  1
  Zn  Zn110  1  0.19134109  0.69142960  0.68625183  1
  Zn  Zn111  1  0.68911359  0.18687182  0.18266419  1
  Zn  Zn112  1  0.68459576  0.18538019  0.69790353  1
  Zn  Zn113  1  0.68755898  0.68063630  0.19006208  1
  Zn  Zn114  1  0.69075708  0.68826864  0.68335369  1
  Zn  Zn115  1  0.31334473  0.31199154  0.31276458  1
  Zn  Zn116  1  0.31077365  0.31614048  0.81448006  1
  Zn  Zn117  1  0.31684982  0.81489010  0.30582407  1
  Zn  Zn118  1  0.30884007  0.81163263  0.81068452  1
  Zn  Zn119  1  0.81205353  0.31211622  0.31221356  1
  Zn  Zn120  1  0.81356916  0.31763654  0.81313700  1
  Zn  Zn121  1  0.81670192  0.80785824  0.31367974  1
  Zn  Zn122  1  0.81435174  0.81402897  0.81386229  1
  Zn  Zn123  1  0.18247409  0.44354070  0.43805488  1
  Zn  Zn124  1  0.19194792  0.43296085  0.93514234  1
  Zn  Zn125  1  0.18894850  0.93967924  0.43709738  1
  Zn  Zn126  1  0.18815267  0.93774164  0.94098029  1
  Zn  Zn127  1  0.69006855  0.44002232  0.43706095  1
  Zn  Zn128  1  0.68991750  0.43929583  0.93937888  1
  Zn  Zn129  1  0.69017133  0.93718759  0.43646014  1
  Zn  Zn130  1  0.68540588  0.92492923  0.93456418  1
  Zn  Zn131  1  0.32083410  0.06209424  0.06625837  1
  Zn  Zn132  1  0.30807559  0.06142036  0.56267349  1
  Zn  Zn133  1  0.31038925  0.56083584  0.06370790  1
  Zn  Zn134  1  0.32869052  0.59483566  0.54289963  1
  Zn  Zn135  1  0.80661962  -0.06810116  0.06602373  1
  Zn  Zn136  1  0.81573402  0.05981357  0.56184019  1
  Zn  Zn137  1  0.80726581  0.56883306  0.06199617  1
  Zn  Zn138  1  0.81622827  0.56398561  0.56072495  1
  Zn  Zn139  1  0.43777994  0.43398497  0.19029004  1
  Zn  Zn140  1  0.43447886  0.44470533  0.68376788  1
  Zn  Zn141  1  0.47773143  0.92008839  0.16615907  1
  Zn  Zn142  1  0.43745177  0.93520675  0.69121626  1
  Zn  Zn143  1  0.93812748  0.43868524  0.19207557  1
  Zn  Zn144  1  0.93611732  0.43908977  0.69039939  1
  Zn  Zn145  1  0.94009942  0.93786991  0.19615023  1
  Zn  Zn146  1  0.93822763  0.93762514  0.68784863  1
  Zn  Zn147  1  0.06225575  0.05901467  0.31125510  1
  Zn  Zn148  1  0.06071460  0.06270763  0.81780764  1
  Zn  Zn149  1  0.05954600  0.55997158  0.30647889  1
  Zn  Zn150  1  0.06021421  0.56176414  0.93876180  1
  Zn  Zn151  1  0.56142637  0.05879932  0.31426052  1
  Zn  Zn152  1  0.55962707  0.06338058  0.81307408  1
  Zn  Zn153  1  0.56331554  0.56194569  0.30843684  1
  Zn  Zn154  1  0.56114279  0.56360092  0.81556896  1
  Zn  Zn155  1  0.43546414  0.18565944  0.43493092  1
  Zn  Zn156  1  0.43594701  0.19499161  0.93311352  1
  Zn  Zn157  1  0.43402107  0.68857320  0.42971830  1
  Zn  Zn158  1  0.43986035  0.69026893  0.93658670  1
  Zn  Zn159  1  0.93749098  0.18847836  0.43681215  1
  Zn  Zn160  1  0.93032402  0.19164373  0.93692972  1
  Zn  Zn161  1  0.93858382  0.68905350  0.43732862  1
  Zn  Zn162  1  0.93297945  0.69454469  0.93432548  1
  Zn  Zn163  1  0.06155095  0.31075541  0.06205045  1
  Zn  Zn164  1  0.06261395  0.31304881  0.56310037  1
  Zn  Zn165  1  0.06501555  0.81126668  0.06645898  1
  Zn  Zn166  1  0.07092912  0.81012923  0.55998435  1
  Zn  Zn167  1  0.56225683  0.31071465  0.06476419  1
  Zn  Zn168  1  0.56345950  0.31727874  0.56082521  1
  Zn  Zn169  1  0.56935809  0.81267426  0.06103016  1
  Zn  Zn170  1  0.55950658  0.81227576  0.56212144  1
  O  O171  1  0.12816501  0.11974608  0.11049839  1
  O  O172  1  0.11956648  0.12063070  0.61957223  1
  O  O173  1  0.12242318  0.60826289  0.12437960  1
  O  O174  1  0.11405236  0.62296127  0.62846174  1
  O  O175  1  0.61134844  0.12188553  0.12795186  1
  O  O176  1  0.61852542  0.11983309  0.62130056  1
  O  O177  1  0.62747813  0.60980883  0.11905176  1
  O  O178  1  0.62428118  0.61121831  0.62922897  1
  O  O179  1  0.38543298  0.37817018  0.37606094  1
  O  O180  1  0.38162215  0.38339216  0.88152631  1
  O  O181  1  0.37922004  0.88623977  0.37464764  1
  O  O182  1  0.38105955  0.88026824  0.87743866  1
  O  O183  1  0.88115650  0.38163412  0.37460891  1
  O  O184  1  0.88052151  0.38539926  0.88245064  1
  O  O185  1  0.88320649  0.88042425  0.38098591  1
  O  O186  1  0.88871200  0.88227458  0.87042727  1
  O  O187  1  0.25605144  0.00197288  0.36587866  1
  O  O188  1  0.26019815  0.00114374  0.86887005  1
  O  O189  1  0.24603750  0.50158282  0.35858877  1
  O  O190  1  0.26020344  0.49290060  0.86502067  1
  O  O191  1  0.76120432  0.00575465  0.37179155  1
  O  O192  1  0.75653533  -0.00414014  0.86155378  1
  O  O193  1  0.75972615  0.51458970  0.38283718  1
  O  O194  1  0.75985346  0.49550358  0.86448324  1
  O  O195  1  0.23958154  0.49442758  0.13197457  1
  O  O196  1  0.25473958  0.48922143  0.63412525  1
  O  O197  1  0.24814498  0.99481891  0.12948220  1
  O  O198  1  0.23659465  1.00241394  0.63459889  1
  O  O199  1  0.74249367  0.48876966  0.12144439  1
  O  O200  1  0.74515921  0.49535222  0.62950586  1
  O  O201  1  0.74339122  0.99662127  0.14036545  1
  O  O202  1  0.74593447  0.99282009  0.62927574  1
  O  O203  1  0.00554353  0.37077923  0.26055158  1
  O  O204  1  0.00601869  0.37303129  0.75656344  1
  O  O205  1  -0.00224208  0.85952755  0.26297785  1
  O  O206  1  0.00578985  0.86830460  0.75462092  1
  O  O207  1  0.51064447  0.37298092  0.26085571  1
  O  O208  1  0.50659794  0.37655604  0.75332104  1
  O  O209  1  0.49318722  0.86185721  0.26618016  1
  O  O210  1  0.50723706  0.87305734  0.75994250  1
  O  O211  1  0.48974387  0.12467557  0.25337681  1
  O  O212  1  0.49119749  0.13232123  0.74020041  1
  O  O213  1  0.49829752  0.64188724  0.25896629  1
  O  O214  1  0.49139118  0.62401737  0.74896362  1
  O  O215  1  0.98127864  0.12562909  0.25858811  1
  O  O216  1  0.99377366  0.13087120  0.74607625  1
  O  O217  1  0.99406713  0.63670472  0.24969391  1
  O  O218  1  0.99384239  0.63450954  0.73917435  1
  O  O219  1  0.36711322  0.26242010  -0.00060784  1
  O  O220  1  0.36111498  0.25104717  0.50224448  1
  O  O221  1  0.36893127  0.75896556  0.00104109  1
  O  O222  1  0.35932078  0.70990223  0.51076164  1
  O  O223  1  0.86770207  0.26104456  0.00726010  1
  O  O224  1  0.86733631  0.24999414  0.50822834  1
  O  O225  1  0.85731553  0.74423023  0.00564718  1
  O  O226  1  0.87020184  0.76095295  0.49951013  1
  O  O227  1  0.13404610  0.24550570  0.49627143  1
  O  O228  1  0.13076971  0.23814995  1.00058843  1
  O  O229  1  0.12954454  0.72594713  0.50834666  1
  O  O230  1  0.13426360  0.75564968  0.99066903  1
  O  O231  1  0.63082463  0.24334328  0.49579512  1
  O  O232  1  0.64149797  0.25912303  0.99893965  1
  O  O233  1  0.64082196  0.75408298  0.50141162  1
  O  O234  1  0.63113086  0.74033635  0.99530736  1
  O  O235  1  0.49920409  0.23936829  0.12907900  1
  O  O236  1  0.49289841  0.24853140  0.62726957  1
  O  O237  1  0.49399887  0.75358031  0.13844020  1
  O  O238  1  0.49634649  0.74715094  0.62886330  1
  O  O239  1  0.98220374  0.25714116  0.12728253  1
  O  O240  1  0.99272651  0.24607694  0.63233034  1
  O  O241  1  0.99981829  0.74770776  0.13704181  1
  O  O242  1  1.00155945  0.74431541  0.63570968  1
  O  O243  1  0.00654975  0.25752306  0.37309690  1
  O  O244  1  -0.00403193  0.26329268  0.86872842  1
  O  O245  1  0.00198934  0.75892247  0.36621100  1
  O  O246  1  0.00466957  0.76175791  0.86513867  1
  O  O247  1  0.50869514  0.25726723  0.37649428  1
  O  O248  1  0.50049725  0.26463465  0.86426826  1
  O  O249  1  0.49735913  0.76125785  0.36841489  1
  O  O250  1  0.51144162  0.75556684  0.87040991  1
  O  O251  1  0.23856590  0.13450318  0.49996898  1
  O  O252  1  0.25546480  0.13741025  1.00159335  1
  O  O253  1  0.23414513  0.61501557  0.47974864  1
  O  O254  1  0.25319568  0.63981379  1.00216215  1
  O  O255  1  0.74639345  0.12638425  0.49077911  1
  O  O256  1  0.75990125  0.14926980  1.00095025  1
  O  O257  1  0.75687266  0.63828332  0.49121583  1
  O  O258  1  0.73663184  0.63939356  1.00313532  1
  O  O259  1  0.25537478  0.36445804  0.00515131  1
  O  O260  1  0.24733528  0.37127911  0.50667589  1
  O  O261  1  0.25881011  0.87035220  0.00793314  1
  O  O262  1  0.23328533  0.86888432  0.50642838  1
  O  O263  1  0.76171792  0.37281074  0.00776129  1
  O  O264  1  0.75092175  0.36731279  0.50754847  1
  O  O265  1  0.74350011  0.85505133  0.00247628  1
  O  O266  1  0.75805895  0.86490201  0.50038800  1
  O  O267  1  0.12951039  0.49207383  0.23896889  1
  O  O268  1  0.13517560  0.48529318  0.75539280  1
  O  O269  1  0.14238452  1.01236957  0.24181755  1
  O  O270  1  0.13068223  0.99662067  0.74745318  1
  O  O271  1  0.62275860  0.49309476  0.23531915  1
  O  O272  1  0.63178836  0.49418705  0.74591051  1
  O  O273  1  0.64367157  1.00373535  0.25959664  1
  O  O274  1  0.63361538  0.99333098  0.74304684  1
  O  O275  1  0.36564962  0.00747157  0.25760850  1
  O  O276  1  0.36631858  0.00666807  0.75634031  1
  O  O277  1  0.36431177  0.50144537  0.24667176  1
  O  O278  1  0.36643075  0.50361321  0.75979904  1
  O  O279  1  0.86426913  0.01026723  0.25678777  1
  O  O280  1  0.86829969  0.00589963  0.75426498  1
  O  O281  1  0.88069805  0.50803720  0.26433903  1
  O  O282  1  0.86784466  0.50639573  0.75785929  1
  O  O283  1  0.11754581  0.37049677  0.36943565  1
  O  O284  1  0.11527622  0.37241237  0.87043867  1
  O  O285  1  0.10933249  0.88497100  0.37282705  1
  O  O286  1  0.11415429  0.87830171  0.86610436  1
  O  O287  1  0.62278712  0.37208577  0.36737328  1
  O  O288  1  0.61776224  0.37785599  0.86765821  1
  O  O289  1  0.61180914  0.87805257  0.37589478  1
  O  O290  1  0.61739044  0.86403043  0.86534791  1
  O  O291  1  0.38456568  0.13129109  0.13331098  1
  O  O292  1  0.37735502  0.13241083  0.62926040  1
  O  O293  1  0.37212547  0.63882652  0.12217483  1
  O  O294  1  0.38316685  0.61115076  0.64263882  1
  O  O295  1  0.86893445  0.13306046  0.14049360  1
  O  O296  1  0.88257102  0.12707575  0.63240363  1
  O  O297  1  0.87473161  0.61975059  0.14065294  1
  O  O298  1  0.88374426  0.62629205  0.63473708  1
  O  O299  1  0.25183808  0.25808801  0.11731665  1
  O  O300  1  0.25309384  0.25804233  0.61786108  1
  O  O301  1  0.25663932  0.75885242  0.11767920  1
  O  O302  1  0.25899335  0.75684296  0.62816554  1
  O  O303  1  0.75847297  0.26180831  0.11818724  1
  O  O304  1  0.75374298  0.25419992  0.62342171  1
  O  O305  1  0.75134451  0.74784070  0.12020761  1
  O  O306  1  0.75508337  0.75471128  0.61225846  1
  O  O307  1  0.24251284  0.25006813  0.38393747  1
  O  O308  1  0.24703441  0.24879764  0.88482208  1
  O  O309  1  0.25158459  0.74161406  0.36962794  1
  O  O310  1  0.23638730  0.75793525  0.88309956  1
  O  O311  1  0.74647372  0.24127175  0.38155807  1
  O  O312  1  0.75088464  0.26223777  0.89032834  1
  O  O313  1  0.75395696  0.73888976  0.38600254  1
  O  O314  1  0.73949591  0.75346890  0.87852099  1
  O  O315  1  0.00779108  0.13022125  -0.00083928  1
  O  O316  1  0.01245599  0.13309501  0.50678935  1
  O  O317  1  -0.00668566  0.62708657  -0.00159060  1
  O  O318  1  0.00734524  0.62674841  0.51263071  1
  O  O319  1  0.50110123  0.13610216  0.00564348  1
  O  O320  1  0.50415162  0.11735615  0.50459996  1
  O  O321  1  0.51734328  0.63233717  0.00124957  1
  O  O322  1  0.50416174  0.61473051  0.49525467  1
  O  O323  1  0.50039802  0.38128600  0.48706234  1
  O  O324  1  0.49071509  0.36911550  0.99140821  1
  O  O325  1  0.50165132  0.88207799  0.48824632  1
  O  O326  1  0.49081522  0.86731168  0.98310276  1
  O  O327  1  0.99889306  0.37454683  0.48862555  1
  O  O328  1  0.98689890  0.37133746  0.99393348  1
  O  O329  1  0.99597890  0.86589667  0.48690754  1
  O  O330  1  1.00428496  0.87078842  0.98504661  1
  O  O331  1  0.50197362  0.49270700  0.37923044  1
  O  O332  1  0.49145567  0.48845416  0.87236812  1
  O  O333  1  0.49319280  0.98926674  0.38130596  1
  O  O334  1  0.48641494  0.99180422  0.86705181  1
  O  O335  1  0.99432959  0.49082939  0.37604637  1
  O  O336  1  0.99001304  0.48840932  0.87629448  1
  O  O337  1  0.98770439  0.98784934  0.36625236  1
  O  O338  1  0.99074147  0.98787023  0.87212768  1
  O  O339  1  0.01891854  -0.00023296  0.14015248  1
  O  O340  1  0.01293533  0.00770006  0.63198126  1
  O  O341  1  0.01394362  0.49921109  0.12764403  1
  O  O342  1  -0.00389725  0.51420701  0.62684423  1
  O  O343  1  0.48944279  0.02497603  0.11946721  1
  O  O344  1  0.50477887  0.00506814  0.61693955  1
  O  O345  1  0.51186196  0.49410141  0.12289751  1
  O  O346  1  0.50972137  0.49849040  0.61271483  1
  O  O347  1  0.24401266  0.37982653  0.24359840  1
  O  O348  1  0.24327695  0.37942191  0.74276827  1
  O  O349  1  0.25729219  0.88416770  0.23398613  1
  O  O350  1  0.24104875  0.88847498  0.75148240  1
  O  O351  1  0.73900864  0.37191063  0.24335638  1
  O  O352  1  0.74331500  0.38490972  0.74473876  1
  O  O353  1  0.75207673  0.88529040  0.25974703  1
  O  O354  1  0.74800014  0.88198670  0.74203816  1
  O  O355  1  0.26312420  0.11951030  0.24866054  1
  O  O356  1  0.25233726  0.11645335  0.75266134  1
  O  O357  1  0.24790221  0.61656069  0.25223856  1
  O  O358  1  0.25580199  0.61259070  0.74735632  1
  O  O359  1  0.75839557  0.12347033  0.26086013  1
  O  O360  1  0.76320376  0.11238938  0.73880963  1
  O  O361  1  0.75913859  0.63120683  0.26617440  1
  O  O362  1  0.75836539  0.61402510  0.74357865  1
  O  O363  1  0.37346445  0.11491042  0.36762429  1
  O  O364  1  0.37493528  0.11816838  0.86839788  1
  O  O365  1  0.36131451  0.61968563  0.36514659  1
  O  O366  1  0.38196069  0.61155920  0.87148184  1
  O  O367  1  0.86824948  0.11742335  0.37306900  1
  O  O368  1  0.88042007  0.11651560  0.86352837  1
  O  O369  1  0.87286654  0.61929554  0.36852215  1
  O  O370  1  0.88018322  0.61857135  0.85935709  1
  O  O371  1  0.12850562  0.38133338  0.12776431  1
  O  O372  1  0.13302160  0.37104322  0.63412675  1
  O  O373  1  0.13791554  0.88733866  0.11659025  1
  O  O374  1  0.12012571  0.88394132  0.63878453  1
  O  O375  1  0.63015993  0.38342871  0.13026417  1
  O  O376  1  0.63032775  0.38481175  0.63238549  1
  O  O377  1  0.58536571  0.89741777  0.12823166  1
  O  O378  1  0.63131059  0.88053996  0.62872225  1
  O  O379  1  0.12427178  0.25389895  0.25410077  1
  O  O380  1  0.11759677  0.25876468  0.75378586  1
  O  O381  1  0.11438621  0.74522317  0.24499517  1
  O  O382  1  0.11944236  0.75919069  0.75774435  1
  O  O383  1  0.62613936  0.25779091  0.25669204  1
  O  O384  1  0.61857846  0.26817668  0.74496550  1
  O  O385  1  0.61230992  0.74867448  0.24528594  1
  O  O386  1  0.62856798  0.75340965  0.75613427  1
  O  O387  1  0.37818561  0.23976193  0.25124246  1
  O  O388  1  0.37853737  0.24781990  0.74481936  1
  O  O389  1  0.38155679  0.74771021  0.23816833  1
  O  O390  1  0.37505753  0.73464409  0.75841568  1
  O  O391  1  0.87321931  0.23966162  0.24473977  1
  O  O392  1  0.87760940  0.24217391  0.74705916  1
  O  O393  1  0.88454725  0.74064572  0.24951414  1
  O  O394  1  0.88232827  0.74349172  0.74870966  1
  O  O395  1  0.38679508  0.50197040  0.49495650  1
  O  O396  1  0.36593352  0.48751243  0.99375073  1
  O  O397  1  0.38408702  1.00914718  0.49120136  1
  O  O398  1  0.37011348  0.98699197  0.99061702  1
  O  O399  1  0.88055938  0.49855303  0.48891713  1
  O  O400  1  0.86635848  0.49671873  0.98976877  1
  O  O401  1  0.87248659  0.98568791  0.49152536  1
  O  O402  1  0.85843536  1.00102237  0.98618150  1
  O  O403  1  0.12930003  0.01579226  0.00695940  1
  O  O404  1  0.12752474  0.01220092  0.50980783  1
  O  O405  1  0.12783787  0.49523267  0.00940138  1
  O  O406  1  0.11720689  0.51611487  0.50023620  1
  O  O407  1  0.63632307  0.00843386  -0.01273888  1
  O  O408  1  0.61714160  0.00471392  0.50438410  1
  O  O409  1  0.62915195  0.51111239  0.00836147  1
  O  O410  1  0.61775863  0.49347731  0.50862142  1
  O  O411  1  0.36912133  0.37349611  0.11762723  1
  O  O412  1  0.36617884  0.36968460  0.62140011  1
  O  O413  1  0.37602491  0.86723443  0.11395908  1
  O  O414  1  0.37406006  0.88097913  0.62081373  1
  O  O415  1  0.86918157  0.37423450  0.12109252  1
  O  O416  1  0.86804285  0.36915754  0.62602718  1
  O  O417  1  0.88116674  0.87784481  0.12618658  1
  O  O418  1  0.87221915  0.87438218  0.61593607  1
  O  O419  1  0.12531834  0.13007918  0.38250703  1
  O  O420  1  0.12614616  0.12606258  0.89009351  1
  O  O421  1  0.12589151  0.62351082  0.37895202  1
  O  O422  1  0.11927478  0.63660796  0.87147547  1
  O  O423  1  0.63304786  0.12808273  0.38115743  1
  O  O424  1  0.63340488  0.13893201  0.84841598  1
  O  O425  1  0.64213812  0.61823771  0.37246703  1
  O  O426  1  0.62500094  0.62849869  0.88688708  1
