# generated using pymatgen
data_V85Zn86O256
_symmetry_space_group_name_H-M   'P 1'
_cell_length_a   16.94808476
_cell_length_b   16.94202488
_cell_length_c   16.93715767
_cell_angle_alpha   90.02040392
_cell_angle_beta   90.01472131
_cell_angle_gamma   90.02551882
_symmetry_Int_Tables_number   1
_chemical_formula_structural   V85Zn86O256
_chemical_formula_sum   'V85 Zn86 O256'
_cell_volume   4863.24767574
_cell_formula_units_Z   1
loop_
 _symmetry_equiv_pos_site_id
 _symmetry_equiv_pos_as_xyz
  1  'x, y, z'
loop_
 _atom_site_type_symbol
 _atom_site_label
 _atom_site_symmetry_multiplicity
 _atom_site_fract_x
 _atom_site_fract_y
 _atom_site_fract_z
 _atom_site_occupancy
  V  V0  1  0.87734376  0.24934936  0.62451056  1
  V  V1  1  0.75485446  0.75088454  -0.00883496  1
  V  V2  1  0.87218315  0.75380682  0.62591276  1
  V  V3  1  0.49853289  -0.00204891  -0.00285590  1
  V  V4  1  -0.00083297  0.75165850  0.75359571  1
  V  V5  1  0.87248029  0.61677432  0.76028225  1
  V  V6  1  0.50388247  0.36999109  0.87290712  1
  V  V7  1  0.37660531  0.63113409  0.74956692  1
  V  V8  1  0.62632727  0.13790196  -0.00813694  1
  V  V9  1  0.12391180  0.87753625  0.75460151  1
  V  V10  1  0.74871710  0.49883896  0.24669687  1
  V  V11  1  0.13167674  0.38410920  0.75304093  1
  V  V12  1  0.48463376  0.24311645  0.74832902  1
  V  V13  1  0.12414113  0.74939795  0.38191813  1
  V  V14  1  0.12199560  0.87609519  0.25395497  1
  V  V15  1  0.74640163  0.75221630  0.50215414  1
  V  V16  1  0.87347598  0.62584551  0.24885255  1
  V  V17  1  0.24939824  0.87372293  0.62839622  1
  V  V18  1  0.37201496  0.37480811  0.00134719  1
  V  V19  1  0.04627858  0.40640234  0.32905856  1
  V  V20  1  0.12427507  0.24751288  0.87991451  1
  V  V21  1  -0.00046606  -0.00461129  0.49129184  1
  V  V22  1  0.37961094  0.37522944  0.50773500  1
  V  V23  1  0.87159662  0.12577666  0.25875697  1
  V  V24  1  0.50137651  0.24970578  0.25299556  1
  V  V25  1  0.74805301  0.00195561  0.25609207  1
  V  V26  1  0.24964662  0.62191532  0.38593747  1
  V  V27  1  -0.00669887  0.50226058  -0.00032970  1
  V  V28  1  0.61725452  0.50177748  0.61626723  1
  V  V29  1  0.87122983  0.23953388  0.11857335  1
  V  V30  1  0.34586556  0.60590011  0.21726614  1
  V  V31  1  0.25327429  0.86403909  0.12229332  1
  V  V32  1  0.13737361  0.75251123  0.88111737  1
  V  V33  1  0.50440513  0.86821377  0.86430157  1
  V  V34  1  0.00179636  0.62086506  0.12647659  1
  V  V35  1  0.12221838  -0.00070280  0.62706100  1
  V  V36  1  0.37011363  0.87939270  0.49319693  1
  V  V37  1  0.62128667  0.37027138  0.74610768  1
  V  V38  1  -0.00450844  0.00863933  0.00702216  1
  V  V39  1  0.87590074  0.49673215  0.37580007  1
  V  V40  1  -0.00277701  0.75474491  0.25489317  1
  V  V41  1  0.36898272  0.25255654  0.12785060  1
  V  V42  1  -0.00032332  0.24947795  0.75177773  1
  V  V43  1  0.00658214  0.62776251  0.62273826  1
  V  V44  1  0.37880088  0.12022312  0.26060281  1
  V  V45  1  0.87378492  0.12263345  0.75256268  1
  V  V46  1  0.87019051  -0.00497613  0.88167961  1
  V  V47  1  0.62337436  0.87164357  0.24389339  1
  V  V48  1  0.12614213  0.24878047  0.37450466  1
  V  V49  1  0.12811409  0.62671145  0.00441271  1
  V  V50  1  0.01071403  0.50180378  0.50226655  1
  V  V51  1  0.75384439  0.24326183  0.50056578  1
  V  V52  1  0.62118508  0.74807678  0.37119908  1
  V  V53  1  0.25832073  0.12435132  0.87351725  1
  V  V54  1  0.25630373  0.24986785  0.50935348  1
  V  V55  1  0.62903583  0.62466405  -0.01082613  1
  V  V56  1  0.74831058  0.62536183  0.37484097  1
  V  V57  1  0.75240553  0.38106054  0.62225637  1
  V  V58  1  0.38167302  0.50835420  0.38163451  1
  V  V59  1  -0.00174518  0.87456180  0.88891723  1
  V  V60  1  0.24689579  0.61161620  0.87264877  1
  V  V61  1  0.00012766  0.12274511  0.62486472  1
  V  V62  1  0.75859956  0.87346432  0.12109904  1
  V  V63  1  0.50240776  0.62311348  0.12165739  1
  V  V64  1  0.38444218  0.75475546  0.62809560  1
  V  V65  1  0.63200187  0.24401518  0.37690870  1
  V  V66  1  0.49222935  0.88014788  0.36995836  1
  V  V67  1  0.00315080  0.24276236  0.24610349  1
  V  V68  1  0.48748088  0.12597588  0.62323349  1
  V  V69  1  0.50320424  0.38122534  0.38300000  1
  V  V70  1  0.50025793  0.12359406  0.12466028  1
  V  V71  1  0.74818334  -0.00803811  0.74734508  1
  V  V72  1  0.37404302  0.49717151  0.86669401  1
  V  V73  1  0.62674790  -0.00485803  0.62269213  1
  V  V74  1  0.88425892  0.37508250  0.49722646  1
  V  V75  1  0.86548019  0.37578429  0.00142919  1
  V  V76  1  0.37377257  0.86207750  0.00132131  1
  V  V77  1  -0.00293316  0.37963853  0.87725274  1
  V  V78  1  0.25645224  -0.00331027  0.25514356  1
  V  V79  1  0.12419602  0.00644253  0.12688284  1
  V  V80  1  0.87604548  0.87244425  0.49165216  1
  V  V81  1  0.48558379  0.74654322  0.24166678  1
  V  V82  1  0.62273917  0.37422787  0.25000861  1
  V  V83  1  0.63027678  0.12121120  0.50316343  1
  V  V84  1  0.12601154  0.12501498  0.50091713  1
  Zn  Zn85  1  0.62485774  0.49793438  0.12163354  1
  Zn  Zn86  1  0.50177748  0.50013338  -0.00381400  1
  Zn  Zn87  1  0.24441376  0.74856747  0.50517244  1
  Zn  Zn88  1  0.12587908  0.12562419  0.00450885  1
  Zn  Zn89  1  0.75338373  0.14140980  0.88685490  1
  Zn  Zn90  1  0.61296008  0.61811108  0.49238457  1
  Zn  Zn91  1  0.24819185  0.24882249  0.00616347  1
  Zn  Zn92  1  0.62542545  0.86396575  0.73746693  1
  Zn  Zn93  1  0.13516780  0.51091391  0.63003453  1
  Zn  Zn94  1  0.87718700  0.75244886  0.12089370  1
  Zn  Zn95  1  0.17203624  0.40853356  0.19300772  1
  Zn  Zn96  1  0.74492113  0.36771134  0.12200062  1
  Zn  Zn97  1  0.62551381  0.74139843  0.86379529  1
  Zn  Zn98  1  0.74622466  0.50581549  0.75917635  1
  Zn  Zn99  1  0.87294185  0.00101730  0.37637374  1
  Zn  Zn100  1  0.25839312  0.37913436  0.63356211  1
  Zn  Zn101  1  0.37824085  0.00165945  0.86891037  1
  Zn  Zn102  1  0.62716394  0.00115065  0.12188802  1
  Zn  Zn103  1  0.49628109  0.00130646  0.49443475  1
  Zn  Zn104  1  0.25589755  0.11967856  0.38010985  1
  Zn  Zn105  1  0.49908712  0.62799688  0.62323718  1
  Zn  Zn106  1  0.25449686  0.00851090  0.74780983  1
  Zn  Zn107  1  0.19055843  0.18583329  0.19346951  1
  Zn  Zn108  1  0.18772537  0.19196087  0.69153107  1
  Zn  Zn109  1  0.18214355  0.68865276  0.18864750  1
  Zn  Zn110  1  0.19031333  0.69004819  0.69477354  1
  Zn  Zn111  1  0.68869712  0.18457392  0.18538838  1
  Zn  Zn112  1  0.71222445  0.21377153  0.72824589  1
  Zn  Zn113  1  0.68453217  0.68817278  0.18180101  1
  Zn  Zn114  1  0.68995111  0.68536450  0.68790266  1
  Zn  Zn115  1  0.31201253  0.31134273  0.32103948  1
  Zn  Zn116  1  0.31145938  0.30904168  0.81771240  1
  Zn  Zn117  1  0.30991464  0.80429992  0.30963933  1
  Zn  Zn118  1  0.31550926  0.81716287  0.81301938  1
  Zn  Zn119  1  0.81308166  0.31147702  0.31208587  1
  Zn  Zn120  1  0.79019347  0.34392732  0.83626501  1
  Zn  Zn121  1  0.81036460  0.81356830  0.31260913  1
  Zn  Zn122  1  0.81340827  0.81341016  0.81136320  1
  Zn  Zn123  1  0.19947527  0.44169526  0.44382397  1
  Zn  Zn124  1  0.16757919  0.42166255  0.98522492  1
  Zn  Zn125  1  0.18622734  0.93601459  0.43642690  1
  Zn  Zn126  1  0.18877738  0.94123019  0.94188183  1
  Zn  Zn127  1  0.69195565  0.43451836  0.43777076  1
  Zn  Zn128  1  0.68487942  0.44257248  0.93399027  1
  Zn  Zn129  1  0.68570703  0.93248644  0.43588961  1
  Zn  Zn130  1  0.68453836  0.93978608  0.93802436  1
  Zn  Zn131  1  0.31213017  0.06074273  0.06239728  1
  Zn  Zn132  1  0.31064137  0.05695945  0.56187932  1
  Zn  Zn133  1  0.31741904  0.56938719  0.04854421  1
  Zn  Zn134  1  0.31362124  0.56047964  0.56584597  1
  Zn  Zn135  1  0.80882528  0.06216585  0.06547248  1
  Zn  Zn136  1  0.81105713  0.05891998  0.56493065  1
  Zn  Zn137  1  0.81172640  0.56555530  0.06165522  1
  Zn  Zn138  1  0.81453777  0.56625317  0.56489512  1
  Zn  Zn139  1  0.34294424  0.43709019  0.19224543  1
  Zn  Zn140  1  0.43733937  0.44092085  0.68975754  1
  Zn  Zn141  1  0.43641238  0.93742768  0.18243028  1
  Zn  Zn142  1  0.43483177  0.94497335  0.68739123  1
  Zn  Zn143  1  0.93308355  0.43721965  0.18010617  1
  Zn  Zn144  1  0.94353987  0.43856892  0.68650238  1
  Zn  Zn145  1  0.93743931  0.93957089  0.18924377  1
  Zn  Zn146  1  0.93654426  0.93446790  0.68743941  1
  Zn  Zn147  1  0.06311915  0.06467243  0.31210776  1
  Zn  Zn148  1  0.06324553  0.06184565  0.81736861  1
  Zn  Zn149  1  0.06780073  0.57176421  0.31005555  1
  Zn  Zn150  1  0.05645206  0.56429740  0.81702505  1
  Zn  Zn151  1  0.56632334  0.06098739  0.31342834  1
  Zn  Zn152  1  0.56252688  0.06161912  0.81097589  1
  Zn  Zn153  1  0.55869580  0.56138020  0.30855924  1
  Zn  Zn154  1  0.55931082  0.55902436  0.80586887  1
  Zn  Zn155  1  0.44247288  0.19143128  0.44045260  1
  Zn  Zn156  1  0.44048671  0.19019225  0.93852304  1
  Zn  Zn157  1  0.43571670  0.69313242  0.44159560  1
  Zn  Zn158  1  0.43830417  0.68734570  0.93556015  1
  Zn  Zn159  1  0.94404541  0.18946615  0.43366155  1
  Zn  Zn160  1  0.93729340  0.18665729  0.93735658  1
  Zn  Zn161  1  0.93787421  0.68492429  0.43776258  1
  Zn  Zn162  1  0.93720920  0.69062939  0.93838060  1
  Zn  Zn163  1  0.05690206  0.31133596  0.06784317  1
  Zn  Zn164  1  0.06716199  0.31320783  0.56517703  1
  Zn  Zn165  1  0.06447686  0.81238395  0.06784163  1
  Zn  Zn166  1  0.05905858  0.81474249  0.56412199  1
  Zn  Zn167  1  0.55556319  0.31385290  0.06521403  1
  Zn  Zn168  1  0.56328046  0.30666119  0.56583817  1
  Zn  Zn169  1  0.56533901  0.80932734  0.05772802  1
  Zn  Zn170  1  0.55981248  0.81191553  0.55631092  1
  O  O171  1  0.12991451  0.11057286  0.12801784  1
  O  O172  1  0.11972365  0.12034154  0.62134135  1
  O  O173  1  0.11606674  0.62854803  0.11747939  1
  O  O174  1  0.11177444  0.62968923  0.63412277  1
  O  O175  1  0.61308081  0.12520326  0.11861813  1
  O  O176  1  0.61639194  0.11392836  0.61021735  1
  O  O177  1  0.61791707  0.62341286  0.11244509  1
  O  O178  1  0.62709782  0.60895485  0.62434983  1
  O  O179  1  0.38643270  0.38436664  0.38213007  1
  O  O180  1  0.38346476  0.37958237  0.87667550  1
  O  O181  1  0.38000773  0.86579076  0.37999404  1
  O  O182  1  0.38454822  0.87657948  0.88620611  1
  O  O183  1  0.87159591  0.38104307  0.38610185  1
  O  O184  1  0.89242079  0.35803388  0.89027274  1
  O  O185  1  0.87492096  0.87449674  0.38751738  1
  O  O186  1  0.88439609  0.88667535  0.87192037  1
  O  O187  1  0.24512227  0.00026012  0.35994279  1
  O  O188  1  0.24793484  0.01517028  0.87620504  1
  O  O189  1  0.25791617  0.51549715  0.37611115  1
  O  O190  1  0.25648721  0.51012032  0.88064101  1
  O  O191  1  0.75160012  -0.00883915  0.36031705  1
  O  O192  1  0.75738698  0.00268202  0.86965343  1
  O  O193  1  0.75411126  0.50453250  0.36530891  1
  O  O194  1  0.76359222  0.45497054  0.85836820  1
  O  O195  1  0.28880337  0.53342991  0.15268888  1
  O  O196  1  0.24423517  0.49129616  0.61789093  1
  O  O197  1  0.24330194  0.99235256  0.13521196  1
  O  O198  1  0.24046117  0.98940597  0.62558941  1
  O  O199  1  0.74981329  0.49759544  0.13788177  1
  O  O200  1  0.74498626  0.49321639  0.62629901  1
  O  O201  1  0.74734830  0.99029216  0.13404652  1
  O  O202  1  0.73917619  1.00048526  0.63240059  1
  O  O203  1  -0.01264032  0.36080491  0.25333503  1
  O  O204  1  0.00491691  0.36979103  0.75996381  1
  O  O205  1  0.00829314  0.86629452  0.24677808  1
  O  O206  1  0.00614693  0.87157738  0.76084327  1
  O  O207  1  0.51491408  0.36898523  0.26462086  1
  O  O208  1  0.50162338  0.36547885  0.75225056  1
  O  O209  1  0.50248910  0.86623853  0.24947001  1
  O  O210  1  0.50048055  0.87997071  0.76281571  1
  O  O211  1  0.49713863  0.12642250  0.24336905  1
  O  O212  1  0.50395480  0.13577332  0.73945248  1
  O  O213  1  0.50316923  0.63180175  0.23450518  1
  O  O214  1  0.48252596  0.62015599  0.74414875  1
  O  O215  1  0.99158638  0.13565766  0.25383657  1
  O  O216  1  0.99188948  0.12533789  0.74651374  1
  O  O217  1  0.99536500  0.63074853  0.24275867  1
  O  O218  1  0.99263745  0.63304856  0.74487372  1
  O  O219  1  0.37815773  0.25625244  0.01087357  1
  O  O220  1  0.36622584  0.25943265  0.49226484  1
  O  O221  1  0.37610431  0.76361840  -0.00185540  1
  O  O222  1  0.36837681  0.76327418  0.51064877  1
  O  O223  1  0.88011751  0.25338782  0.01334157  1
  O  O224  1  0.87566522  0.25653619  0.50330316  1
  O  O225  1  0.86002121  0.74740701  0.00206427  1
  O  O226  1  0.87107363  0.75490020  0.50459191  1
  O  O227  1  0.13009037  0.24406458  0.49470084  1
  O  O228  1  0.12279085  0.24778040  0.99071371  1
  O  O229  1  0.12104922  0.75782572  0.48544979  1
  O  O230  1  0.11556348  0.73872806  0.99248488  1
  O  O231  1  0.63248555  0.24168222  0.49572114  1
  O  O232  1  0.61610327  0.23643771  1.00240069  1
  O  O233  1  0.63279877  0.75102385  0.49014483  1
  O  O234  1  0.63525402  0.74179495  0.99268623  1
  O  O235  1  0.49245955  0.24234808  0.13468962  1
  O  O236  1  0.49949771  0.23460612  0.63086258  1
  O  O237  1  0.50976494  0.74127967  0.13331027  1
  O  O238  1  0.48682476  0.75680267  0.62695372  1
  O  O239  1  0.98671612  0.25070628  0.13485540  1
  O  O240  1  0.99750353  0.24272899  0.63021993  1
  O  O241  1  0.99852141  0.74242440  0.13644640  1
  O  O242  1  0.99447570  0.74569079  0.63197497  1
  O  O243  1  0.01543748  0.25565453  0.36851614  1
  O  O244  1  0.00727130  0.25255431  0.87056846  1
  O  O245  1  0.00783389  0.73992975  0.36260945  1
  O  O246  1  0.00604876  0.75935179  0.87298061  1
  O  O247  1  0.51298839  0.25634906  0.37090645  1
  O  O248  1  0.49587816  0.25365265  0.85795378  1
  O  O249  1  0.50354400  0.75758452  0.36247760  1
  O  O250  1  0.50183695  0.76503707  0.87766227  1
  O  O251  1  0.24527663  0.13033799  0.49987773  1
  O  O252  1  0.24620702  0.12733318  0.99163078  1
  O  O253  1  0.25024729  0.62916389  0.48932012  1
  O  O254  1  0.23860899  0.62634649  0.98920383  1
  O  O255  1  0.74396336  0.13151843  0.50362666  1
  O  O256  1  0.73196950  0.12297213  1.00247462  1
  O  O257  1  0.75090958  0.63500714  0.49015892  1
  O  O258  1  0.74268139  0.63834216  1.00386770  1
  O  O259  1  0.26840030  0.36846043  -0.01051810  1
  O  O260  1  0.26319972  0.36554929  0.49960771  1
  O  O261  1  0.26518683  0.88136038  0.00587226  1
  O  O262  1  0.25317128  0.87427146  0.50831812  1
  O  O263  1  0.76174938  0.37699154  0.00310722  1
  O  O264  1  0.76091881  0.36741719  0.50782098  1
  O  O265  1  0.74112126  0.86355139  0.00914154  1
  O  O266  1  0.75757956  0.86053224  0.49467260  1
  O  O267  1  0.10228132  0.47274759  0.26497035  1
  O  O268  1  0.11856357  0.48626305  0.75570881  1
  O  O269  1  0.12877460  0.99315086  0.24623690  1
  O  O270  1  0.12524873  0.99370705  0.74506997  1
  O  O271  1  0.63213478  0.49095091  0.24910976  1
  O  O272  1  0.62582180  0.48867805  0.73716431  1
  O  O273  1  0.63116380  0.99135569  0.24640665  1
  O  O274  1  0.63293556  0.99954081  0.74073335  1
  O  O275  1  0.36819703  0.00767129  0.24410997  1
  O  O276  1  0.36654602  -0.00247037  0.75611857  1
  O  O277  1  0.38699443  0.51662982  0.26784288  1
  O  O278  1  0.37278364  0.50541882  0.76086368  1
  O  O279  1  0.86896636  0.00801676  0.25254869  1
  O  O280  1  0.87144845  0.00374588  0.75659048  1
  O  O281  1  0.86796994  0.50305886  0.25523558  1
  O  O282  1  0.87968860  0.51525917  0.74299775  1
  O  O283  1  0.12679746  0.36651301  0.38517269  1
  O  O284  1  0.11508440  0.36835665  0.87447288  1
  O  O285  1  0.13045102  0.86686873  0.36120818  1
  O  O286  1  0.11967425  0.87068229  0.87541349  1
  O  O287  1  0.62175781  0.36805612  0.37282741  1
  O  O288  1  0.61014778  0.37710189  0.86258630  1
  O  O289  1  0.61698694  0.86809845  0.36142329  1
  O  O290  1  0.60964413  0.87608894  0.87502331  1
  O  O291  1  0.38586608  0.13017960  0.13129967  1
  O  O292  1  0.38853956  0.12013328  0.61888285  1
  O  O293  1  0.39242424  0.63574408  0.11927667  1
  O  O294  1  0.37045300  0.63780547  0.63212864  1
  O  O295  1  0.87265916  0.13497667  0.13367294  1
  O  O296  1  0.88385232  0.12602842  0.63052665  1
  O  O297  1  0.88216369  0.62877553  0.13295890  1
  O  O298  1  0.88672163  0.63627326  0.62978648  1
  O  O299  1  0.26505372  0.24281304  0.12612085  1
  O  O300  1  0.24377535  0.25596526  0.61318785  1
  O  O301  1  0.24363426  0.76489690  0.12807805  1
  O  O302  1  0.25126917  0.76286590  0.62512015  1
  O  O303  1  0.76682719  0.25109532  0.13174107  1
  O  O304  1  0.76040781  0.25615422  0.62021757  1
  O  O305  1  0.75056906  0.75796796  0.11635576  1
  O  O306  1  0.75974488  0.74235686  0.61251236  1
  O  O307  1  0.23978153  0.24534363  0.38481214  1
  O  O308  1  0.24214596  0.24054179  0.87994142  1
  O  O309  1  0.24197574  0.74182362  0.38021188  1
  O  O310  1  0.23919245  0.74720815  0.87349021  1
  O  O311  1  0.73863179  0.25411706  0.38240759  1
  O  O312  1  0.74896803  0.24106623  0.83565821  1
  O  O313  1  0.74198561  0.74404419  0.37801325  1
  O  O314  1  0.74913276  0.75708044  0.88832345  1
  O  O315  1  0.00326362  0.11172661  -0.00184237  1
  O  O316  1  0.00565503  0.11878140  0.50591688  1
  O  O317  1  0.00054173  0.62153867  0.00796142  1
  O  O318  1  -0.00442419  0.61498654  0.50962757  1
  O  O319  1  0.50589487  0.11900551  0.00568735  1
  O  O320  1  0.50532111  0.12309921  0.50905150  1
  O  O321  1  0.50869574  0.62797680  0.00621738  1
  O  O322  1  0.50263990  0.63578603  0.50894415  1
  O  O323  1  0.49636411  0.36492921  0.48991048  1
  O  O324  1  0.49240611  0.37420941  0.98868801  1
  O  O325  1  0.48995395  0.87448909  0.48601846  1
  O  O326  1  0.49181475  0.88020395  0.99667015  1
  O  O327  1  0.99095356  0.38222386  0.50795356  1
  O  O328  1  0.99305694  0.38574829  0.99641448  1
  O  O329  1  0.99085765  0.88474326  0.50315323  1
  O  O330  1  1.00335977  0.88075983  0.99258495  1
  O  O331  1  0.49667873  0.49223310  0.37745352  1
  O  O332  1  0.49176317  0.48920422  0.87294985  1
  O  O333  1  0.50243424  0.98376313  0.37109825  1
  O  O334  1  0.49930619  0.99158228  0.88171497  1
  O  O335  1  0.99713941  0.49511358  0.38022044  1
  O  O336  1  0.99705070  0.49086873  0.88449480  1
  O  O337  1  0.99804848  1.00458086  0.38791559  1
  O  O338  1  0.99360637  0.99299775  0.88535096  1
  O  O339  1  0.00891227  -0.00722218  0.11735799  1
  O  O340  1  0.00383870  0.00397239  0.61696440  1
  O  O341  1  -0.00411406  0.51346332  0.11954442  1
  O  O342  1  0.00694905  0.50943918  0.61815577  1
  O  O343  1  0.50203006  0.00845470  0.11800506  1
  O  O344  1  0.50604437  0.01210163  0.62304698  1
  O  O345  1  0.50242275  0.51919807  0.12041705  1
  O  O346  1  0.51494356  0.49849289  0.62456582  1
  O  O347  1  0.26279700  0.37747195  0.24603096  1
  O  O348  1  0.23468007  0.36903956  0.75462569  1
  O  O349  1  0.24635622  0.87928035  0.24343294  1
  O  O350  1  0.24023169  0.87594787  0.74436894  1
  O  O351  1  0.73955532  0.38134797  0.25130225  1
  O  O352  1  0.73807236  0.36892681  0.72895642  1
  O  O353  1  0.74043451  0.87722304  0.24224396  1
  O  O354  1  0.74972660  0.88804766  0.75158286  1
  O  O355  1  0.26244854  0.11617880  0.25365207  1
  O  O356  1  0.24342915  0.12775735  0.76778267  1
  O  O357  1  0.25635052  0.63886851  0.26329132  1
  O  O358  1  0.25994812  0.62784367  0.76182872  1
  O  O359  1  0.75701788  0.11379244  0.24637276  1
  O  O360  1  0.76669144  0.11067854  0.74364456  1
  O  O361  1  0.75248852  0.61847665  0.25371715  1
  O  O362  1  0.76763144  0.62130642  0.74676264  1
  O  O363  1  0.38005757  0.12727648  0.36392027  1
  O  O364  1  0.36110509  0.12724746  0.88068512  1
  O  O365  1  0.36413254  0.62225784  0.37893667  1
  O  O366  1  0.36910073  0.61903237  0.87051283  1
  O  O367  1  0.87606016  0.12631389  0.36343017  1
  O  O368  1  0.87434690  0.11452323  0.86844251  1
  O  O369  1  0.86927585  0.61703827  0.36831861  1
  O  O370  1  0.88204556  0.62850744  0.85890417  1
  O  O371  1  0.13428437  0.38735127  0.09319142  1
  O  O372  1  0.12144857  0.37468559  0.64724336  1
  O  O373  1  0.13220383  0.88233245  0.13519798  1
  O  O374  1  0.12957802  0.87884827  0.63256557  1
  O  O375  1  0.62480767  0.37534796  0.13510910  1
  O  O376  1  0.63131401  0.38410549  0.62270488  1
  O  O377  1  0.62953128  0.87454834  0.13440654  1
  O  O378  1  0.61459485  0.89032397  0.62096925  1
  O  O379  1  0.11731866  0.24803929  0.25680878  1
  O  O380  1  0.11844075  0.25833611  0.76262704  1
  O  O381  1  0.11681470  0.75740765  0.25810647  1
  O  O382  1  0.11834421  0.75802396  0.76179724  1
  O  O383  1  0.62382718  0.25341086  0.25800940  1
  O  O384  1  0.60874749  0.26597323  0.73418790  1
  O  O385  1  0.61906262  0.75612811  0.25381157  1
  O  O386  1  0.63126039  0.75256266  0.75182133  1
  O  O387  1  0.38309227  0.24179707  0.24741933  1
  O  O388  1  0.38608884  0.25388250  0.74551566  1
  O  O389  1  0.38357797  0.73481762  0.24850650  1
  O  O390  1  0.36940906  0.74446526  0.74139940  1
  O  O391  1  0.87979918  0.24232137  0.24480662  1
  O  O392  1  0.88522197  0.23747998  0.74037214  1
  O  O393  1  0.88182543  0.74463658  0.25115141  1
  O  O394  1  0.87925505  0.74543127  0.74280030  1
  O  O395  1  0.37398627  0.49204704  0.48905200  1
  O  O396  1  0.37969827  0.49303025  0.98633504  1
  O  O397  1  0.37622350  0.98481763  0.50045706  1
  O  O398  1  0.38759474  0.99630529  0.99769011  1
  O  O399  1  0.88344077  0.49337473  0.49603373  1
  O  O400  1  0.88367185  0.49222730  1.00658653  1
  O  O401  1  0.88041596  0.99090964  0.49964793  1
  O  O402  1  0.88027896  1.00418619  0.99350820  1
  O  O403  1  0.11610526  -0.00024903  0.01111901  1
  O  O404  1  0.11731804  0.00355145  0.50513117  1
  O  O405  1  0.10811556  0.51912496  -0.00800457  1
  O  O406  1  0.11275237  0.49473387  0.49967466  1
  O  O407  1  0.61240919  0.00643298  0.00290979  1
  O  O408  1  0.62337104  0.00429537  0.50192584  1
  O  O409  1  0.62338520  0.50689392  0.00226462  1
  O  O410  1  0.63302834  0.49985290  0.51215606  1
  O  O411  1  0.38558597  0.36500874  0.11436901  1
  O  O412  1  0.37987018  0.37923627  0.61164036  1
  O  O413  1  0.36869373  0.87683890  0.11123854  1
  O  O414  1  0.36612756  0.87192675  0.62013186  1
  O  O415  1  0.87233631  0.36298998  0.11668741  1
  O  O416  1  0.87056175  0.37251249  0.61859712  1
  O  O417  1  0.86195920  0.87263616  0.13075560  1
  O  O418  1  0.88010076  0.86024436  0.61603918  1
  O  O419  1  0.12752138  0.13175054  0.38351982  1
  O  O420  1  0.13064713  0.13341223  0.87891444  1
  O  O421  1  0.13971803  0.63363973  0.37110038  1
  O  O422  1  0.13056627  0.63319667  0.87847420  1
  O  O423  1  0.61846640  0.13249976  0.38823118  1
  O  O424  1  0.62442979  0.12276454  0.88904550  1
  O  O425  1  0.62982997  0.63033253  0.37306000  1
  O  O426  1  0.61908239  0.62071329  0.88438752  1
