# generated using pymatgen
data_V85Zn86O256
_symmetry_space_group_name_H-M   'P 1'
_cell_length_a   16.94791566
_cell_length_b   16.93739944
_cell_length_c   16.96484680
_cell_angle_alpha   90.03266643
_cell_angle_beta   89.89915010
_cell_angle_gamma   89.99617269
_symmetry_Int_Tables_number   1
_chemical_formula_structural   V85Zn86O256
_chemical_formula_sum   'V85 Zn86 O256'
_cell_volume   4869.81229300
_cell_formula_units_Z   1
loop_
 _symmetry_equiv_pos_site_id
 _symmetry_equiv_pos_as_xyz
  1  'x, y, z'
loop_
 _atom_site_type_symbol
 _atom_site_label
 _atom_site_symmetry_multiplicity
 _atom_site_fract_x
 _atom_site_fract_y
 _atom_site_fract_z
 _atom_site_occupancy
  V  V0  1  0.87495680  0.12132971  0.74950076  1
  V  V1  1  0.74922874  0.12280156  0.87585895  1
  V  V2  1  0.88008818  0.87587074  0.49463902  1
  V  V3  1  0.49613453  0.75000661  0.24905082  1
  V  V4  1  0.62393930  0.12170741  0.49641648  1
  V  V5  1  0.12499741  0.50144822  0.12990354  1
  V  V6  1  0.75007159  0.24964316  0.49672991  1
  V  V7  1  0.25186259  0.76312011  -0.00048196  1
  V  V8  1  0.87158787  0.63273535  0.24617713  1
  V  V9  1  0.62249446  0.75292168  0.37515114  1
  V  V10  1  0.12541751  0.37517433  0.75238369  1
  V  V11  1  0.12930633  -0.00895589  0.62185222  1
  V  V12  1  0.47618964  0.24840201  0.24874413  1
  V  V13  1  0.86505395  0.75194489  0.10603825  1
  V  V14  1  0.62674977  0.62568750  0.50151164  1
  V  V15  1  -0.00463662  0.62758167  0.12307384  1
  V  V16  1  0.37345578  0.75230583  0.12400940  1
  V  V17  1  0.37933238  0.00802892  0.88207125  1
  V  V18  1  0.88247114  0.62256370  0.74454206  1
  V  V19  1  0.62426090  -0.00045353  0.62042799  1
  V  V20  1  0.25665713  0.24789427  0.00018102  1
  V  V21  1  0.12644814  0.75323901  0.87022110  1
  V  V22  1  0.74803232  0.24921414  0.00085425  1
  V  V23  1  0.11246176  0.60849217  0.50295596  1
  V  V24  1  0.87983722  0.50236750  0.37513650  1
  V  V25  1  0.36442502  0.88084264  0.50406332  1
  V  V26  1  0.24693475  0.50249916  0.25325526  1
  V  V27  1  0.36337316  0.75182061  0.62009565  1
  V  V28  1  0.12628366  0.62801982  -0.00064747  1
  V  V29  1  0.74885215  -0.00141925  0.24903417  1
  V  V30  1  0.50072632  0.75135149  0.74791643  1
  V  V31  1  -0.00038855  0.37213304  0.87752735  1
  V  V32  1  0.50227895  0.49876518  0.50157716  1
  V  V33  1  0.00333958  -0.00113775  0.49109742  1
  V  V34  1  0.61401754  0.50016951  0.12724123  1
  V  V35  1  0.25080596  0.62920969  0.38630194  1
  V  V36  1  0.37268384  0.38488184  -0.00291246  1
  V  V37  1  0.87344762  0.24724811  0.62221725  1
  V  V38  1  0.12403714  0.24370792  0.87555923  1
  V  V39  1  0.62671246  0.75308181  0.88313058  1
  V  V40  1  0.61554788  0.12356925  0.00165150  1
  V  V41  1  0.26067628  0.62473599  0.87587613  1
  V  V42  1  0.49724653  0.38241158  0.87433181  1
  V  V43  1  0.26174029  0.00133143  0.74056337  1
  V  V44  1  0.74544644  0.37423589  0.62917588  1
  V  V45  1  0.62336258  0.25564523  0.87084168  1
  V  V46  1  0.50005656  0.25487361  0.74936016  1
  V  V47  1  0.00452383  0.37353389  0.36927519  1
  V  V48  1  0.74454217  0.49536528  0.75166727  1
  V  V49  1  -0.00760004  0.87706989  0.87073438  1
  V  V50  1  0.87300536  0.49920525  0.87609770  1
  V  V51  1  0.88300131  0.12399284  0.24410470  1
  V  V52  1  0.74309779  0.37307638  0.12885704  1
  V  V53  1  -0.00369469  -0.00189803  0.00912503  1
  V  V54  1  0.74977092  0.62886218  0.87890435  1
  V  V55  1  0.00588733  0.25347171  0.24046185  1
  V  V56  1  0.50465521  0.37632620  0.37079139  1
  V  V57  1  0.11461688  0.75417253  0.38150697  1
  V  V58  1  0.37127250  0.02062141  0.37932573  1
  V  V59  1  0.49852315  0.12309770  0.62797090  1
  V  V60  1  0.88445983  0.74705072  0.62293120  1
  V  V61  1  0.25835406  0.49988339  0.75472538  1
  V  V62  1  0.13558541  0.14387737  0.49543320  1
  V  V63  1  0.87859249  0.37960392  0.49856362  1
  V  V64  1  0.74824076  0.62796384  0.37332101  1
  V  V65  1  -0.00048915  0.50030639  0.00087853  1
  V  V66  1  0.60910519  0.00083925  0.12370679  1
  V  V67  1  0.00194537  0.12382113  0.62064235  1
  V  V68  1  0.75026897  0.75015664  0.50149474  1
  V  V69  1  0.61962316  0.62572568  0.00428326  1
  V  V70  1  0.36988997  0.24591982  0.63076812  1
  V  V71  1  0.49674825  0.88430896  0.38337978  1
  V  V72  1  0.62795071  0.49794555  0.62754268  1
  V  V73  1  0.37837903  0.37043503  0.50053535  1
  V  V74  1  0.12275208  0.11813389  0.01224950  1
  V  V75  1  0.74295890  0.49687808  0.25013233  1
  V  V76  1  0.50103929  0.62533358  0.62525916  1
  V  V77  1  0.74682042  0.87453663  0.10928207  1
  V  V78  1  0.62772263  0.25151560  0.36205245  1
  V  V79  1  0.48296391  0.12948278  0.12791566  1
  V  V80  1  0.37538761  0.62317614  0.24569871  1
  V  V81  1  0.25023159  0.37448790  0.62671144  1
  V  V82  1  0.25060823  0.37523097  0.12504035  1
  V  V83  1  0.62776892  0.87531398  0.74860584  1
  V  V84  1  0.87287394  0.37334981  0.00156132  1
  Zn  Zn85  1  0.25010959  0.01980630  0.25860340  1
  Zn  Zn86  1  0.75381364  0.12292480  0.37252499  1
  Zn  Zn87  1  0.25216462  0.12615774  0.86718608  1
  Zn  Zn88  1  0.12937142  0.87282901  0.74230639  1
  Zn  Zn89  1  0.05834623  0.92244842  0.31161833  1
  Zn  Zn90  1  0.11349963  0.50007903  0.62658226  1
  Zn  Zn91  1  0.61934128  0.87787021  0.24960242  1
  Zn  Zn92  1  0.50014320  0.88360644  0.87671552  1
  Zn  Zn93  1  0.75046495  -0.00124281  0.74898336  1
  Zn  Zn94  1  0.38526475  0.88164149  0.00215660  1
  Zn  Zn95  1  0.17905110  0.31642785  0.29870019  1
  Zn  Zn96  1  0.37510471  0.49941943  0.37613646  1
  Zn  Zn97  1  0.00022316  0.24743546  0.75012587  1
  Zn  Zn98  1  0.18637870  -0.08399110  0.16914317  1
  Zn  Zn99  1  0.00448898  0.74829699  0.74430206  1
  Zn  Zn100  1  0.75245977  0.87566217  0.62463737  1
  Zn  Zn101  1  0.37651817  0.62493179  0.75066998  1
  Zn  Zn102  1  0.87517411  0.24363548  0.12214677  1
  Zn  Zn103  1  0.01322514  0.76651422  0.23693388  1
  Zn  Zn104  1  0.49341857  0.50551163  0.00072039  1
  Zn  Zn105  1  0.87382793  -0.00411739  0.87849538  1
  Zn  Zn106  1  0.87871188  -0.00304649  0.36931403  1
  Zn  Zn107  1  0.20187088  0.18268143  0.18083039  1
  Zn  Zn108  1  0.18626694  0.18389184  0.68637708  1
  Zn  Zn109  1  0.17178998  0.72278833  0.17599692  1
  Zn  Zn110  1  0.18650773  0.68235830  0.68518229  1
  Zn  Zn111  1  0.68868691  0.18188439  0.18576414  1
  Zn  Zn112  1  0.68612618  0.18702314  0.68885567  1
  Zn  Zn113  1  0.68314533  0.69039142  0.18632905  1
  Zn  Zn114  1  0.69327311  0.68622154  0.68855420  1
  Zn  Zn115  1  0.26639152  0.18631066  0.37659867  1
  Zn  Zn116  1  0.31489591  0.31040970  0.81383552  1
  Zn  Zn117  1  0.30428253  0.81101379  0.31819074  1
  Zn  Zn118  1  0.31347895  0.82137152  0.80905814  1
  Zn  Zn119  1  0.81648112  0.31113343  0.30971917  1
  Zn  Zn120  1  0.81285176  0.30844786  0.81209447  1
  Zn  Zn121  1  0.81603112  0.81835631  0.30682956  1
  Zn  Zn122  1  0.81220142  0.80949607  0.81057794  1
  Zn  Zn123  1  0.20670888  0.40646889  0.42617581  1
  Zn  Zn124  1  0.18679246  0.43913152  0.93801907  1
  Zn  Zn125  1  0.19098543  0.94038148  0.44077377  1
  Zn  Zn126  1  0.18908231  0.94073550  0.92862230  1
  Zn  Zn127  1  0.68960879  0.43663116  0.43786320  1
  Zn  Zn128  1  0.68341949  0.43820399  0.94120459  1
  Zn  Zn129  1  0.68876361  0.93706132  0.43575100  1
  Zn  Zn130  1  0.67887936  0.94320030  0.93636350  1
  Zn  Zn131  1  0.30360090  0.05751658  0.06295773  1
  Zn  Zn132  1  0.31080504  0.06672311  0.55571487  1
  Zn  Zn133  1  0.31205320  0.56862014  0.06430205  1
  Zn  Zn134  1  0.31221997  0.55829141  0.56651599  1
  Zn  Zn135  1  0.81146444  0.05966470  0.06389150  1
  Zn  Zn136  1  0.81061441  0.06019138  0.56045113  1
  Zn  Zn137  1  0.80553447  0.56136063  0.06172008  1
  Zn  Zn138  1  0.93531399  0.55666157  0.56492959  1
  Zn  Zn139  1  0.43139153  0.43070780  0.19029050  1
  Zn  Zn140  1  0.43837342  0.43610460  0.69009396  1
  Zn  Zn141  1  0.38927224  0.92095278  0.21364263  1
  Zn  Zn142  1  0.43991072  0.93736979  0.68644269  1
  Zn  Zn143  1  0.93141645  0.43862824  0.18781058  1
  Zn  Zn144  1  0.93387250  0.43142456  0.69290993  1
  Zn  Zn145  1  0.93037080  0.93405388  0.18081661  1
  Zn  Zn146  1  0.94070961  0.93566629  0.68422331  1
  Zn  Zn147  1  0.10143645  0.09594426  0.29195259  1
  Zn  Zn148  1  0.06417456  0.05821846  0.80834760  1
  Zn  Zn149  1  0.06146912  0.57260800  0.31022082  1
  Zn  Zn150  1  0.06628265  0.56126261  0.81373426  1
  Zn  Zn151  1  0.55749431  0.06347527  0.30963695  1
  Zn  Zn152  1  0.56160250  0.06582564  0.80781264  1
  Zn  Zn153  1  0.56117849  0.56434113  0.31240055  1
  Zn  Zn154  1  0.56311733  0.56513810  0.81282774  1
  Zn  Zn155  1  0.44672821  0.19454245  0.44470752  1
  Zn  Zn156  1  0.43530695  0.18781297  0.93704648  1
  Zn  Zn157  1  0.43587770  0.68926961  0.43846124  1
  Zn  Zn158  1  0.44126050  0.69415317  0.93758112  1
  Zn  Zn159  1  0.94238902  0.18681631  0.42895272  1
  Zn  Zn160  1  0.93855128  0.18273132  0.94006912  1
  Zn  Zn161  1  0.93692399  0.68829165  0.43488858  1
  Zn  Zn162  1  0.93905220  0.68818770  0.93259809  1
  Zn  Zn163  1  0.06694466  0.31220986  0.06380692  1
  Zn  Zn164  1  0.05686040  0.32080853  0.56585373  1
  Zn  Zn165  1  0.05794176  0.81641870  0.05782712  1
  Zn  Zn166  1  0.06554753  0.80910306  0.55408722  1
  Zn  Zn167  1  0.55820045  0.31115852  0.06496836  1
  Zn  Zn168  1  0.56515764  0.30855656  0.56132535  1
  Zn  Zn169  1  0.55750567  0.81461363  0.06505298  1
  Zn  Zn170  1  0.55997551  0.81453725  0.56294610  1
  O  O171  1  0.12321768  0.12891452  0.10984785  1
  O  O172  1  0.11689324  0.11858901  0.61565338  1
  O  O173  1  0.11632469  0.62559572  0.11623926  1
  O  O174  1  0.12877588  0.62189328  0.60686623  1
  O  O175  1  0.61956903  0.11934883  0.11690066  1
  O  O176  1  0.62136500  0.11910888  0.61849831  1
  O  O177  1  0.63111800  0.61590582  0.11470473  1
  O  O178  1  0.62269462  0.61985327  0.61985590  1
  O  O179  1  0.39354226  0.37997057  0.39041438  1
  O  O180  1  0.38473700  0.37212525  0.88344522  1
  O  O181  1  0.38249309  0.87450564  0.39062856  1
  O  O182  1  0.37771156  0.89114345  0.87388788  1
  O  O183  1  0.87689947  0.38451083  0.38090289  1
  O  O184  1  0.87832343  0.37866509  0.88116240  1
  O  O185  1  0.86790230  0.87586341  0.39128076  1
  O  O186  1  0.88734535  0.87407859  0.86901407  1
  O  O187  1  0.26950347  0.00085755  0.38152174  1
  O  O188  1  0.26102084  0.00406480  0.86209878  1
  O  O189  1  0.25120086  0.50301685  0.36741197  1
  O  O190  1  0.24252876  0.51241999  0.86808390  1
  O  O191  1  0.75133619  0.00114242  0.36343014  1
  O  O192  1  0.75074648  0.01206801  0.87385969  1
  O  O193  1  0.75574453  0.50448349  0.36707684  1
  O  O194  1  0.75210342  0.50342230  0.86929649  1
  O  O195  1  0.24169874  0.50060594  0.12986226  1
  O  O196  1  0.24663906  0.49234073  0.63822674  1
  O  O197  1  0.24779670  1.00656535  0.14196983  1
  O  O198  1  0.24456285  1.00663110  0.63109641  1
  O  O199  1  0.73988012  0.49332634  0.13223062  1
  O  O200  1  0.74447103  0.48944080  0.63580911  1
  O  O201  1  0.74062300  0.99080008  0.12817130  1
  O  O202  1  0.73739525  0.99882113  0.62718179  1
  O  O203  1  -0.01161129  0.36609106  0.25633729  1
  O  O204  1  0.00618860  0.37006055  0.76114321  1
  O  O205  1  -0.02533430  0.86969879  0.26018016  1
  O  O206  1  0.00636100  0.87202807  0.75590257  1
  O  O207  1  0.49431332  0.36200972  0.25943873  1
  O  O208  1  0.49850841  0.36433278  0.75828316  1
  O  O209  1  0.49019488  0.86700532  0.26719783  1
  O  O210  1  0.51204099  0.86782911  0.75045020  1
  O  O211  1  0.50236286  0.14086070  0.24305385  1
  O  O212  1  0.50656321  0.13818288  0.73545849  1
  O  O213  1  0.48383780  0.63391951  0.26329619  1
  O  O214  1  0.49790388  0.63144501  0.74355641  1
  O  O215  1  0.99774968  0.14400787  0.25126773  1
  O  O216  1  0.99337535  0.12413486  0.73771701  1
  O  O217  1  0.98614174  0.62807031  0.23952427  1
  O  O218  1  0.98592771  0.62458982  0.75901464  1
  O  O219  1  0.36032584  0.25926536  -0.00629439  1
  O  O220  1  0.38417803  0.26413868  0.51387490  1
  O  O221  1  0.36768110  0.74759409  0.00690357  1
  O  O222  1  0.37962987  0.75874387  0.51374944  1
  O  O223  1  0.86696596  0.25316486  0.00104908  1
  O  O224  1  0.86702060  0.25421838  0.50138372  1
  O  O225  1  0.86766110  0.73953048  0.00710710  1
  O  O226  1  0.86932267  0.75394160  0.50424359  1
  O  O227  1  0.12177990  0.24084663  0.51498112  1
  O  O228  1  0.12930188  0.24095129  0.99278540  1
  O  O229  1  0.12263871  0.73368657  0.48805727  1
  O  O230  1  0.13290560  0.74593922  0.99059056  1
  O  O231  1  0.63385819  0.24360714  0.49140549  1
  O  O232  1  0.62973588  0.24243840  0.99402872  1
  O  O233  1  0.63142810  0.74783776  0.49612433  1
  O  O234  1  0.62216694  0.74302189  0.98831327  1
  O  O235  1  0.49998028  0.24682426  0.14135655  1
  O  O236  1  0.49577355  0.24753999  0.63347551  1
  O  O237  1  0.49710637  0.74969496  0.14327662  1
  O  O238  1  0.49923099  0.74422272  0.63445583  1
  O  O239  1  0.99196840  0.26312307  0.13588751  1
  O  O240  1  0.99035546  0.24250557  0.62695794  1
  O  O241  1  0.98174393  0.74381918  0.12105356  1
  O  O242  1  0.98860523  0.75175533  0.62316059  1
  O  O243  1  -0.00598256  0.26331303  0.35872700  1
  O  O244  1  0.00631632  0.25445955  0.87536112  1
  O  O245  1  0.01200598  0.74933580  0.37607874  1
  O  O246  1  0.00887603  0.75770383  0.87308731  1
  O  O247  1  0.50720633  0.25550083  0.36500871  1
  O  O248  1  0.50524305  0.25526346  0.86763942  1
  O  O249  1  0.50436717  0.75712459  0.37054334  1
  O  O250  1  0.50991484  0.74752358  0.85966652  1
  O  O251  1  0.23975097  0.13387655  0.49144653  1
  O  O252  1  0.23755129  0.13200024  0.99524700  1
  O  O253  1  0.24680627  0.61545040  0.48804844  1
  O  O254  1  0.24403780  0.63116145  0.99089132  1
  O  O255  1  0.74151516  0.13164288  0.49718363  1
  O  O256  1  0.74283981  0.12982265  0.99327633  1
  O  O257  1  0.74459967  0.64049845  0.48989287  1
  O  O258  1  0.73802155  0.61692484  0.98522607  1
  O  O259  1  0.25516648  0.37014782  0.00180608  1
  O  O260  1  0.26473599  0.38517624  0.52128172  1
  O  O261  1  0.25232909  0.86543965  -0.00551945  1
  O  O262  1  0.26581301  0.87482074  0.50201198  1
  O  O263  1  0.75319016  0.36851118  0.00525682  1
  O  O264  1  0.75983985  0.36970336  0.50568662  1
  O  O265  1  0.74130845  0.88057815  0.01065407  1
  O  O266  1  0.75378788  0.86376596  0.50196293  1
  O  O267  1  0.13047662  0.51354289  0.23650719  1
  O  O268  1  0.13328980  0.48996876  0.75117248  1
  O  O269  1  0.12939440  0.99124053  0.25860096  1
  O  O270  1  0.13210665  0.99798203  0.73662075  1
  O  O271  1  0.63494320  0.50642432  0.24397906  1
  O  O272  1  0.63799476  0.50430129  0.74659820  1
  O  O273  1  0.63017574  1.00089209  0.24151853  1
  O  O274  1  0.62701085  0.99178834  0.74357045  1
  O  O275  1  0.38096959  0.01753865  0.27660580  1
  O  O276  1  0.36542107  -0.00019890  0.74966971  1
  O  O277  1  0.36738195  0.50633301  0.25184053  1
  O  O278  1  0.36284304  0.50219048  0.74844720  1
  O  O279  1  0.86751705  0.00679255  0.24828291  1
  O  O280  1  0.87277227  0.01064593  0.74909500  1
  O  O281  1  0.86117945  0.51206678  0.25192304  1
  O  O282  1  0.86477017  0.50418609  0.75717902  1
  O  O283  1  0.10567800  0.38922579  0.37141139  1
  O  O284  1  0.12048055  0.36463876  0.87272014  1
  O  O285  1  0.13069425  0.85871096  0.38306799  1
  O  O286  1  0.12030533  0.86340837  0.87205591  1
  O  O287  1  0.61419321  0.36603919  0.38250266  1
  O  O288  1  0.61712678  0.36141734  0.88406713  1
  O  O289  1  0.61127507  0.87356514  0.37330327  1
  O  O290  1  0.62540118  0.86875112  0.86592837  1
  O  O291  1  0.38493092  0.12464273  0.11528843  1
  O  O292  1  0.38572720  0.13528950  0.61464767  1
  O  O293  1  0.37592545  0.63286795  0.13636592  1
  O  O294  1  0.38078269  0.63711417  0.62492335  1
  O  O295  1  0.87131722  0.12454487  0.13828886  1
  O  O296  1  0.87932410  0.12743899  0.63028096  1
  O  O297  1  0.87190600  0.62974314  0.12894387  1
  O  O298  1  0.87515209  0.63101836  0.63343143  1
  O  O299  1  0.24284985  0.26305303  0.11301352  1
  O  O300  1  0.26146716  0.25785827  0.63542950  1
  O  O301  1  0.26203298  0.74015475  0.11023433  1
  O  O302  1  0.26546749  0.74878361  0.63061464  1
  O  O303  1  0.74889646  0.25753623  0.11954629  1
  O  O304  1  0.75338815  0.25467622  0.61860594  1
  O  O305  1  0.74849051  0.76600864  0.12624911  1
  O  O306  1  0.76021478  0.74918756  0.61559187  1
  O  O307  1  0.24105870  0.29576133  0.38678332  1
  O  O308  1  0.24129657  0.24830604  0.88104263  1
  O  O309  1  0.24218638  0.73247915  0.37526236  1
  O  O310  1  0.24521428  0.74581776  0.87817650  1
  O  O311  1  0.74428012  0.25000290  0.37995515  1
  O  O312  1  0.74181621  0.24112176  0.87834131  1
  O  O313  1  0.74184494  0.74985281  0.37871967  1
  O  O314  1  0.74003059  0.73965019  0.86836223  1
  O  O315  1  0.01293172  0.11250798  -0.00542551  1
  O  O316  1  -0.00392422  0.11898829  0.51104704  1
  O  O317  1  0.00462129  0.61880955  0.00269629  1
  O  O318  1  0.00712097  0.61747635  0.49446612  1
  O  O319  1  0.50854471  0.13856878  0.01143516  1
  O  O320  1  0.51644853  0.13363519  0.51338268  1
  O  O321  1  0.51403076  0.62223151  -0.00805059  1
  O  O322  1  0.50596571  0.61940653  0.50529736  1
  O  O323  1  0.49832386  0.38019597  0.49785116  1
  O  O324  1  0.48898072  0.37431628  0.99366350  1
  O  O325  1  0.49475299  0.87063633  0.48680431  1
  O  O326  1  0.49865841  0.86618910  0.98837926  1
  O  O327  1  0.98469463  0.36824403  0.48871138  1
  O  O328  1  0.99404226  0.38031738  0.99648985  1
  O  O329  1  0.99177826  0.88521857  0.50499610  1
  O  O330  1  1.00724440  0.89006255  0.98733913  1
  O  O331  1  0.50251956  0.49224272  0.38180112  1
  O  O332  1  0.50805219  0.48540293  0.87532849  1
  O  O333  1  0.49080683  0.99092216  0.37747102  1
  O  O334  1  0.48343430  1.00410210  0.86383658  1
  O  O335  1  0.98315984  0.49694393  0.36014778  1
  O  O336  1  0.99477109  0.49331976  0.88167993  1
  O  O337  1  1.00080249  0.99971848  0.38834610  1
  O  O338  1  0.99905169  0.99133792  0.87771442  1
  O  O339  1  0.00072724  -0.00937998  0.10787230  1
  O  O340  1  0.00863395  0.00732233  0.61732358  1
  O  O341  1  0.00483005  0.50536952  0.12085189  1
  O  O342  1  -0.00031542  0.48808634  0.62438543  1
  O  O343  1  0.50884197  0.01168195  0.13420997  1
  O  O344  1  0.51252313  0.01004484  0.63050802  1
  O  O345  1  0.51154593  0.49121506  0.12840654  1
  O  O346  1  0.50835281  0.50432697  0.62343925  1
  O  O347  1  0.24458052  0.39285132  0.23696043  1
  O  O348  1  0.24610114  0.38053963  0.74686523  1
  O  O349  1  0.27845763  0.89010972  0.24593453  1
  O  O350  1  0.24571898  0.89413656  0.74966872  1
  O  O351  1  0.75468929  0.38520102  0.24171686  1
  O  O352  1  0.75670146  0.38172187  0.74154539  1
  O  O353  1  0.74699292  0.88769397  0.24171884  1
  O  O354  1  0.73943900  0.87509299  0.74681433  1
  O  O355  1  0.22222603  0.13509222  0.27917847  1
  O  O356  1  0.24345066  0.10802683  0.75046458  1
  O  O357  1  0.26011241  0.61537498  0.26218225  1
  O  O358  1  0.25064483  0.61687806  0.75793885  1
  O  O359  1  0.75690833  0.11319206  0.24906210  1
  O  O360  1  0.75633939  0.12438016  0.75852802  1
  O  O361  1  0.75176140  0.61969772  0.25457520  1
  O  O362  1  0.75912893  0.61617836  0.75912916  1
  O  O363  1  0.37219631  0.12370490  0.39424570  1
  O  O364  1  0.37189802  0.11428147  0.87556672  1
  O  O365  1  0.36356915  0.62248287  0.37444529  1
  O  O366  1  0.36360339  0.63170226  0.87284255  1
  O  O367  1  0.87441081  0.12102485  0.36014140  1
  O  O368  1  0.86622956  0.12525104  0.86646054  1
  O  O369  1  0.86791686  0.62112249  0.36659935  1
  O  O370  1  0.86650448  0.61905182  0.87019265  1
  O  O371  1  0.13614796  0.39158431  0.11385701  1
  O  O372  1  0.13416305  0.37408900  0.63466135  1
  O  O373  1  0.12101371  0.82881827  0.14855797  1
  O  O374  1  0.12295859  0.88746263  0.61832335  1
  O  O375  1  0.63595065  0.38281168  0.11828018  1
  O  O376  1  0.63904158  0.37716013  0.61961196  1
  O  O377  1  0.62968901  0.88316235  0.12802636  1
  O  O378  1  0.62545253  0.88258025  0.63020521  1
  O  O379  1  0.11031046  0.25488072  0.23459430  1
  O  O380  1  0.12434334  0.25706297  0.75774031  1
  O  O381  1  0.11906117  0.72778035  0.27622379  1
  O  O382  1  0.12429175  0.74964058  0.75516600  1
  O  O383  1  0.62980010  0.24771230  0.26151038  1
  O  O384  1  0.61843808  0.24777217  0.76110334  1
  O  O385  1  0.61458712  0.75307401  0.25771329  1
  O  O386  1  0.62094653  0.75595035  0.75395950  1
  O  O387  1  0.38109202  0.24623804  0.25597348  1
  O  O388  1  0.38522609  0.25081518  0.74160947  1
  O  O389  1  0.37680507  0.74211731  0.24512995  1
  O  O390  1  0.38425368  0.75371832  0.73881864  1
  O  O391  1  0.88123381  0.24141533  0.24464714  1
  O  O392  1  0.87504381  0.23676523  0.74319375  1
  O  O393  1  0.86482378  0.73783812  0.24016685  1
  O  O394  1  0.87508588  0.73984799  0.73949618  1
  O  O395  1  0.38651387  0.49048036  0.50523613  1
  O  O396  1  0.37478015  0.49032360  1.00282784  1
  O  O397  1  0.37744086  0.98871875  0.49559649  1
  O  O398  1  0.36892113  1.00000330  0.98527035  1
  O  O399  1  0.87172307  0.49207125  0.48779226  1
  O  O400  1  0.87790982  0.49519270  0.99406220  1
  O  O401  1  0.88324792  0.99236210  0.50036103  1
  O  O402  1  0.89160157  1.00871241  0.99601330  1
  O  O403  1  0.12056857  0.01250350  -0.00705701  1
  O  O404  1  0.12075355  0.00960678  0.50503639  1
  O  O405  1  0.12014420  0.50928908  0.00768715  1
  O  O406  1  0.12731223  0.50905098  0.50137777  1
  O  O407  1  0.62338556  0.01432640  0.00764228  1
  O  O408  1  0.62983044  0.00928500  0.50690827  1
  O  O409  1  0.62010295  0.50705010  0.00998420  1
  O  O410  1  0.62230465  0.50544091  0.50670114  1
  O  O411  1  0.35889390  0.37993684  0.11525915  1
  O  O412  1  0.37041483  0.36697035  0.62437139  1
  O  O413  1  0.38370597  0.85690789  0.11932142  1
  O  O414  1  0.38546704  0.86565480  0.61227985  1
  O  O415  1  0.85949040  0.37822269  0.11645667  1
  O  O416  1  0.86507321  0.36769307  0.61727216  1
  O  O417  1  0.85589694  0.86686624  0.11950452  1
  O  O418  1  0.87229548  0.86671282  0.61562798  1
  O  O419  1  0.10702498  0.13741221  0.39962041  1
  O  O420  1  0.12336856  0.13621136  0.87610707  1
  O  O421  1  0.13338574  0.62295720  0.38809722  1
  O  O422  1  0.13030968  0.63663731  0.87966406  1
  O  O423  1  0.62438353  0.13203733  0.38190539  1
  O  O424  1  0.62888549  0.13192089  0.88140982  1
  O  O425  1  0.62928194  0.63181667  0.38170764  1
  O  O426  1  0.63207904  0.63263439  0.87885686  1
