# generated using pymatgen
data_V85Zn86O256
_symmetry_space_group_name_H-M   'P 1'
_cell_length_a   16.98102151
_cell_length_b   16.96803775
_cell_length_c   16.96806334
_cell_angle_alpha   90.01418550
_cell_angle_beta   89.85286626
_cell_angle_gamma   89.93908616
_symmetry_Int_Tables_number   1
_chemical_formula_structural   V85Zn86O256
_chemical_formula_sum   'V85 Zn86 O256'
_cell_volume   4889.06734447
_cell_formula_units_Z   1
loop_
 _symmetry_equiv_pos_site_id
 _symmetry_equiv_pos_as_xyz
  1  'x, y, z'
loop_
 _atom_site_type_symbol
 _atom_site_label
 _atom_site_symmetry_multiplicity
 _atom_site_fract_x
 _atom_site_fract_y
 _atom_site_fract_z
 _atom_site_occupancy
  V  V0  1  0.36695121  0.51371432  0.86420433  1
  V  V1  1  0.50255142  0.62491281  0.12595228  1
  V  V2  1  0.50094957  0.36911070  0.87392345  1
  V  V3  1  0.62670074  0.62477303  -0.00912104  1
  V  V4  1  0.25257414  0.87483268  0.12302014  1
  V  V5  1  0.50225196  0.24749983  0.24325248  1
  V  V6  1  0.25099335  0.74583314  0.00234860  1
  V  V7  1  0.00988597  0.26365123  0.24672094  1
  V  V8  1  -0.00166979  0.12539119  0.12671503  1
  V  V9  1  0.32782587  0.18167668  0.68605884  1
  V  V10  1  0.25410983  0.40315539  0.63216832  1
  V  V11  1  0.62389172  0.36846910  0.75166839  1
  V  V12  1  0.87419430  0.74893257  0.12368600  1
  V  V13  1  0.12750134  0.12151544  -0.00152687  1
  V  V14  1  0.13022501  0.39362458  0.75073565  1
  V  V15  1  0.86892543  0.62631053  0.75686289  1
  V  V16  1  0.74702730  0.24430146  0.50039121  1
  V  V17  1  0.74602089  0.50368104  0.75695461  1
  V  V18  1  0.37794156  0.00439856  0.86484908  1
  V  V19  1  -0.00465114  0.12170280  0.62799194  1
  V  V20  1  0.12858555  0.62890278  -0.00930918  1
  V  V21  1  0.86888814  0.25096157  0.12836449  1
  V  V22  1  0.50480268  -0.02051233  0.49511402  1
  V  V23  1  0.12451734  0.11950839  0.49467825  1
  V  V24  1  0.86678506  0.86991369  0.50015586  1
  V  V25  1  0.74991282  0.00262823  0.25022753  1
  V  V26  1  0.62764199  0.37585341  0.24835701  1
  V  V27  1  0.49909291  0.00643999  0.01135601  1
  V  V28  1  0.50054413  0.49910041  -0.00143692  1
  V  V29  1  -0.00095415  0.25252846  0.75379023  1
  V  V30  1  -0.00050894  0.74937740  0.25036061  1
  V  V31  1  0.24807936  0.49892478  0.25183107  1
  V  V32  1  0.25132240  0.62708064  0.37689743  1
  V  V33  1  0.62506199  0.24459429  0.37834896  1
  V  V34  1  0.62041984  0.50208348  0.62220483  1
  V  V35  1  0.87545594  0.87515509  -0.00399198  1
  V  V36  1  0.74983251  0.37724495  0.61952796  1
  V  V37  1  0.37749849  0.24798924  0.12469414  1
  V  V38  1  0.74492566  0.87582328  0.63396164  1
  V  V39  1  0.62055348  0.87571175  0.25375717  1
  V  V40  1  0.50469660  0.87603901  0.87135155  1
  V  V41  1  0.12727518  0.25130865  0.87629215  1
  V  V42  1  0.12309209  0.87462946  0.25028366  1
  V  V43  1  -0.00183678  0.61285495  0.62032063  1
  V  V44  1  0.87361706  0.00050915  0.37678102  1
  V  V45  1  0.62107661  0.00167646  0.62870726  1
  V  V46  1  0.25099486  0.24943244  -0.00098803  1
  V  V47  1  0.00175344  0.75293634  0.74762357  1
  V  V48  1  0.74910932  0.74510470  -0.00725076  1
  V  V49  1  -0.00000210  0.62485846  0.12589731  1
  V  V50  1  0.37899904  -0.00951371  0.37891643  1
  V  V51  1  0.37619244  0.37585527  -0.00081396  1
  V  V52  1  0.24846720  0.37444399  0.13011623  1
  V  V53  1  0.06656015  0.30610405  0.42262389  1
  V  V54  1  0.87080712  0.00379934  0.87096636  1
  V  V55  1  0.01157603  0.87149621  0.87218326  1
  V  V56  1  0.89217591  0.50003303  0.38034602  1
  V  V57  1  0.87431619  0.25233018  0.62332382  1
  V  V58  1  0.49710753  0.37631841  0.37528191  1
  V  V59  1  0.74933222  0.50757015  0.25863668  1
  V  V60  1  0.50196737  0.24014139  0.74675590  1
  V  V61  1  0.00063159  0.37986319  0.87507129  1
  V  V62  1  0.74885572  0.87618442  0.12425430  1
  V  V63  1  0.64776352  0.74580751  0.37566110  1
  V  V64  1  -0.00217616  -0.00337168  0.50147219  1
  V  V65  1  0.37967452  0.12406501  0.24726596  1
  V  V66  1  0.87352681  0.37665007  -0.00018318  1
  V  V67  1  0.50451758  0.12956457  0.60637793  1
  V  V68  1  0.12823093  -0.00774876  0.64065648  1
  V  V69  1  0.62657764  0.12701211  -0.00673575  1
  V  V70  1  0.37986057  0.75067684  0.12850109  1
  V  V71  1  -0.00151334  0.50206113  0.00046082  1
  V  V72  1  0.24459931  0.13307100  0.37363680  1
  V  V73  1  0.49545644  0.63799760  0.63015435  1
  V  V74  1  0.25076332  0.76452104  0.50050674  1
  V  V75  1  0.86785882  0.74672645  0.61943595  1
  V  V76  1  0.62387340  0.75453299  0.86463097  1
  V  V77  1  0.50069258  0.75039387  0.26393814  1
  V  V78  1  0.37532801  0.36991441  0.50648959  1
  V  V79  1  0.25148304  0.00124799  0.25147837  1
  V  V80  1  0.12482259  0.49720788  0.12657731  1
  V  V81  1  0.63485726  0.62502838  0.49474572  1
  V  V82  1  0.74793490  0.24621450  -0.01811747  1
  V  V83  1  0.12479486  0.00149946  0.12452698  1
  V  V84  1  0.12082310  0.61471662  0.50072436  1
  Zn  Zn85  1  0.37651127  0.62276783  0.25313644  1
  Zn  Zn86  1  0.74018699  0.00681463  0.75563626  1
  Zn  Zn87  1  0.25389144  0.11903650  0.86765760  1
  Zn  Zn88  1  0.87370117  0.12838150  0.25287161  1
  Zn  Zn89  1  0.88714693  0.37726898  0.49412111  1
  Zn  Zn90  1  0.37925320  0.87710502  0.00093114  1
  Zn  Zn91  1  0.12254765  0.75062874  0.37702577  1
  Zn  Zn92  1  0.49744708  0.50265234  0.49912245  1
  Zn  Zn93  1  0.38646800  0.77534474  0.60880265  1
  Zn  Zn94  1  0.86774025  0.62944641  0.25766927  1
  Zn  Zn95  1  -0.00160740  -0.00043683  -0.00096781  1
  Zn  Zn96  1  0.37432846  0.49860726  0.37507662  1
  Zn  Zn97  1  0.74945097  0.37681504  0.12455053  1
  Zn  Zn98  1  0.23925211  0.86286186  0.65934091  1
  Zn  Zn99  1  0.25061073  0.24980242  0.50574900  1
  Zn  Zn100  1  0.17563450  0.73052039  0.82663452  1
  Zn  Zn101  1  0.74492612  0.12192595  0.38025788  1
  Zn  Zn102  1  0.86769506  0.50599397  0.88028646  1
  Zn  Zn103  1  0.62868243  0.50086335  0.12402377  1
  Zn  Zn104  1  0.86547386  0.13328466  0.76046058  1
  Zn  Zn105  1  -0.00111296  0.87362137  0.37704655  1
  Zn  Zn106  1  0.62305741  0.01021939  0.12931570  1
  Zn  Zn107  1  0.18827512  0.18759152  0.18709001  1
  Zn  Zn108  1  0.16771855  0.18449433  0.68895526  1
  Zn  Zn109  1  0.18692913  0.68450874  0.18636470  1
  Zn  Zn110  1  0.19588025  0.66867087  0.67055819  1
  Zn  Zn111  1  0.68553853  0.18509469  0.18368422  1
  Zn  Zn112  1  0.68494836  0.18276813  0.68733871  1
  Zn  Zn113  1  0.68544541  0.68816638  0.18362558  1
  Zn  Zn114  1  0.68692745  0.68559624  0.68252696  1
  Zn  Zn115  1  0.31187986  0.31268354  0.31270551  1
  Zn  Zn116  1  0.31247124  0.32061293  0.81478473  1
  Zn  Zn117  1  0.31065725  0.81028937  0.31269834  1
  Zn  Zn118  1  0.32259289  0.73534968  0.77640478  1
  Zn  Zn119  1  0.81442952  0.31705094  0.31430045  1
  Zn  Zn120  1  0.81457233  0.32056728  0.80957146  1
  Zn  Zn121  1  0.81455774  0.81806635  0.30949297  1
  Zn  Zn122  1  0.81285156  0.81447166  0.81155180  1
  Zn  Zn123  1  0.19432006  0.43930553  0.44326313  1
  Zn  Zn124  1  0.18977130  0.43997499  0.93928115  1
  Zn  Zn125  1  0.18457276  0.94419697  0.43282884  1
  Zn  Zn126  1  0.21687141  0.91039173  0.84326080  1
  Zn  Zn127  1  0.68705583  0.43549316  0.43614657  1
  Zn  Zn128  1  0.68448194  0.43277799  0.93710906  1
  Zn  Zn129  1  0.68604751  0.93391152  0.43868064  1
  Zn  Zn130  1  0.68663866  0.93940678  0.93997127  1
  Zn  Zn131  1  0.31342408  0.06274430  0.06139655  1
  Zn  Zn132  1  0.33821493  0.00506034  0.59024355  1
  Zn  Zn133  1  0.31581117  0.56231650  0.06054438  1
  Zn  Zn134  1  0.31885568  0.56765940  0.55538090  1
  Zn  Zn135  1  0.81034617  0.06423781  0.06047879  1
  Zn  Zn136  1  0.80914766  0.06221219  0.56692444  1
  Zn  Zn137  1  0.80967204  0.56285371  0.06895065  1
  Zn  Zn138  1  0.81412414  0.55888079  0.55989998  1
  Zn  Zn139  1  0.43679301  0.43826575  0.18745226  1
  Zn  Zn140  1  0.43893286  0.43929440  0.68933664  1
  Zn  Zn141  1  0.43995931  0.93671249  0.19079968  1
  Zn  Zn142  1  0.41360695  0.89466533  0.71781852  1
  Zn  Zn143  1  0.93255793  0.43925521  0.19006611  1
  Zn  Zn144  1  0.93335987  0.43839385  0.68997193  1
  Zn  Zn145  1  0.93593833  0.93791814  0.18625629  1
  Zn  Zn146  1  0.93519522  0.93432067  0.68804925  1
  Zn  Zn147  1  0.05833427  0.06336215  0.31054063  1
  Zn  Zn148  1  0.05621278  0.06285954  0.81727124  1
  Zn  Zn149  1  0.06656774  0.56384992  0.31158682  1
  Zn  Zn150  1  0.05720485  0.57035332  0.81399915  1
  Zn  Zn151  1  0.56078453  0.06301033  0.31612296  1
  Zn  Zn152  1  0.56170352  0.06194509  0.81436602  1
  Zn  Zn153  1  0.56472505  0.56374966  0.31393217  1
  Zn  Zn154  1  0.55578763  0.56170017  0.81083882  1
  Zn  Zn155  1  0.43035785  0.19049439  0.43125885  1
  Zn  Zn156  1  0.44057801  0.18465490  0.93606942  1
  Zn  Zn157  1  0.43733292  0.68482736  0.44499931  1
  Zn  Zn158  1  0.44032859  0.69126914  0.93895065  1
  Zn  Zn159  1  0.93039519  0.18318341  0.43996084  1
  Zn  Zn160  1  0.93700608  0.18875903  0.94124637  1
  Zn  Zn161  1  0.93445262  0.68378320  0.43525088  1
  Zn  Zn162  1  0.93974784  0.68815234  0.93488962  1
  Zn  Zn163  1  0.06193212  0.31344196  0.06349083  1
  Zn  Zn164  1  0.06778591  0.31703548  0.58349880  1
  Zn  Zn165  1  0.06345586  0.81331327  0.06175247  1
  Zn  Zn166  1  0.06160739  0.80875042  0.56237831  1
  Zn  Zn167  1  0.56649406  0.30928157  0.06178841  1
  Zn  Zn168  1  0.56120156  0.31103931  0.56340839  1
  Zn  Zn169  1  0.56414092  0.81575233  0.06231020  1
  Zn  Zn170  1  0.57481975  0.81208461  0.55607842  1
  O  O171  1  0.11859725  0.12161938  0.11971030  1
  O  O172  1  0.10974726  0.11732204  0.61750923  1
  O  O173  1  0.11904889  0.61355687  0.11973281  1
  O  O174  1  0.11373692  0.62594059  0.60934324  1
  O  O175  1  0.63054971  0.12415793  0.10759230  1
  O  O176  1  0.61399612  0.11754960  0.61921918  1
  O  O177  1  0.61417799  0.62586722  0.11549685  1
  O  O178  1  0.61922807  0.61853942  0.61593210  1
  O  O179  1  0.38199116  0.37547872  0.38107572  1
  O  O180  1  0.38279106  0.38178187  0.88259598  1
  O  O181  1  0.37003073  0.89224920  0.36438890  1
  O  O182  1  0.39361190  0.88921283  0.88377851  1
  O  O183  1  0.87213755  0.39260000  0.37677460  1
  O  O184  1  0.88326743  0.38003076  0.88153786  1
  O  O185  1  0.87473249  0.88453504  0.38197116  1
  O  O186  1  0.88196583  0.88176884  0.88156409  1
  O  O187  1  0.25704265  0.01133690  0.36971663  1
  O  O188  1  0.27049651  -0.00114731  0.88136557  1
  O  O189  1  0.24981717  0.50610455  0.36676952  1
  O  O190  1  0.26876498  0.49845312  0.88354552  1
  O  O191  1  0.75497016  0.00041197  0.36926106  1
  O  O192  1  0.76670152  -0.00789475  0.87448826  1
  O  O193  1  0.75006737  0.49700793  0.36102851  1
  O  O194  1  0.74802630  0.49307228  0.86061439  1
  O  O195  1  0.24456173  0.49397806  0.12945524  1
  O  O196  1  0.25260400  0.50123393  0.62731162  1
  O  O197  1  0.24622394  0.99299692  0.13151550  1
  O  O198  1  0.22664228  1.00719312  0.62619502  1
  O  O199  1  0.74772880  0.49493716  0.13851093  1
  O  O200  1  0.74024734  0.49299849  0.63105647  1
  O  O201  1  0.75067537  0.99427218  0.13330959  1
  O  O202  1  0.73832603  0.99284201  0.62174504  1
  O  O203  1  -0.00032546  0.36249435  0.24438093  1
  O  O204  1  0.00716162  0.37145719  0.75380107  1
  O  O205  1  0.00695553  0.86785862  0.24755214  1
  O  O206  1  -0.00729767  0.86090833  0.75608580  1
  O  O207  1  0.50519059  0.36902386  0.25608828  1
  O  O208  1  0.50630355  0.36637715  0.75393837  1
  O  O209  1  0.51317809  0.86616190  0.24653530  1
  O  O210  1  0.51477055  0.89062594  0.77401370  1
  O  O211  1  0.49180140  0.13508808  0.25488270  1
  O  O212  1  0.50571959  0.13774386  0.74472690  1
  O  O213  1  0.50049184  0.63195028  0.24278002  1
  O  O214  1  0.50884384  0.62494411  0.72886475  1
  O  O215  1  0.99714116  0.13184709  0.23797670  1
  O  O216  1  0.99655208  0.13525528  0.74452444  1
  O  O217  1  1.00140702  0.63470815  0.24313582  1
  O  O218  1  0.98779166  0.63230213  0.74180575  1
  O  O219  1  0.37171215  0.25424961  0.00546667  1
  O  O220  1  0.36940340  0.26516733  0.49533909  1
  O  O221  1  0.37383371  0.75227564  0.01667510  1
  O  O222  1  0.35792065  0.75041366  0.49780195  1
  O  O223  1  0.86508012  0.25455230  0.00648032  1
  O  O224  1  0.86807316  0.25688646  0.50496636  1
  O  O225  1  0.86809340  0.75442256  0.00199587  1
  O  O226  1  0.87879930  0.75748590  0.50656339  1
  O  O227  1  0.11965048  0.24677150  0.49416653  1
  O  O228  1  0.12913333  0.24175149  0.99726146  1
  O  O229  1  0.13331767  0.74385963  0.49568258  1
  O  O230  1  0.13731867  0.73981691  1.01498903  1
  O  O231  1  0.63433938  0.25997407  0.48930875  1
  O  O232  1  0.64106953  0.24624097  1.00058754  1
  O  O233  1  0.62940922  0.74349777  0.48122471  1
  O  O234  1  0.63263597  0.74310857  0.99579824  1
  O  O235  1  0.49522376  0.25549490  0.13681172  1
  O  O236  1  0.49968522  0.24239223  0.63216937  1
  O  O237  1  0.49641127  0.74467889  0.13278620  1
  O  O238  1  0.50598945  0.73981740  0.61076940  1
  O  O239  1  0.99148091  0.24633732  0.13191206  1
  O  O240  1  0.99673488  0.24342069  0.63494861  1
  O  O241  1  0.99514317  0.74691859  0.13327907  1
  O  O242  1  0.98559311  0.74585728  0.63214739  1
  O  O243  1  0.00052249  0.24782535  0.36440188  1
  O  O244  1  0.00424043  0.25656295  0.87012275  1
  O  O245  1  -0.00031898  0.75225033  0.36135397  1
  O  O246  1  -0.00742606  0.75629134  0.85862639  1
  O  O247  1  0.50537339  0.26012082  0.36592780  1
  O  O248  1  0.49242247  0.26162821  0.86511619  1
  O  O249  1  0.50063461  0.74443575  0.36464204  1
  O  O250  1  0.50788660  0.76745613  0.88416840  1
  O  O251  1  0.23151029  0.13026073  0.49184362  1
  O  O252  1  0.24161206  0.13209671  1.00065492  1
  O  O253  1  0.24024548  0.63141579  0.49393831  1
  O  O254  1  0.24003829  0.63222689  1.01121401  1
  O  O255  1  0.75395654  0.14030110  0.50040482  1
  O  O256  1  0.74761796  0.13980473  0.99881053  1
  O  O257  1  0.73441353  0.62006819  0.50609660  1
  O  O258  1  0.74016334  0.63331623  1.00484856  1
  O  O259  1  0.25476310  0.36955043  0.01103147  1
  O  O260  1  0.25338154  0.37260406  0.51911905  1
  O  O261  1  0.25375741  0.86744320  0.01947341  1
  O  O262  1  0.24254648  0.86310996  0.48873811  1
  O  O263  1  0.75363397  0.36362903  0.00157603  1
  O  O264  1  0.74902612  0.36980816  0.51119625  1
  O  O265  1  0.76024738  0.86895525  0.00400209  1
  O  O266  1  0.76272397  0.87875521  0.50806382  1
  O  O267  1  0.13796348  0.50374445  0.24017205  1
  O  O268  1  0.12105608  0.49223007  0.75957542  1
  O  O269  1  0.12880886  0.99397333  0.24361479  1
  O  O270  1  0.11865055  1.00198006  0.74109544  1
  O  O271  1  0.63343547  0.49348424  0.25020669  1
  O  O272  1  0.62891118  0.49223030  0.74238200  1
  O  O273  1  0.62995163  0.99250415  0.25203155  1
  O  O274  1  0.62136403  1.00534197  0.73283417  1
  O  O275  1  0.37303025  0.00834760  0.25433934  1
  O  O276  1  0.38423069  -0.00114380  0.76605052  1
  O  O277  1  0.36183055  0.50189756  0.24989072  1
  O  O278  1  0.37840319  0.49787433  0.76566278  1
  O  O279  1  0.86688108  -0.00091678  0.25855855  1
  O  O280  1  0.87880945  0.00108149  0.76515094  1
  O  O281  1  0.86332453  0.50190568  0.25791204  1
  O  O282  1  0.86329851  0.50789445  0.75114795  1
  O  O283  1  0.13104511  0.36620738  0.37769382  1
  O  O284  1  0.12127536  0.37059102  0.87134430  1
  O  O285  1  0.12137298  0.87657314  0.36018179  1
  O  O286  1  0.11100404  0.87418770  0.88239156  1
  O  O287  1  0.61818501  0.36720389  0.36446487  1
  O  O288  1  0.61485633  0.37817527  0.86272671  1
  O  O289  1  0.63296549  0.85818044  0.36590678  1
  O  O290  1  0.61663968  0.86700752  0.88652731  1
  O  O291  1  0.36736934  0.13213258  0.13956193  1
  O  O292  1  0.38154090  0.11406967  0.62943513  1
  O  O293  1  0.38750229  0.63158292  0.12717595  1
  O  O294  1  0.39423789  0.62707023  0.61640078  1
  O  O295  1  0.88237132  0.13295415  0.12504675  1
  O  O296  1  0.88640070  0.13148029  0.62257357  1
  O  O297  1  0.88269617  0.63260367  0.12868678  1
  O  O298  1  0.87815428  0.63097263  0.62808812  1
  O  O299  1  0.25469645  0.25819593  0.12129711  1
  O  O300  1  0.26003842  0.23474106  0.62853464  1
  O  O301  1  0.26140156  0.75526713  0.12833935  1
  O  O302  1  0.24756450  0.75371241  0.60693143  1
  O  O303  1  0.76214356  0.25264489  0.12492271  1
  O  O304  1  0.75317966  0.25847344  0.61847114  1
  O  O305  1  0.75445725  0.75564218  0.11550012  1
  O  O306  1  0.75986182  0.75827274  0.62779075  1
  O  O307  1  0.25228812  0.23646536  0.37507810  1
  O  O308  1  0.24457576  0.24967369  0.88136195  1
  O  O309  1  0.24654971  0.74225124  0.38002884  1
  O  O310  1  0.26243162  0.75614138  0.90317777  1
  O  O311  1  0.74272136  0.25111788  0.38210527  1
  O  O312  1  0.75694194  0.25328710  0.88396935  1
  O  O313  1  0.74566017  0.74445991  0.36598116  1
  O  O314  1  0.74430554  0.75738329  0.88749568  1
  O  O315  1  0.00725269  0.12916569  0.01285671  1
  O  O316  1  0.00553417  0.12025017  0.50652834  1
  O  O317  1  0.00606535  0.62228777  0.00653272  1
  O  O318  1  0.01248520  0.63150063  0.50503115  1
  O  O319  1  0.50778507  0.11490127  0.00063780  1
  O  O320  1  0.49654219  0.13598499  0.50608945  1
  O  O321  1  0.50726887  0.62078164  0.00799180  1
  O  O322  1  0.51261385  0.62000266  0.50529157  1
  O  O323  1  0.49286972  0.37549611  0.49284194  1
  O  O324  1  0.49901040  0.37689490  0.99185129  1
  O  O325  1  0.49903529  0.88137784  0.49952979  1
  O  O326  1  0.50258364  0.89066775  0.99900781  1
  O  O327  1  1.01095040  0.36067047  0.49023684  1
  O  O328  1  0.99455691  0.38122776  0.99535872  1
  O  O329  1  0.98897774  0.87974911  0.49965844  1
  O  O330  1  0.98877094  0.87147068  0.99402348  1
  O  O331  1  0.49977242  0.48636941  0.37239262  1
  O  O332  1  0.49421117  0.48885548  0.88019166  1
  O  O333  1  0.49450050  1.00217844  0.38653372  1
  O  O334  1  0.49622080  0.99784852  0.88859629  1
  O  O335  1  0.99061570  0.49828941  0.36631865  1
  O  O336  1  0.99666626  0.49777082  0.88427624  1
  O  O337  1  0.98931481  0.99776282  0.37962308  1
  O  O338  1  0.99090316  0.98916367  0.87888096  1
  O  O339  1  0.00387046  0.00893150  0.12306515  1
  O  O340  1  0.00364717  0.00583787  0.62272743  1
  O  O341  1  0.00684733  0.50312867  0.12159589  1
  O  O342  1  -0.00741831  0.51364648  0.62753154  1
  O  O343  1  0.50250553  -0.00123844  0.11515903  1
  O  O344  1  0.50650279  0.00972257  0.60511648  1
  O  O345  1  0.50262509  0.50835142  0.11955090  1
  O  O346  1  0.51212189  0.50198743  0.62357652  1
  O  O347  1  0.25363474  0.38067593  0.23763215  1
  O  O348  1  0.24513057  0.37638395  0.73877760  1
  O  O349  1  0.24173737  0.87943071  0.24304234  1
  O  O350  1  0.23576269  0.83159640  0.76938323  1
  O  O351  1  0.74120250  0.38282511  0.24922158  1
  O  O352  1  0.74264945  0.37951787  0.73871590  1
  O  O353  1  0.74310353  0.88561106  0.24592835  1
  O  O354  1  0.75686194  0.88371888  0.73694177  1
  O  O355  1  0.25421871  0.11967899  0.25507692  1
  O  O356  1  0.25922636  0.13461608  0.74661973  1
  O  O357  1  0.25093447  0.61849434  0.25867452  1
  O  O358  1  0.24562467  0.65727605  0.76671406  1
  O  O359  1  0.75048097  0.11207977  0.25110660  1
  O  O360  1  0.75627388  0.11898942  0.74173253  1
  O  O361  1  0.74799543  0.61132353  0.24369977  1
  O  O362  1  0.75641235  0.61407239  0.74213118  1
  O  O363  1  0.36663804  0.12013318  0.36309788  1
  O  O364  1  0.37407748  0.10999074  0.87985824  1
  O  O365  1  0.36326968  0.62110847  0.37612736  1
  O  O366  1  0.38497960  0.61335594  0.87856680  1
  O  O367  1  0.86988861  0.11258142  0.37316744  1
  O  O368  1  0.88459103  0.10787005  0.87815836  1
  O  O369  1  0.87636270  0.60846498  0.37244828  1
  O  O370  1  0.87574843  0.62469792  0.86113192  1
  O  O371  1  0.13311582  0.38860688  0.11704397  1
  O  O372  1  0.14400657  0.37772842  0.63668491  1
  O  O373  1  0.13073558  0.88107945  0.13292054  1
  O  O374  1  0.12454139  0.88818174  0.62432172  1
  O  O375  1  0.62417378  0.37582999  0.13837655  1
  O  O376  1  0.63023708  0.38261118  0.63019672  1
  O  O377  1  0.63346372  0.87571046  0.13624413  1
  O  O378  1  0.63568330  0.88376677  0.61855657  1
  O  O379  1  0.10882493  0.24862157  0.24308254  1
  O  O380  1  0.11312850  0.25937027  0.75604163  1
  O  O381  1  0.11763290  0.75811236  0.24843890  1
  O  O382  1  0.10064321  0.74033493  0.73636247  1
  O  O383  1  0.61944865  0.25612212  0.25379309  1
  O  O384  1  0.61779309  0.26179268  0.74286084  1
  O  O385  1  0.62099071  0.75384416  0.25867954  1
  O  O386  1  0.63533011  0.74518466  0.76629087  1
  O  O387  1  0.38348314  0.24463022  0.24631717  1
  O  O388  1  0.38056251  0.24835799  0.74617190  1
  O  O389  1  0.38366725  0.74816516  0.24347452  1
  O  O390  1  0.40240267  0.78068335  0.72186561  1
  O  O391  1  0.88233382  0.24908847  0.24354059  1
  O  O392  1  0.88544811  0.25363172  0.74473237  1
  O  O393  1  0.88198311  0.75034833  0.24345817  1
  O  O394  1  0.87660442  0.74233363  0.74177291  1
  O  O395  1  0.37645494  0.48660589  0.49526199  1
  O  O396  1  0.38475532  0.49282291  0.99824332  1
  O  O397  1  0.39316066  1.00590159  0.48950940  1
  O  O398  1  0.38914315  1.00104198  1.00143091  1
  O  O399  1  0.87686027  0.49652364  0.48648362  1
  O  O400  1  0.87823853  0.49545741  1.00109611  1
  O  O401  1  0.87820733  0.99475326  0.49443178  1
  O  O402  1  0.87608192  0.99152486  0.99260558  1
  O  O403  1  0.12000067  0.01575374  0.00724753  1
  O  O404  1  0.11545080  0.00625081  0.50456610  1
  O  O405  1  0.11996607  0.50931749  0.00538155  1
  O  O406  1  0.12731576  0.51587908  0.49598040  1
  O  O407  1  0.61705761  0.00731603  0.00409193  1
  O  O408  1  0.61124309  -0.00393856  0.50045864  1
  O  O409  1  0.62016345  0.50721808  0.00058808  1
  O  O410  1  0.62330865  0.50388266  0.50599561  1
  O  O411  1  0.36848598  0.36926403  0.11920708  1
  O  O412  1  0.36180756  0.38185089  0.62223720  1
  O  O413  1  0.36932319  0.86767626  0.12917492  1
  O  O414  1  0.34712672  0.89623064  0.62518271  1
  O  O415  1  0.87492199  0.36700869  0.11713501  1
  O  O416  1  0.86720141  0.37084320  0.62109650  1
  O  O417  1  0.87067793  0.86941542  0.11566623  1
  O  O418  1  0.86855912  0.86788325  0.61815696  1
  O  O419  1  0.13067026  0.11737442  0.38146721  1
  O  O420  1  0.12854715  0.13012932  0.88224114  1
  O  O421  1  0.13354460  0.62759135  0.38263466  1
  O  O422  1  0.11827700  0.63644867  0.88798560  1
  O  O423  1  0.62627712  0.14089403  0.37042897  1
  O  O424  1  0.62353924  0.12089725  0.89153518  1
  O  O425  1  0.62428970  0.63766584  0.37840845  1
  O  O426  1  0.61370485  0.63266592  0.88662579  1
