# generated using pymatgen
data_V85Zn86O256
_symmetry_space_group_name_H-M   'P 1'
_cell_length_a   16.93618355
_cell_length_b   16.95220968
_cell_length_c   16.95075698
_cell_angle_alpha   90.04545161
_cell_angle_beta   90.02102488
_cell_angle_gamma   90.00262706
_symmetry_Int_Tables_number   1
_chemical_formula_structural   V85Zn86O256
_chemical_formula_sum   'V85 Zn86 O256'
_cell_volume   4866.65767204
_cell_formula_units_Z   1
loop_
 _symmetry_equiv_pos_site_id
 _symmetry_equiv_pos_as_xyz
  1  'x, y, z'
loop_
 _atom_site_type_symbol
 _atom_site_label
 _atom_site_symmetry_multiplicity
 _atom_site_fract_x
 _atom_site_fract_y
 _atom_site_fract_z
 _atom_site_occupancy
  V  V0  1  0.50452293  0.13108487  0.12071991  1
  V  V1  1  0.12597955  0.75780598  0.86582123  1
  V  V2  1  0.50237119  0.25644132  0.24777547  1
  V  V3  1  0.37667095  0.00124539  0.37505801  1
  V  V4  1  0.75874098  0.87327178  0.62567901  1
  V  V5  1  0.25811034  0.36772276  0.12626524  1
  V  V6  1  0.12781972  0.50063012  0.12599222  1
  V  V7  1  0.50552526  0.51483696  0.50424998  1
  V  V8  1  0.85870503  0.74944708  0.11816498  1
  V  V9  1  0.12090931  0.61655882  -0.01363278  1
  V  V10  1  0.75006280  0.37157526  0.13487329  1
  V  V11  1  0.00048720  0.12209433  0.12211358  1
  V  V12  1  0.49997209  0.87326380  0.88124707  1
  V  V13  1  0.86213375  0.87633704  -0.00040492  1
  V  V14  1  0.75452963  0.74640595  0.50556374  1
  V  V15  1  -0.00193920  0.75160678  0.73949685  1
  V  V16  1  0.75439247  -0.00370751  0.25078897  1
  V  V17  1  0.63064206  0.87354618  0.24483108  1
  V  V18  1  0.00028507  0.62684559  0.12017400  1
  V  V19  1  0.87447133  0.37519243  -0.01229353  1
  V  V20  1  0.50358768  0.74897329  0.74552157  1
  V  V21  1  0.37557268  -0.00467292  0.87792142  1
  V  V22  1  0.12466658  0.37647112  0.24900281  1
  V  V23  1  0.50178948  0.87742757  0.37436456  1
  V  V24  1  0.37634205  0.50572776  0.37778530  1
  V  V25  1  0.24568233  0.50152298  0.74178825  1
  V  V26  1  0.25896265  0.24999062  0.49895218  1
  V  V27  1  0.63359961  0.74549406  0.88223622  1
  V  V28  1  -0.00067020  0.37903479  0.38738602  1
  V  V29  1  0.25257456  0.00016619  0.24780821  1
  V  V30  1  0.62797056  0.25417077  0.37381660  1
  V  V31  1  0.25509829  0.87583582  0.11839286  1
  V  V32  1  0.50001487  0.00247242  0.50323070  1
  V  V33  1  0.74756394  0.62291341  0.38070469  1
  V  V34  1  0.12766997  0.24848289  0.37378432  1
  V  V35  1  0.87370276  0.61878515  0.24921890  1
  V  V36  1  0.12321151  0.00921787  0.62790286  1
  V  V37  1  0.88264343  0.14059623  0.73935984  1
  V  V38  1  0.24937088  0.12322035  0.87248772  1
  V  V39  1  0.00580182  0.00173563  0.49786723  1
  V  V40  1  0.13527636  0.74426669  0.37278985  1
  V  V41  1  0.62385101  0.51451407  0.62418435  1
  V  V42  1  -0.00056397  0.75020847  0.24657857  1
  V  V43  1  0.87969717  0.49794148  0.39144114  1
  V  V44  1  0.38175949  0.12270044  0.75027988  1
  V  V45  1  0.12645993  0.87371419  0.24728275  1
  V  V46  1  0.62769326  0.87612672  0.75018055  1
  V  V47  1  0.62730771  0.00041569  0.62675697  1
  V  V48  1  0.37814383  0.25504851  0.63798154  1
  V  V49  1  0.23849471  0.37577779  0.62237204  1
  V  V50  1  0.50711818  0.37931976  0.37757637  1
  V  V51  1  0.87535834  0.87737727  0.49487055  1
  V  V52  1  0.37837311  0.75165440  0.11467473  1
  V  V53  1  0.50049329  0.00319047  0.00046984  1
  V  V54  1  0.12680550  0.61862289  0.50172603  1
  V  V55  1  0.37722837  0.36902334  -0.00109045  1
  V  V56  1  0.62131381  0.49386034  0.13263472  1
  V  V57  1  0.38225225  0.62453636  0.74286396  1
  V  V58  1  0.24017602  0.87052377  0.62693484  1
  V  V59  1  0.25316056  0.50310217  0.25512476  1
  V  V60  1  0.62533314  0.74658392  0.38072234  1
  V  V61  1  0.50089620  0.75056112  0.24808093  1
  V  V62  1  0.76300621  0.25721008  0.50694994  1
  V  V63  1  0.62285177  0.36704250  0.74316215  1
  V  V64  1  0.25464132  0.62900082  0.87077761  1
  V  V65  1  0.63008916  0.00073684  0.12115312  1
  V  V66  1  0.25194127  0.75043838  -0.00331411  1
  V  V67  1  0.24896309  0.24872291  0.00000263  1
  V  V68  1  0.75264603  0.11981330  0.37689383  1
  V  V69  1  0.74955352  0.49992048  0.76087377  1
  V  V70  1  0.37767008  0.13157773  0.24518860  1
  V  V71  1  0.37603826  0.49590055  0.87362267  1
  V  V72  1  0.00010403  0.25158152  0.24938674  1
  V  V73  1  0.76500927  0.00099668  0.75222582  1
  V  V74  1  0.87392124  0.62840401  0.75107446  1
  V  V75  1  0.37938582  0.75045507  0.62110509  1
  V  V76  1  -0.00300031  0.87733945  0.37104965  1
  V  V77  1  0.24837881  0.12395773  0.37800211  1
  V  V78  1  0.62453339  0.24256496  0.87724567  1
  V  V79  1  0.49862122  0.36698874  0.86826523  1
  V  V80  1  0.75761723  0.12126448  0.88182044  1
  V  V81  1  0.62828126  0.12666102  0.50193308  1
  V  V82  1  -0.00194823  0.87647189  0.87739390  1
  V  V83  1  0.87577570  0.12309424  0.25219526  1
  V  V84  1  0.37178234  0.62746141  0.24830738  1
  Zn  Zn85  1  0.07969397  0.17235599  0.53966540  1
  Zn  Zn86  1  0.50071633  0.62276489  0.12065877  1
  Zn  Zn87  1  0.11078062  0.49417061  0.62168677  1
  Zn  Zn88  1  0.25579806  0.74831647  0.49406835  1
  Zn  Zn89  1  0.76018393  0.62250215  0.88740158  1
  Zn  Zn90  1  0.37864691  0.37979707  0.50291359  1
  Zn  Zn91  1  0.12317677  -0.00300643  0.12421439  1
  Zn  Zn92  1  0.63006324  0.62214435  0.00544324  1
  Zn  Zn93  1  0.76509623  0.37619976  0.62651056  1
  Zn  Zn94  1  -0.01406624  0.62523557  0.61181997  1
  Zn  Zn95  1  0.74685080  0.24687276  0.00394155  1
  Zn  Zn96  1  0.50315183  0.13119255  0.63031814  1
  Zn  Zn97  1  0.12671947  0.11769893  0.00363045  1
  Zn  Zn98  1  -0.00229415  -0.00112038  -0.00434182  1
  Zn  Zn99  1  0.50264312  0.49938324  -0.00163016  1
  Zn  Zn100  1  0.87417146  0.25110180  0.12484096  1
  Zn  Zn101  1  0.10571599  0.23363345  0.88325046  1
  Zn  Zn102  1  0.37439286  0.87636849  0.50042911  1
  Zn  Zn103  1  0.74533874  0.49210991  0.25810234  1
  Zn  Zn104  1  -0.01223121  0.49633794  -0.00900700  1
  Zn  Zn105  1  0.03753736  0.35127978  0.82548172  1
  Zn  Zn106  1  0.24669410  -0.00548196  0.75217799  1
  Zn  Zn107  1  0.18744893  0.18710635  0.18648397  1
  Zn  Zn108  1  0.04907245  0.21124093  0.70469942  1
  Zn  Zn109  1  0.18926120  0.68724411  0.18470420  1
  Zn  Zn110  1  0.18679513  0.68811374  0.68622797  1
  Zn  Zn111  1  0.68503502  0.18693175  0.18968604  1
  Zn  Zn112  1  0.69173478  0.18603823  0.69032405  1
  Zn  Zn113  1  0.68608943  0.67949903  0.19116855  1
  Zn  Zn114  1  0.69123888  0.68754845  0.69151329  1
  Zn  Zn115  1  0.31846927  0.31616844  0.31290407  1
  Zn  Zn116  1  0.21992805  0.31140895  0.80362430  1
  Zn  Zn117  1  0.31588603  0.81602137  0.30744858  1
  Zn  Zn118  1  0.31620913  0.81558690  0.80759596  1
  Zn  Zn119  1  0.81559966  0.31158981  0.31609362  1
  Zn  Zn120  1  0.80988121  0.30934901  0.80962914  1
  Zn  Zn121  1  0.81353639  0.80919426  0.31196914  1
  Zn  Zn122  1  0.81719560  0.81229478  0.81290737  1
  Zn  Zn123  1  0.18883895  0.43525599  0.43739214  1
  Zn  Zn124  1  0.16999051  0.45310188  0.92749846  1
  Zn  Zn125  1  0.18766892  0.93285593  0.43974484  1
  Zn  Zn126  1  0.18443071  0.93881912  0.94106729  1
  Zn  Zn127  1  0.68841158  0.43807627  0.44221251  1
  Zn  Zn128  1  0.68433662  0.43104118  0.94349786  1
  Zn  Zn129  1  0.68692420  0.93664689  0.43646988  1
  Zn  Zn130  1  0.68597581  0.94009811  0.93588958  1
  Zn  Zn131  1  0.31861099  0.06276981  0.06190703  1
  Zn  Zn132  1  0.30960860  0.06309813  0.56528609  1
  Zn  Zn133  1  0.31145189  0.55944736  0.06068348  1
  Zn  Zn134  1  0.30788125  0.56830917  0.55722520  1
  Zn  Zn135  1  0.81528416  0.05924521  0.06506240  1
  Zn  Zn136  1  0.81748202  0.05959266  0.56190396  1
  Zn  Zn137  1  0.80513366  0.55598733  0.05989091  1
  Zn  Zn138  1  0.81053549  0.56187252  0.57137766  1
  Zn  Zn139  1  0.43782194  0.43483220  0.18873802  1
  Zn  Zn140  1  0.43953020  0.43678743  0.68703008  1
  Zn  Zn141  1  0.43890883  0.93805246  0.18572878  1
  Zn  Zn142  1  0.43653792  0.93539620  0.68866240  1
  Zn  Zn143  1  0.93790147  0.43780690  0.18462519  1
  Zn  Zn144  1  0.93883013  0.44790997  0.69082342  1
  Zn  Zn145  1  0.93288467  0.93466683  0.18251845  1
  Zn  Zn146  1  0.94303099  0.93397691  0.68540166  1
  Zn  Zn147  1  0.06401049  0.06007763  0.31032742  1
  Zn  Zn148  1  0.06264901  0.05739063  0.81125112  1
  Zn  Zn149  1  0.05999050  0.56379768  0.31344747  1
  Zn  Zn150  1  0.04613541  0.54522074  0.80415448  1
  Zn  Zn151  1  0.56547310  0.06484029  0.31150637  1
  Zn  Zn152  1  0.56646287  0.06278872  0.81231713  1
  Zn  Zn153  1  0.56194718  0.56455977  0.30905531  1
  Zn  Zn154  1  0.56251449  0.55972708  0.81224200  1
  Zn  Zn155  1  0.43961385  0.18668619  0.43638165  1
  Zn  Zn156  1  0.43664465  0.18886520  0.93734046  1
  Zn  Zn157  1  0.43848352  0.68675868  0.43553451  1
  Zn  Zn158  1  0.44460725  0.68348050  0.93655860  1
  Zn  Zn159  1  0.93663251  0.18535308  0.43104003  1
  Zn  Zn160  1  0.93146648  0.19240856  0.93731689  1
  Zn  Zn161  1  0.93919653  0.69113184  0.43503626  1
  Zn  Zn162  1  0.93443248  0.69131491  0.93391128  1
  Zn  Zn163  1  0.06098648  0.31072287  0.05738952  1
  Zn  Zn164  1  -0.05502086  0.31425430  0.57208265  1
  Zn  Zn165  1  0.06390274  0.80886150  0.05714284  1
  Zn  Zn166  1  0.06346477  0.80926030  0.55658526  1
  Zn  Zn167  1  0.56617132  0.31403364  0.05958622  1
  Zn  Zn168  1  0.56190378  0.31476142  0.56067486  1
  Zn  Zn169  1  0.56402137  0.81565881  0.06187763  1
  Zn  Zn170  1  0.56582296  0.81421275  0.56237625  1
  O  O171  1  0.11490761  0.12110582  0.12706893  1
  O  O172  1  0.13358511  0.10850201  0.62050432  1
  O  O173  1  0.11666747  0.62063986  0.11951145  1
  O  O174  1  0.12793899  0.62795608  0.60738111  1
  O  O175  1  0.61344495  0.11428105  0.13262149  1
  O  O176  1  0.62418844  0.11977047  0.62048619  1
  O  O177  1  0.62253542  0.60953900  0.12866090  1
  O  O178  1  0.62654775  0.61300357  0.62881365  1
  O  O179  1  0.38787798  0.38919041  0.37449748  1
  O  O180  1  0.38389918  0.38061752  0.88280280  1
  O  O181  1  0.38335172  0.88271788  0.37516562  1
  O  O182  1  0.38477077  0.88712323  0.86935657  1
  O  O183  1  0.88250379  0.39035496  0.37059468  1
  O  O184  1  0.86183959  0.37341300  0.88940535  1
  O  O185  1  0.88530180  0.87140684  0.37981694  1
  O  O186  1  0.88252377  0.86411289  0.89182383  1
  O  O187  1  0.25448751  0.00637292  0.37043232  1
  O  O188  1  0.26065475  0.00132869  0.87841992  1
  O  O189  1  0.26090050  0.49268217  0.36327519  1
  O  O190  1  0.25704036  0.51218078  0.86338016  1
  O  O191  1  0.74275643  0.01271304  0.36795583  1
  O  O192  1  0.74350806  0.01211378  0.86542648  1
  O  O193  1  0.75931535  0.50496447  0.37667689  1
  O  O194  1  0.73280900  0.50131029  0.86234444  1
  O  O195  1  0.25247665  0.49191363  0.14202415  1
  O  O196  1  0.25429613  0.49212528  0.62626104  1
  O  O197  1  0.25404295  0.99145662  0.12913297  1
  O  O198  1  0.23987175  0.98840122  0.62198218  1
  O  O199  1  0.74123217  0.48813940  0.13356735  1
  O  O200  1  0.73625141  0.49632774  0.63307227  1
  O  O201  1  0.73745042  1.00630181  0.13422249  1
  O  O202  1  0.74653771  0.99212291  0.63092253  1
  O  O203  1  0.00734243  0.37018448  0.25259711  1
  O  O204  1  -0.00343419  0.44406461  0.78702831  1
  O  O205  1  0.00467112  0.87091630  0.25294674  1
  O  O206  1  -0.00865394  0.85893206  0.75882804  1
  O  O207  1  0.49648337  0.36252829  0.25783858  1
  O  O208  1  0.50841464  0.37638252  0.75823929  1
  O  O209  1  0.50811588  0.87045958  0.25537654  1
  O  O210  1  0.50634747  0.86960098  0.75944463  1
  O  O211  1  0.49563145  0.13471070  0.24633208  1
  O  O212  1  0.48725944  0.11977205  0.74954759  1
  O  O213  1  0.48859731  0.63256687  0.24650074  1
  O  O214  1  0.49008023  0.63361983  0.75357567  1
  O  O215  1  0.99199343  0.12900829  0.24845083  1
  O  O216  1  0.98689501  0.12274320  0.75415098  1
  O  O217  1  0.99355470  0.62859251  0.23926181  1
  O  O218  1  0.99141411  0.63677088  0.75165810  1
  O  O219  1  0.36689603  0.26106845  -0.00170924  1
  O  O220  1  0.36797475  0.25243946  0.49804976  1
  O  O221  1  0.37335179  0.74577066  0.00950526  1
  O  O222  1  0.37757978  0.75229970  0.50655526  1
  O  O223  1  0.86675436  0.26135936  0.00683761  1
  O  O224  1  0.86563492  0.24895976  0.49525290  1
  O  O225  1  0.87402852  0.75541419  0.01295715  1
  O  O226  1  0.86524907  0.76194656  0.49402224  1
  O  O227  1  0.14393147  0.24763528  0.48082856  1
  O  O228  1  0.13794553  0.24186763  1.00271803  1
  O  O229  1  0.12989453  0.74911583  0.48280959  1
  O  O230  1  0.13176225  0.73767173  0.98883046  1
  O  O231  1  0.63124007  0.24479598  0.49070104  1
  O  O232  1  0.62962365  0.25465560  0.98312427  1
  O  O233  1  0.63373587  0.75786712  0.48637696  1
  O  O234  1  0.62030441  0.75236001  0.98439705  1
  O  O235  1  0.51085172  0.24312269  0.13469755  1
  O  O236  1  0.48230800  0.24748617  0.61487986  1
  O  O237  1  0.49399015  0.75138402  0.13017663  1
  O  O238  1  0.49631764  0.75792320  0.63679783  1
  O  O239  1  1.00055063  0.23882303  0.13258887  1
  O  O240  1  1.01273647  0.23389935  0.60417104  1
  O  O241  1  0.99536082  0.74233816  0.13039135  1
  O  O242  1  1.00434302  0.74900584  0.63659647  1
  O  O243  1  0.00986045  0.25575232  0.36930966  1
  O  O244  1  -0.00512826  0.25730895  0.87402810  1
  O  O245  1  0.00895802  0.75938224  0.36538349  1
  O  O246  1  0.01030364  0.75549613  0.86790440  1
  O  O247  1  0.50831934  0.25855772  0.37211247  1
  O  O248  1  0.50699093  0.25814468  0.87685234  1
  O  O249  1  0.50822692  0.75513633  0.36923810  1
  O  O250  1  0.50469813  0.75773597  0.86491595  1
  O  O251  1  0.25805627  0.13155471  0.48519693  1
  O  O252  1  0.25532269  0.13098646  0.99404595  1
  O  O253  1  0.23572703  0.63281489  0.49385569  1
  O  O254  1  0.25006910  0.63199324  0.98734404  1
  O  O255  1  0.75022442  0.13082471  0.49314606  1
  O  O256  1  0.75754898  0.12180798  0.98586751  1
  O  O257  1  0.75706742  0.63323544  0.49039144  1
  O  O258  1  0.74437421  0.62461024  0.99837227  1
  O  O259  1  0.25801301  0.36485206  0.01009081  1
  O  O260  1  0.25692114  0.36839533  0.50315942  1
  O  O261  1  0.24733005  0.86805033  0.01216872  1
  O  O262  1  0.25533423  0.87013178  0.51097907  1
  O  O263  1  0.75773686  0.37319791  0.01438945  1
  O  O264  1  0.74963180  0.35976888  0.50125425  1
  O  O265  1  0.76275001  0.87749488  -0.00443935  1
  O  O266  1  0.75686026  0.87131125  0.50410606  1
  O  O267  1  0.13406559  0.50023825  0.24396990  1
  O  O268  1  0.14502379  0.51890592  0.74031895  1
  O  O269  1  0.13535993  0.99103313  0.24695527  1
  O  O270  1  0.12711859  0.99878804  0.73281209  1
  O  O271  1  0.62615205  0.49894326  0.23906116  1
  O  O272  1  0.62837381  0.49430976  0.73947628  1
  O  O273  1  0.63288834  0.99284554  0.24519715  1
  O  O274  1  0.63430047  0.99365162  0.74400941  1
  O  O275  1  0.37232506  0.00738230  0.25574248  1
  O  O276  1  0.37358604  0.00504212  0.75805231  1
  O  O277  1  0.37204697  0.50761752  0.25553229  1
  O  O278  1  0.37205038  0.50987812  0.75145017  1
  O  O279  1  0.86103506  0.00390396  0.24451260  1
  O  O280  1  0.86645013  -0.00280940  0.74736508  1
  O  O281  1  0.87391330  0.51189660  0.25158130  1
  O  O282  1  0.85204330  0.50938018  0.74978736  1
  O  O283  1  0.11997788  0.36993567  0.36757192  1
  O  O284  1  0.14313860  0.35957519  0.87953650  1
  O  O285  1  0.12118411  0.86391773  0.36657507  1
  O  O286  1  0.12059101  0.86329519  0.87914056  1
  O  O287  1  0.61660618  0.36994099  0.37837336  1
  O  O288  1  0.61752598  0.36758385  0.86622537  1
  O  O289  1  0.62123122  0.86876835  0.36507445  1
  O  O290  1  0.61949863  0.86661024  0.86925185  1
  O  O291  1  0.38826975  0.12009763  0.13784750  1
  O  O292  1  0.37324108  0.13354009  0.63337565  1
  O  O293  1  0.37608459  0.63242369  0.13033571  1
  O  O294  1  0.37168402  0.63999864  0.62994181  1
  O  O295  1  0.87902232  0.12754021  0.13703406  1
  O  O296  1  0.87189559  0.12002297  0.64157216  1
  O  O297  1  0.87901708  0.63183601  0.13056324  1
  O  O298  1  0.86995061  0.62827886  0.64212279  1
  O  O299  1  0.24929390  0.25886739  0.12009870  1
  O  O300  1  0.26453126  0.25910639  0.61179906  1
  O  O301  1  0.25832289  0.75522835  0.11850881  1
  O  O302  1  0.25774846  0.75917653  0.62367126  1
  O  O303  1  0.74636603  0.25913439  0.12595183  1
  O  O304  1  0.74649845  0.24975668  0.60842943  1
  O  O305  1  0.76102975  0.74646499  0.13242613  1
  O  O306  1  0.74125255  0.75757796  0.61251600  1
  O  O307  1  0.24871271  0.24446553  0.37530254  1
  O  O308  1  0.25609708  0.23514213  0.88616564  1
  O  O309  1  0.23802577  0.75607481  0.36888228  1
  O  O310  1  0.25032483  0.75026246  0.87656542  1
  O  O311  1  0.74546701  0.24274022  0.38308035  1
  O  O312  1  0.74388458  0.23618186  0.87555623  1
  O  O313  1  0.74475246  0.74268313  0.38292187  1
  O  O314  1  0.73470745  0.75041227  0.86783090  1
  O  O315  1  -0.00499713  0.12201580  0.01027483  1
  O  O316  1  0.00130668  0.10590259  0.48268331  1
  O  O317  1  -0.00185094  0.62925589  0.01218570  1
  O  O318  1  0.01931953  0.64033325  0.49756743  1
  O  O319  1  0.49659841  0.11945542  0.01113294  1
  O  O320  1  0.50691889  0.11445862  0.49974298  1
  O  O321  1  0.50812286  0.61839484  0.00298147  1
  O  O322  1  0.50425201  0.61399528  0.49442425  1
  O  O323  1  0.49863499  0.38535048  0.49099406  1
  O  O324  1  0.49211261  0.37466215  0.99285897  1
  O  O325  1  0.50222499  0.88790787  0.49384277  1
  O  O326  1  0.50315059  0.88221385  0.98706520  1
  O  O327  1  1.00442647  0.37098491  0.48521599  1
  O  O328  1  0.98196723  0.37635154  1.00622254  1
  O  O329  1  0.99379665  0.87683141  0.49044838  1
  O  O330  1  0.99193848  0.87059654  0.99219681  1
  O  O331  1  0.49825056  0.49565823  0.38005685  1
  O  O332  1  0.49438999  0.48881518  0.87465203  1
  O  O333  1  0.49805181  0.99798621  0.38133894  1
  O  O334  1  0.49914543  0.99439193  0.88192361  1
  O  O335  1  0.98812808  0.49451032  0.37141981  1
  O  O336  1  1.06901186  0.52854616  0.91837327  1
  O  O337  1  1.01023596  0.98350647  0.37909752  1
  O  O338  1  1.00408148  0.98021598  0.87320175  1
  O  O339  1  -0.00072528  0.01304398  0.13152648  1
  O  O340  1  0.01520287  -0.00937092  0.61492311  1
  O  O341  1  0.01294466  0.50699379  0.12081649  1
  O  O342  1  0.00148546  0.51440542  0.62401341  1
  O  O343  1  0.50756899  0.00556260  0.11894494  1
  O  O344  1  0.50588421  0.00092557  0.61758598  1
  O  O345  1  0.51098864  0.49594473  0.12608522  1
  O  O346  1  0.51326878  0.49765748  0.61831572  1
  O  O347  1  0.24683086  0.38012458  0.24444203  1
  O  O348  1  0.25939474  0.39004157  0.73434347  1
  O  O349  1  0.24678956  0.87979901  0.23876177  1
  O  O350  1  0.25530878  0.87723486  0.73186893  1
  O  O351  1  0.75303399  0.37293513  0.24026886  1
  O  O352  1  0.74115365  0.38493536  0.74893575  1
  O  O353  1  0.74272426  0.88373956  0.25806187  1
  O  O354  1  0.74950328  0.87951033  0.74302104  1
  O  O355  1  0.26039837  0.12168044  0.25501302  1
  O  O356  1  0.26485850  0.11647473  0.76751190  1
  O  O357  1  0.26254178  0.61828789  0.24584690  1
  O  O358  1  0.26516085  0.62577163  0.75178224  1
  O  O359  1  0.75552169  0.11924822  0.25752867  1
  O  O360  1  0.76099983  0.11717936  0.75554478  1
  O  O361  1  0.75847133  0.62299895  0.26462884  1
  O  O362  1  0.75226229  0.61669436  0.75718346  1
  O  O363  1  0.37074939  0.12019189  0.36452707  1
  O  O364  1  0.37498777  0.11274966  0.87141832  1
  O  O365  1  0.37941439  0.61393099  0.36543711  1
  O  O366  1  0.36994458  0.62190587  0.86630751  1
  O  O367  1  0.86668998  0.12465598  0.36151136  1
  O  O368  1  0.86145032  0.12672833  0.86405132  1
  O  O369  1  0.87220277  0.61667842  0.36860341  1
  O  O370  1  0.87407326  0.62801058  0.86125927  1
  O  O371  1  0.13396101  0.38233988  0.12946127  1
  O  O372  1  0.13936001  0.37917224  0.61851487  1
  O  O373  1  0.13408218  0.86955819  0.13212603  1
  O  O374  1  0.13784077  0.87458783  0.62019623  1
  O  O375  1  0.63628787  0.38184228  0.12522332  1
  O  O376  1  0.62502786  0.37614167  0.63632161  1
  O  O377  1  0.62123149  0.88302221  0.13746995  1
  O  O378  1  0.63671314  0.88048297  0.62970155  1
  O  O379  1  0.12302690  0.25602200  0.25770810  1
  O  O380  1  0.12321863  0.25941842  0.76741892  1
  O  O381  1  0.12142563  0.75208896  0.25636764  1
  O  O382  1  0.11250921  0.74720759  0.75458725  1
  O  O383  1  0.61794031  0.24400764  0.26655990  1
  O  O384  1  0.63205743  0.25842777  0.75913140  1
  O  O385  1  0.62323638  0.75662725  0.25739195  1
  O  O386  1  0.61887988  0.75607992  0.75560063  1
  O  O387  1  0.38695677  0.24118386  0.25588452  1
  O  O388  1  0.37145810  0.24281550  0.73712235  1
  O  O389  1  0.37891639  0.74305469  0.24164072  1
  O  O390  1  0.38512373  0.74513198  0.74282392  1
  O  O391  1  0.88215438  0.24072052  0.25040154  1
  O  O392  1  0.87244380  0.24012755  0.74372275  1
  O  O393  1  0.87934841  0.73953197  0.24188758  1
  O  O394  1  0.88735798  0.74422588  0.75131878  1
  O  O395  1  0.38315769  0.50374266  0.49244758  1
  O  O396  1  0.37346373  0.48784268  0.99285855  1
  O  O397  1  0.38405909  1.00128272  0.49484337  1
  O  O398  1  0.39080826  1.00079439  0.99331158  1
  O  O399  1  0.87326368  0.50650938  0.48917300  1
  O  O400  1  0.87479062  0.48335388  1.00443119  1
  O  O401  1  0.88542782  0.98559454  0.50332536  1
  O  O402  1  0.87985875  0.97993962  1.01133042  1
  O  O403  1  0.11649139  -0.00009575  0.00775111  1
  O  O404  1  0.11684733  -0.00847489  0.50908666  1
  O  O405  1  0.16245789  0.50942359  0.02717751  1
  O  O406  1  0.12863867  0.51585769  0.49331642  1
  O  O407  1  0.61464562  -0.00525103  0.00995761  1
  O  O408  1  0.62077338  0.00593963  0.50570498  1
  O  O409  1  0.62315767  0.49627513  0.01705988  1
  O  O410  1  0.62102313  0.49638786  0.51586285  1
  O  O411  1  0.36567753  0.37903690  0.11795147  1
  O  O412  1  0.37370324  0.36454951  0.62338905  1
  O  O413  1  0.36742237  0.86407359  0.13076368  1
  O  O414  1  0.36966256  0.86433607  0.62308179  1
  O  O415  1  0.86151218  0.37300046  0.12587769  1
  O  O416  1  0.87755423  0.37746351  0.63019174  1
  O  O417  1  0.87671839  0.85765291  0.11626862  1
  O  O418  1  0.86368550  0.87573500  0.61705652  1
  O  O419  1  0.13791083  0.13377346  0.36376909  1
  O  O420  1  0.13626425  0.11719957  0.88012345  1
  O  O421  1  0.12100861  0.63937327  0.37563048  1
  O  O422  1  0.14666558  0.64255419  0.86776870  1
  O  O423  1  0.63327224  0.13263296  0.38151495  1
  O  O424  1  0.63843012  0.13282774  0.86667008  1
  O  O425  1  0.63501934  0.63416364  0.36947922  1
  O  O426  1  0.62158712  0.64077911  0.87248852  1
