# generated using pymatgen
data_V85Zn86O256
_symmetry_space_group_name_H-M   'P 1'
_cell_length_a   16.96876225
_cell_length_b   16.97140082
_cell_length_c   16.96450213
_cell_angle_alpha   90.04797317
_cell_angle_beta   89.99793337
_cell_angle_gamma   89.92259464
_symmetry_Int_Tables_number   1
_chemical_formula_structural   V85Zn86O256
_chemical_formula_sum   'V85 Zn86 O256'
_cell_volume   4885.49333370
_cell_formula_units_Z   1
loop_
 _symmetry_equiv_pos_site_id
 _symmetry_equiv_pos_as_xyz
  1  'x, y, z'
loop_
 _atom_site_type_symbol
 _atom_site_label
 _atom_site_symmetry_multiplicity
 _atom_site_fract_x
 _atom_site_fract_y
 _atom_site_fract_z
 _atom_site_occupancy
  V  V0  1  0.26189896  0.88006000  0.62256228  1
  V  V1  1  -0.00093120  0.12993942  0.12795942  1
  V  V2  1  0.00037249  0.62427464  0.62341086  1
  V  V3  1  0.62544085  0.49453990  0.12479197  1
  V  V4  1  0.37322255  -0.00089016  0.86811212  1
  V  V5  1  0.49999216  0.50163604  -0.00724345  1
  V  V6  1  -0.00124511  0.50190948  -0.00399671  1
  V  V7  1  0.37529208  0.37431305  0.49096164  1
  V  V8  1  0.12407048  0.62763498  0.50009399  1
  V  V9  1  0.24909403  0.12322877  0.86419707  1
  V  V10  1  0.87902407  0.75177259  0.62551567  1
  V  V11  1  0.87483678  0.88108504  0.49925702  1
  V  V12  1  0.62149781  0.87194376  0.24864203  1
  V  V13  1  0.12918011  0.12188473  -0.00497043  1
  V  V14  1  0.50171339  0.24863028  0.24268703  1
  V  V15  1  0.74780188  0.87216095  0.11759583  1
  V  V16  1  0.24980785  0.24868389  0.49525427  1
  V  V17  1  0.63432393  0.37275596  0.24890359  1
  V  V18  1  0.24975587  0.87170584  0.12181080  1
  V  V19  1  0.63193966  0.74734646  0.88074801  1
  V  V20  1  0.25347257  -0.00232914  0.24925386  1
  V  V21  1  0.38199199  0.12196797  0.24416994  1
  V  V22  1  0.75022170  0.74882486  0.50110940  1
  V  V23  1  0.49965222  0.62349502  0.12464357  1
  V  V24  1  0.87946463  0.13345040  0.75300507  1
  V  V25  1  0.74979215  0.50843790  0.76690967  1
  V  V26  1  0.87187985  0.74590703  0.11978144  1
  V  V27  1  0.50104951  0.87822822  0.87675113  1
  V  V28  1  0.75035481  0.87924667  0.62980405  1
  V  V29  1  0.74711106  0.12295855  0.88112521  1
  V  V30  1  0.12925895  0.00025109  0.63336036  1
  V  V31  1  0.62504606  0.24969589  0.37811360  1
  V  V32  1  0.61800225  0.37328463  0.75321126  1
  V  V33  1  0.60705150  0.12204176  0.00397705  1
  V  V34  1  0.37263202  0.74608182  0.12462305  1
  V  V35  1  0.87344950  0.12753030  0.24718817  1
  V  V36  1  0.13467934  0.87636718  0.75055295  1
  V  V37  1  0.12247150  0.12341512  0.49964490  1
  V  V38  1  0.87529155  -0.00626672  0.87518303  1
  V  V39  1  0.62440676  0.87509920  0.74785992  1
  V  V40  1  0.87141846  0.38215376  -0.01463799  1
  V  V41  1  0.37682871  -0.00570796  0.38677262  1
  V  V42  1  0.00004194  0.74699189  0.24529504  1
  V  V43  1  0.63672485  0.62823155  -0.00076187  1
  V  V44  1  0.00933678  0.74974591  0.75098673  1
  V  V45  1  0.25086138  0.24930361  -0.00341061  1
  V  V46  1  0.24707062  0.74342974  -0.01991398  1
  V  V47  1  0.37484702  0.61192959  0.25279848  1
  V  V48  1  0.38797116  0.74496232  0.61991140  1
  V  V49  1  0.00162609  0.48864506  0.49680381  1
  V  V50  1  0.38888636  0.12637420  0.74818753  1
  V  V51  1  0.12450578  -0.00217946  0.12922221  1
  V  V52  1  0.01023709  0.87320155  0.87547802  1
  V  V53  1  0.74314154  0.12375643  0.37840335  1
  V  V54  1  0.74719542  -0.00101119  0.75019395  1
  V  V55  1  0.87601136  0.87197141  0.00052656  1
  V  V56  1  0.12451089  0.87331076  0.24951450  1
  V  V57  1  0.61054184  0.00178456  0.12096229  1
  V  V58  1  0.87826122  0.49942221  0.37427066  1
  V  V59  1  0.74727322  -0.00064356  0.24773000  1
  V  V60  1  0.74787671  0.38368058  0.62466425  1
  V  V61  1  0.24666725  0.12448646  0.37332549  1
  V  V62  1  0.25751258  0.75785462  0.49827825  1
  V  V63  1  0.00193448  -0.00475502  0.00037236  1
  V  V64  1  0.87143952  0.37201316  0.49396710  1
  V  V65  1  0.37638630  0.37493550  0.00127870  1
  V  V66  1  0.87856894  0.62479570  0.24666355  1
  V  V67  1  0.74926452  0.49976462  0.24667046  1
  V  V68  1  0.74720313  0.25268949  0.00493438  1
  V  V69  1  0.37790567  0.87868011  -0.00049246  1
  V  V70  1  0.23685849  0.37953930  0.12644529  1
  V  V71  1  0.12679791  0.74805395  0.37409283  1
  V  V72  1  0.38612386  0.24987129  0.62720341  1
  V  V73  1  0.62310113  0.74717252  0.37493898  1
  V  V74  1  -0.00206726  0.12887136  0.63399741  1
  V  V75  1  0.12290500  0.49130705  0.63379178  1
  V  V76  1  0.87942124  -0.00234367  0.37187323  1
  V  V77  1  0.87321523  0.25980614  0.12611432  1
  V  V78  1  0.74318503  0.24671159  0.50417265  1
  V  V79  1  0.51986255  0.00310617  0.50776810  1
  V  V80  1  0.25524892  0.61703413  0.37725221  1
  V  V81  1  0.12267342  0.62159132  -0.00828279  1
  V  V82  1  0.48599046  0.50661275  0.49904301  1
  V  V83  1  0.24818641  0.37109540  0.63363493  1
  V  V84  1  0.62253977  0.62226164  0.50713934  1
  Zn  Zn85  1  0.74961168  0.62417460  0.37572843  1
  Zn  Zn86  1  0.37844925  0.24613656  0.12361422  1
  Zn  Zn87  1  -0.00032489  0.87293696  0.37576705  1
  Zn  Zn88  1  0.06455504  0.30882599  0.18687233  1
  Zn  Zn89  1  0.61809426  0.50730805  0.62979801  1
  Zn  Zn90  1  0.38353840  0.61764886  0.75440433  1
  Zn  Zn91  1  0.49133007  0.36953451  0.86768793  1
  Zn  Zn92  1  0.87837253  0.61528616  0.76501306  1
  Zn  Zn93  1  0.61686013  0.24715981  0.87386683  1
  Zn  Zn94  1  0.87905923  0.25559474  0.63132259  1
  Zn  Zn95  1  0.01615402  0.37797789  0.84292847  1
  Zn  Zn96  1  0.50357230  0.74023654  0.74732676  1
  Zn  Zn97  1  0.06309089  0.56734846  0.16648981  1
  Zn  Zn98  1  0.49668284  0.74690866  0.25275925  1
  Zn  Zn99  1  0.24839680  0.50758816  0.76000290  1
  Zn  Zn100  1  0.49685503  0.37936708  0.37113739  1
  Zn  Zn101  1  0.52118196  0.12990877  0.62264922  1
  Zn  Zn102  1  0.23642111  0.49601910  0.24723387  1
  Zn  Zn103  1  0.49582518  0.87329564  0.37993392  1
  Zn  Zn104  1  0.36089583  0.50958384  0.87775079  1
  Zn  Zn105  1  0.06574409  0.30576419  0.43709230  1
  Zn  Zn106  1  0.00077255  -0.00217432  0.50403828  1
  Zn  Zn107  1  0.19571877  0.18467829  0.18064994  1
  Zn  Zn108  1  0.19894048  0.18118958  0.68137148  1
  Zn  Zn109  1  0.19127075  0.68224104  0.18581714  1
  Zn  Zn110  1  0.19176227  0.68961288  0.68773174  1
  Zn  Zn111  1  0.68683462  0.18529236  0.18559114  1
  Zn  Zn112  1  0.69419960  0.19428504  0.69252836  1
  Zn  Zn113  1  0.68940536  0.68486120  0.18625142  1
  Zn  Zn114  1  0.68616322  0.69037060  0.69051882  1
  Zn  Zn115  1  0.30754459  0.31044861  0.30882745  1
  Zn  Zn116  1  0.31337184  0.31175405  0.81428422  1
  Zn  Zn117  1  0.31404696  0.81039044  0.31028015  1
  Zn  Zn118  1  0.31885691  0.80969461  0.80484311  1
  Zn  Zn119  1  0.92574253  0.30904541  0.31275405  1
  Zn  Zn120  1  0.80280090  0.31355842  0.81435392  1
  Zn  Zn121  1  0.80793041  0.81075017  0.30980580  1
  Zn  Zn122  1  0.83167830  0.77908893  0.83184649  1
  Zn  Zn123  1  0.19258346  0.44139529  0.44797471  1
  Zn  Zn124  1  0.18378086  0.43849662  0.93413241  1
  Zn  Zn125  1  0.18647695  0.93879202  0.43818000  1
  Zn  Zn126  1  0.19218014  0.93782830  0.93592971  1
  Zn  Zn127  1  0.68606098  0.43878893  0.43456035  1
  Zn  Zn128  1  0.68676750  0.43673401  0.93829711  1
  Zn  Zn129  1  0.69123350  0.93127186  0.43221442  1
  Zn  Zn130  1  0.68478167  0.93749986  0.93912833  1
  Zn  Zn131  1  0.31561508  0.05998230  0.06020467  1
  Zn  Zn132  1  0.31467254  0.06426430  0.56547075  1
  Zn  Zn133  1  0.30850189  0.56124714  0.05838447  1
  Zn  Zn134  1  0.29752741  0.57718513  0.59214537  1
  Zn  Zn135  1  0.80963666  0.05961286  0.06336605  1
  Zn  Zn136  1  0.69625004  0.06357076  0.56501883  1
  Zn  Zn137  1  0.81327517  0.55968554  0.06328480  1
  Zn  Zn138  1  0.81272864  0.56470466  0.56398955  1
  Zn  Zn139  1  0.43820818  0.43332219  0.18384707  1
  Zn  Zn140  1  0.43415503  0.44344709  0.68173516  1
  Zn  Zn141  1  0.43659351  0.93404359  0.19006721  1
  Zn  Zn142  1  0.44180309  0.94096729  0.68681523  1
  Zn  Zn143  1  0.93053726  0.44017337  0.17594207  1
  Zn  Zn144  1  0.92833931  0.44233631  0.68452159  1
  Zn  Zn145  1  0.93832148  0.93582726  0.18907091  1
  Zn  Zn146  1  0.94038344  0.94193798  0.69039559  1
  Zn  Zn147  1  0.06126032  0.16709204  0.31237217  1
  Zn  Zn148  1  0.06626093  0.19109365  0.81872060  1
  Zn  Zn149  1  0.06721632  0.44802476  0.31023995  1
  Zn  Zn150  1  0.06463390  0.56347144  0.81932723  1
  Zn  Zn151  1  0.56063030  0.06059526  0.31307433  1
  Zn  Zn152  1  0.56243067  0.06003327  0.81464298  1
  Zn  Zn153  1  0.55904166  0.56173775  0.31788174  1
  Zn  Zn154  1  0.55876009  0.56520017  0.81056658  1
  Zn  Zn155  1  0.43920743  0.18327027  0.43562103  1
  Zn  Zn156  1  0.43676891  0.19137349  0.93280920  1
  Zn  Zn157  1  0.43614677  0.68842014  0.44004475  1
  Zn  Zn158  1  0.44158249  0.68881062  0.93376397  1
  Zn  Zn159  1  0.92670280  0.17638563  0.44843729  1
  Zn  Zn160  1  0.92988096  0.18147219  0.94390914  1
  Zn  Zn161  1  0.93880263  0.68545303  0.43521015  1
  Zn  Zn162  1  0.94248014  0.68432578  0.93526353  1
  Zn  Zn163  1  0.05722604  0.30380975  -0.02016448  1
  Zn  Zn164  1  0.06417184  0.30802366  0.67744712  1
  Zn  Zn165  1  0.06565614  0.80125687  0.06259413  1
  Zn  Zn166  1  0.06563676  0.81629606  0.56160948  1
  Zn  Zn167  1  0.56167228  0.31279747  0.06032634  1
  Zn  Zn168  1  0.56215780  0.32072729  0.56279597  1
  Zn  Zn169  1  0.55858195  0.81129728  0.06159258  1
  Zn  Zn170  1  0.56594718  0.82211313  0.55720327  1
  O  O171  1  0.11903047  0.11250517  0.11921261  1
  O  O172  1  0.12289061  0.11525944  0.61786284  1
  O  O173  1  0.12153806  0.64426813  0.10531286  1
  O  O174  1  0.11307109  0.62158979  0.61869976  1
  O  O175  1  0.62834375  0.11324886  0.11621714  1
  O  O176  1  0.63337330  0.12623286  0.63136021  1
  O  O177  1  0.61906671  0.61673770  0.12138636  1
  O  O178  1  0.62842063  0.62950204  0.61039369  1
  O  O179  1  0.37260477  0.36851942  0.38746760  1
  O  O180  1  0.37289448  0.37763725  0.88980319  1
  O  O181  1  0.37693083  0.89044853  0.36696588  1
  O  O182  1  0.38001526  0.87980207  0.87759649  1
  O  O183  1  0.87205339  0.38277293  0.38587092  1
  O  O184  1  0.87458988  0.36985186  0.88590377  1
  O  O185  1  0.87111927  0.87932474  0.38007622  1
  O  O186  1  0.88307398  0.87296676  0.88360043  1
  O  O187  1  0.26031884  0.00325338  0.37149612  1
  O  O188  1  0.26453951  0.00834513  0.87992541  1
  O  O189  1  0.24925420  0.51553224  0.37782309  1
  O  O190  1  0.24554628  0.50363307  0.87332780  1
  O  O191  1  0.75544257  0.00447475  0.36788546  1
  O  O192  1  0.75565901  0.00342824  0.87129501  1
  O  O193  1  0.75970807  0.50069520  0.36428247  1
  O  O194  1  0.74761235  0.50324742  0.86546833  1
  O  O195  1  0.25046380  0.48307761  0.12149101  1
  O  O196  1  0.23544320  0.48335366  0.61295262  1
  O  O197  1  0.24438583  0.99152914  0.12704317  1
  O  O198  1  0.24302626  0.99102280  0.61747288  1
  O  O199  1  0.74139035  0.50418913  0.13865761  1
  O  O200  1  0.74566388  0.49051466  0.62178491  1
  O  O201  1  0.74310238  0.99038490  0.13178473  1
  O  O202  1  0.75328007  0.98701316  0.63436161  1
  O  O203  1  -0.00631259  0.37718577  0.24745883  1
  O  O204  1  -0.01100167  0.36717131  0.73686405  1
  O  O205  1  0.00695336  0.86745248  0.25428463  1
  O  O206  1  0.01318122  0.87172998  0.75486732  1
  O  O207  1  0.50808904  0.36744177  0.25326065  1
  O  O208  1  0.51561674  0.38361103  0.74704489  1
  O  O209  1  0.51212388  0.87007208  0.25153982  1
  O  O210  1  0.51166677  0.87560192  0.75539136  1
  O  O211  1  0.49221362  0.13306462  0.25620176  1
  O  O212  1  0.49232151  0.12064552  0.74572317  1
  O  O213  1  0.49285916  0.62474602  0.24401071  1
  O  O214  1  0.50018770  0.62706945  0.74120689  1
  O  O215  1  0.99000615  0.11562276  0.23442347  1
  O  O216  1  0.99007750  0.12487283  0.74848628  1
  O  O217  1  0.98532726  0.63284988  0.24386180  1
  O  O218  1  0.99959904  0.63371870  0.74308275  1
  O  O219  1  0.36861385  0.25532230  0.00348090  1
  O  O220  1  0.37045267  0.25345205  0.50392591  1
  O  O221  1  0.36543295  0.75624470  0.00523299  1
  O  O222  1  0.36835449  0.75811410  0.50478437  1
  O  O223  1  0.86496076  0.25740159  0.00642333  1
  O  O224  1  0.86013976  0.25753711  0.49964655  1
  O  O225  1  0.88454022  0.75593956  0.01526386  1
  O  O226  1  0.87246354  0.75772246  0.50757205  1
  O  O227  1  0.13437743  0.23219724  0.49904103  1
  O  O228  1  0.13670905  0.22785777  1.01168192  1
  O  O229  1  0.13083087  0.74770998  0.49222642  1
  O  O230  1  0.14212238  0.74909223  0.99581282  1
  O  O231  1  0.63475210  0.25863098  0.49330674  1
  O  O232  1  0.63206293  0.24044457  1.00367842  1
  O  O233  1  0.62969792  0.74618162  0.49289689  1
  O  O234  1  0.61879258  0.74242495  0.99071976  1
  O  O235  1  0.50049296  0.25178817  0.13895923  1
  O  O236  1  0.48946989  0.24734417  0.61582819  1
  O  O237  1  0.48767299  0.74267536  0.12481187  1
  O  O238  1  0.48837552  0.76642604  0.62016937  1
  O  O239  1  0.98977387  0.23953081  0.11872906  1
  O  O240  1  0.99582343  0.23230989  0.61684872  1
  O  O241  1  0.98963562  0.75850121  0.13921924  1
  O  O242  1  0.99771869  0.74324322  0.62572583  1
  O  O243  1  -0.00700858  0.23815037  0.37769306  1
  O  O244  1  0.00142339  0.24832041  0.89146330  1
  O  O245  1  0.00794092  0.74883924  0.36406169  1
  O  O246  1  0.00371945  0.76443299  0.86359779  1
  O  O247  1  0.51323229  0.24796061  0.36881637  1
  O  O248  1  0.50460177  0.25713334  0.87623354  1
  O  O249  1  0.51108294  0.75318805  0.37565141  1
  O  O250  1  0.50852745  0.76442998  0.87177560  1
  O  O251  1  0.24559715  0.12887097  0.49350287  1
  O  O252  1  0.24655483  0.12757381  0.99389537  1
  O  O253  1  0.24598707  0.63799489  0.49681341  1
  O  O254  1  0.24247680  0.63811852  1.00226852  1
  O  O255  1  0.75214739  0.13427124  0.49115784  1
  O  O256  1  0.74827798  0.12863558  0.99110636  1
  O  O257  1  0.74387423  0.63245173  0.49776242  1
  O  O258  1  0.73545941  0.62276871  1.00724057  1
  O  O259  1  0.25595114  0.36545168  0.00871581  1
  O  O260  1  0.25780256  0.36374722  0.50540997  1
  O  O261  1  0.25609363  0.86293742  0.00294688  1
  O  O262  1  0.24327388  0.86519537  0.50769793  1
  O  O263  1  0.75832368  0.36603819  -0.00283112  1
  O  O264  1  0.75365968  0.37061925  0.50413630  1
  O  O265  1  0.75461730  0.87914878  0.01239942  1
  O  O266  1  0.75541037  0.86835754  0.50869438  1
  O  O267  1  0.12418580  0.51657816  0.24443486  1
  O  O268  1  0.12435349  0.50673866  0.73613283  1
  O  O269  1  0.13388580  0.99290289  0.23661156  1
  O  O270  1  0.12726061  0.98940919  0.73515721  1
  O  O271  1  0.62971605  0.49617987  0.24598821  1
  O  O272  1  0.63542477  0.49298285  0.74837796  1
  O  O273  1  0.62779896  0.99054401  0.24434622  1
  O  O274  1  0.63941680  0.99011599  0.75944324  1
  O  O275  1  0.37232952  0.00452469  0.25718275  1
  O  O276  1  0.37815837  0.00837083  0.75806694  1
  O  O277  1  0.37189885  0.51014824  0.24449972  1
  O  O278  1  0.36999200  0.49709060  0.75441827  1
  O  O279  1  0.86725253  0.00373508  0.25445077  1
  O  O280  1  0.86465753  0.00345145  0.75730155  1
  O  O281  1  0.86785583  0.50633944  0.25364385  1
  O  O282  1  0.85588900  0.50367612  0.74649145  1
  O  O283  1  0.12310934  0.38323211  0.38314337  1
  O  O284  1  0.11253712  0.36310544  0.89922028  1
  O  O285  1  0.12541735  0.86486009  0.36864837  1
  O  O286  1  0.12146762  0.88325637  0.86379363  1
  O  O287  1  0.62489006  0.36534608  0.36599188  1
  O  O288  1  0.62583207  0.37623789  0.86166281  1
  O  O289  1  0.62493391  0.86629080  0.36424943  1
  O  O290  1  0.61699773  0.87187110  0.87069370  1
  O  O291  1  0.37046569  0.12241440  0.14010325  1
  O  O292  1  0.37590695  0.13283032  0.63372320  1
  O  O293  1  0.37718942  0.63008550  0.13000679  1
  O  O294  1  0.38878343  0.64563355  0.60718080  1
  O  O295  1  0.88210851  0.12919521  0.12565915  1
  O  O296  1  0.88536561  0.12343398  0.64155354  1
  O  O297  1  0.86559893  0.63578969  0.13318947  1
  O  O298  1  0.88624728  0.63453367  0.62589088  1
  O  O299  1  0.25737161  0.25507498  0.11332166  1
  O  O300  1  0.25972438  0.25294352  0.61046909  1
  O  O301  1  0.26182885  0.75486095  0.12226284  1
  O  O302  1  0.26108450  0.75970341  0.61439568  1
  O  O303  1  0.75798577  0.23986015  0.11208618  1
  O  O304  1  0.75401192  0.26421078  0.61779784  1
  O  O305  1  0.75935896  0.76063681  0.13187093  1
  O  O306  1  0.76118353  0.75938411  0.62395314  1
  O  O307  1  0.25713509  0.23821174  0.38594271  1
  O  O308  1  0.25718037  0.23797024  0.88846346  1
  O  O309  1  0.24514375  0.74842381  0.38115352  1
  O  O310  1  0.25600882  0.75188205  0.88247846  1
  O  O311  1  0.73619856  0.23977634  0.38318047  1
  O  O312  1  0.74463329  0.23951552  0.88707441  1
  O  O313  1  0.73901556  0.74990352  0.38134780  1
  O  O314  1  0.72837892  0.76688476  0.88021592  1
  O  O315  1  0.00788160  0.11368323  0.00959512  1
  O  O316  1  0.00758499  0.11773506  0.50844488  1
  O  O317  1  0.01013826  0.61973694  -0.00391261  1
  O  O318  1  0.00227823  0.61736365  0.50610348  1
  O  O319  1  0.50844498  0.12620794  -0.00083988  1
  O  O320  1  0.49885973  0.10738040  0.49936497  1
  O  O321  1  0.50768665  0.61800064  0.00759965  1
  O  O322  1  0.50616940  0.61357638  0.49391342  1
  O  O323  1  0.49088263  0.38205533  0.49427511  1
  O  O324  1  0.49268138  0.38434891  1.00207202  1
  O  O325  1  0.50651916  0.89677523  0.49447413  1
  O  O326  1  0.48843555  0.86947102  0.99119818  1
  O  O327  1  0.99059408  0.38415923  0.49937499  1
  O  O328  1  0.97834347  0.38410172  1.00857704  1
  O  O329  1  0.99081274  0.87695261  0.49602488  1
  O  O330  1  1.00067236  0.87551918  0.99381462  1
  O  O331  1  0.50302158  0.49527281  0.39195887  1
  O  O332  1  0.50607660  0.49460416  0.88875487  1
  O  O333  1  0.49015609  0.99997323  0.38292564  1
  O  O334  1  0.49018915  0.98742169  0.87301203  1
  O  O335  1  0.98549972  0.50271923  0.38347632  1
  O  O336  1  0.99929360  0.49624284  0.88722163  1
  O  O337  1  0.98135429  0.99816390  0.37701244  1
  O  O338  1  0.99073639  0.98428690  0.88368532  1
  O  O339  1  0.00827323  0.00138403  0.12010067  1
  O  O340  1  0.00922334  0.00918639  0.62538095  1
  O  O341  1  -0.01353217  0.50841649  0.10576076  1
  O  O342  1  0.00268608  0.50663457  0.61599989  1
  O  O343  1  0.51170679  -0.00685233  0.12751498  1
  O  O344  1  0.50277130  0.00303019  0.61006508  1
  O  O345  1  0.50763157  0.50511936  0.11779916  1
  O  O346  1  0.50468592  0.49288621  0.60363503  1
  O  O347  1  0.25462614  0.37545024  0.23236302  1
  O  O348  1  0.25362149  0.37301110  0.73520726  1
  O  O349  1  0.24476001  0.87844213  0.24237227  1
  O  O350  1  0.24071569  0.86759129  0.73989043  1
  O  O351  1  0.73540170  0.38493850  0.24953412  1
  O  O352  1  0.74501942  0.38744948  0.74283753  1
  O  O353  1  0.73831589  0.87837774  0.24132623  1
  O  O354  1  0.74641514  0.88149870  0.74477451  1
  O  O355  1  0.25756841  0.11587854  0.25744638  1
  O  O356  1  0.26235956  0.12478243  0.76185806  1
  O  O357  1  0.25881241  0.62480357  0.25985280  1
  O  O358  1  0.26833159  0.61208301  0.70684005  1
  O  O359  1  0.75469068  0.11796188  0.25508437  1
  O  O360  1  0.75482763  0.11686380  0.76453175  1
  O  O361  1  0.75901797  0.61824035  0.25348064  1
  O  O362  1  0.74738602  0.61001353  0.74337716  1
  O  O363  1  0.36631747  0.11344541  0.36733655  1
  O  O364  1  0.37217268  0.11645909  0.86824903  1
  O  O365  1  0.36669691  0.63446390  0.36456703  1
  O  O366  1  0.38075300  0.62308153  0.87082878  1
  O  O367  1  0.86207229  0.11550837  0.36931309  1
  O  O368  1  0.86672538  0.11419918  0.87254784  1
  O  O369  1  0.87252870  0.61812538  0.36633166  1
  O  O370  1  0.86462472  0.67198575  0.85946879  1
  O  O371  1  0.13792745  0.36778525  0.11772754  1
  O  O372  1  0.13310245  0.38137429  0.61848420  1
  O  O373  1  0.12947314  0.87789359  0.12872902  1
  O  O374  1  0.13373128  0.88132143  0.62955537  1
  O  O375  1  0.61991505  0.38813001  0.13139232  1
  O  O376  1  0.63215652  0.37813260  0.63557306  1
  O  O377  1  0.62997590  0.87732863  0.12869966  1
  O  O378  1  0.63647157  0.86728353  0.63846500  1
  O  O379  1  0.12249281  0.23478906  0.24709437  1
  O  O380  1  0.12832341  0.24125500  0.74145272  1
  O  O381  1  0.11816383  0.75101274  0.25552044  1
  O  O382  1  0.11620577  0.75804156  0.73986385  1
  O  O383  1  0.62200274  0.25616509  0.25416237  1
  O  O384  1  0.63617105  0.27028979  0.75497082  1
  O  O385  1  0.62404374  0.75432214  0.25654320  1
  O  O386  1  0.62463541  0.75847809  0.76160117  1
  O  O387  1  0.38481290  0.24018737  0.25144231  1
  O  O388  1  0.37083511  0.24124364  0.73826863  1
  O  O389  1  0.37661594  0.74278702  0.23947377  1
  O  O390  1  0.37969629  0.74978237  0.72959651  1
  O  O391  1  0.87050169  0.23944792  0.23884734  1
  O  O392  1  0.86136640  0.23612068  0.75114020  1
  O  O393  1  0.88028241  0.74412397  0.24530325  1
  O  O394  1  0.89375185  0.76503766  0.73113502  1
  O  O395  1  0.38310980  0.49310101  0.50486622  1
  O  O396  1  0.38431086  0.49389149  1.00076941  1
  O  O397  1  0.37609598  1.00218108  0.48757549  1
  O  O398  1  0.37082914  0.98410409  0.99330568  1
  O  O399  1  0.87911062  0.49556747  0.49205279  1
  O  O400  1  0.87292846  0.48795784  0.99796119  1
  O  O401  1  0.87079568  0.98496980  0.49096287  1
  O  O402  1  0.88063870  0.99089248  0.99726552  1
  O  O403  1  0.12519169  0.00422242  0.00979799  1
  O  O404  1  0.12395494  0.00828528  0.50703770  1
  O  O405  1  0.11583346  0.51490870  0.00335673  1
  O  O406  1  0.11457137  0.50902597  0.50808661  1
  O  O407  1  0.62818870  0.00961688  0.00961893  1
  O  O408  1  0.62452834  0.00115900  0.49629090  1
  O  O409  1  0.62082635  0.50486465  0.00824253  1
  O  O410  1  0.62117202  0.51000085  0.50011070  1
  O  O411  1  0.37060330  0.37127227  0.11291082  1
  O  O412  1  0.36858941  0.36556480  0.61450178  1
  O  O413  1  0.37183296  0.86749525  0.11738498  1
  O  O414  1  0.36458870  0.87474142  0.62888928  1
  O  O415  1  0.86811394  0.36157216  0.11812040  1
  O  O416  1  0.86596104  0.37593777  0.60886584  1
  O  O417  1  0.86634153  0.87002480  0.12160330  1
  O  O418  1  0.87206014  0.87237081  0.61670149  1
  O  O419  1  0.13964558  0.11478255  0.38236032  1
  O  O420  1  0.13653120  0.11794871  0.88470656  1
  O  O421  1  0.13682270  0.64084119  0.38308275  1
  O  O422  1  0.12364384  0.63238850  0.89079832  1
  O  O423  1  0.63650476  0.12974098  0.36737396  1
  O  O424  1  0.63173973  0.12226889  0.88482654  1
  O  O425  1  0.62730890  0.63317181  0.38290465  1
  O  O426  1  0.62108866  0.63979070  0.88328617  1
