# generated using pymatgen
data_V85Zn86O256
_symmetry_space_group_name_H-M   'P 1'
_cell_length_a   16.92745261
_cell_length_b   16.92926547
_cell_length_c   16.92683863
_cell_angle_alpha   90.02606071
_cell_angle_beta   90.07568528
_cell_angle_gamma   89.95913478
_symmetry_Int_Tables_number   1
_chemical_formula_structural   V85Zn86O256
_chemical_formula_sum   'V85 Zn86 O256'
_cell_volume   4850.70699041
_cell_formula_units_Z   1
loop_
 _symmetry_equiv_pos_site_id
 _symmetry_equiv_pos_as_xyz
  1  'x, y, z'
loop_
 _atom_site_type_symbol
 _atom_site_label
 _atom_site_symmetry_multiplicity
 _atom_site_fract_x
 _atom_site_fract_y
 _atom_site_fract_z
 _atom_site_occupancy
  V  V0  1  0.62220630  0.87429320  0.75111121  1
  V  V1  1  0.50288391  0.25025409  0.75745679  1
  V  V2  1  0.12498595  0.87695632  0.25109788  1
  V  V3  1  0.25371151  0.00204598  0.75071421  1
  V  V4  1  0.12380914  0.62461150  0.49926277  1
  V  V5  1  0.12817733  0.25171737  0.87635103  1
  V  V6  1  0.38283211  0.13092233  0.25990187  1
  V  V7  1  0.74768626  0.50039739  0.73980893  1
  V  V8  1  0.62522175  0.24813056  0.37355565  1
  V  V9  1  0.87870577  0.12967186  0.73868915  1
  V  V10  1  0.75065897  0.00041283  0.75433098  1
  V  V11  1  0.00765240  0.62070084  0.12484354  1
  V  V12  1  0.62447208  -0.00306577  0.62548324  1
  V  V13  1  0.11774256  0.87514427  0.75624170  1
  V  V14  1  0.37134123  0.49528463  0.87319405  1
  V  V15  1  0.11384689  0.37268210  0.25838722  1
  V  V16  1  0.62778091  0.36884128  0.24541701  1
  V  V17  1  0.49835567  0.49431205  -0.00396411  1
  V  V18  1  0.88567111  0.13300090  0.25137662  1
  V  V19  1  0.87285012  -0.00747467  0.37541942  1
  V  V20  1  0.24872887  0.75141883  0.49745318  1
  V  V21  1  0.50653756  0.49620456  0.50165904  1
  V  V22  1  0.75045114  0.13158896  0.37440078  1
  V  V23  1  0.00067571  -0.00493189  -0.00288873  1
  V  V24  1  0.76011359  0.35762363  0.11444378  1
  V  V25  1  0.86958950  0.74868230  0.11897280  1
  V  V26  1  0.49916970  0.86932240  0.36975723  1
  V  V27  1  0.25655668  0.00308884  0.25906061  1
  V  V28  1  0.37838472  0.63091431  0.24916359  1
  V  V29  1  -0.05512090  0.18138365  0.07808345  1
  V  V30  1  0.62687429  0.74923252  0.87988737  1
  V  V31  1  0.50329716  0.61929187  0.62673674  1
  V  V32  1  0.87135089  0.49574391  0.87812260  1
  V  V33  1  0.49762528  0.74899314  0.75128302  1
  V  V34  1  -0.00110763  0.49316260  0.49733334  1
  V  V35  1  0.37343263  0.36775594  0.00092214  1
  V  V36  1  0.00524823  0.49918393  -0.00008561  1
  V  V37  1  -0.00497356  0.63271862  0.62515068  1
  V  V38  1  0.50119529  0.12563707  0.12536101  1
  V  V39  1  0.63194624  0.25606695  0.88454100  1
  V  V40  1  0.37770924  0.75532953  0.11915369  1
  V  V41  1  0.75013721  0.62605690  0.88004459  1
  V  V42  1  0.87762188  0.87100597  -0.00718927  1
  V  V43  1  0.63037823  0.12707568  0.50023105  1
  V  V44  1  0.50006755  0.36889039  0.36618974  1
  V  V45  1  0.24408569  0.50049136  0.23995323  1
  V  V46  1  0.62137573  0.37844978  0.74920707  1
  V  V47  1  -0.00292522  0.00411117  0.50501061  1
  V  V48  1  0.37582340  0.49999625  0.37117448  1
  V  V49  1  0.37514746  -0.00146628  0.88761158  1
  V  V50  1  0.49275463  0.87367564  0.88365671  1
  V  V51  1  0.87014784  0.36069487  0.50082559  1
  V  V52  1  0.12112583  0.01182729  0.62663474  1
  V  V53  1  0.24894548  0.62513024  0.37260521  1
  V  V54  1  0.87176784  0.62243607  0.24978871  1
  V  V55  1  0.62184712  0.86906141  0.24517474  1
  V  V56  1  0.87391972  0.62776389  0.74716677  1
  V  V57  1  0.25350849  0.13067912  0.88016162  1
  V  V58  1  -0.00242318  0.75184706  0.25032579  1
  V  V59  1  0.62574219  0.62477383  -0.00022159  1
  V  V60  1  0.13487181  0.38000399  0.75155627  1
  V  V61  1  0.74688501  0.36008859  0.61946698  1
  V  V62  1  0.50162218  0.62915902  0.12864893  1
  V  V63  1  0.25023872  0.87879294  0.62460678  1
  V  V64  1  0.37671858  0.37513107  0.49868990  1
  V  V65  1  0.37793455  0.25008217  0.62660268  1
  V  V66  1  0.63157710  0.11582139  0.00442284  1
  V  V67  1  0.25416963  0.87870732  0.11901979  1
  V  V68  1  0.24193617  0.36786566  0.12215945  1
  V  V69  1  0.74636112  0.87503584  0.11794194  1
  V  V70  1  0.13090547  0.13088646  0.00762161  1
  V  V71  1  0.49846269  0.00020857  0.49456191  1
  V  V72  1  0.62863676  0.49686479  0.12493124  1
  V  V73  1  0.62417807  0.62564262  0.49973153  1
  V  V74  1  0.13120473  0.50241610  0.62924835  1
  V  V75  1  0.24856992  0.25122916  0.49690414  1
  V  V76  1  0.37361600  0.88065367  0.49243132  1
  V  V77  1  0.24513755  0.62609101  0.87485980  1
  V  V78  1  0.11967035  0.00599045  0.13021292  1
  V  V79  1  -0.00318319  0.37478416  0.87458233  1
  V  V80  1  0.36681849  0.61969960  0.74891969  1
  V  V81  1  0.87516280  0.49347827  0.37546597  1
  V  V82  1  0.75688026  0.74943187  0.50340273  1
  V  V83  1  0.37521463  0.75107044  0.62413662  1
  V  V84  1  0.74506656  -0.00205282  0.24703104  1
  Zn  Zn85  1  0.50241743  0.12564176  0.62695617  1
  Zn  Zn86  1  0.74669882  0.62262873  0.37425402  1
  Zn  Zn87  1  0.50039354  -0.00481947  0.00922752  1
  Zn  Zn88  1  0.25434801  0.38139162  0.62825756  1
  Zn  Zn89  1  0.75091461  0.49578110  0.24933864  1
  Zn  Zn90  1  0.25010284  0.75391581  -0.00211889  1
  Zn  Zn91  1  0.88252023  -0.00346780  0.87085657  1
  Zn  Zn92  1  0.75451776  0.12865423  0.87852450  1
  Zn  Zn93  1  0.11780841  0.75760254  0.88325298  1
  Zn  Zn94  1  0.10837858  0.24698086  0.37414081  1
  Zn  Zn95  1  0.25006533  0.12431865  0.37826079  1
  Zn  Zn96  1  0.37827694  0.25151054  0.12843492  1
  Zn  Zn97  1  0.12290155  0.75014924  0.37531038  1
  Zn  Zn98  1  -0.01256648  0.75912526  0.75269895  1
  Zn  Zn99  1  0.38034545  0.12436870  0.75257009  1
  Zn  Zn100  1  0.12184585  0.12948047  0.49977097  1
  Zn  Zn101  1  0.00520336  0.23984235  0.73431245  1
  Zn  Zn102  1  0.62222979  0.74574253  0.37029939  1
  Zn  Zn103  1  0.12855949  0.62674642  0.00526251  1
  Zn  Zn104  1  0.75660175  0.86581468  0.63049570  1
  Zn  Zn105  1  -0.00100218  0.87392538  0.37768595  1
  Zn  Zn106  1  0.88233245  0.86759624  0.51064476  1
  Zn  Zn107  1  0.18904607  0.19046148  0.19283671  1
  Zn  Zn108  1  0.19336740  0.19154780  0.68925983  1
  Zn  Zn109  1  0.18939168  0.69239714  0.18723307  1
  Zn  Zn110  1  0.18615607  0.69008027  0.68599604  1
  Zn  Zn111  1  0.68912273  0.18644472  0.18874176  1
  Zn  Zn112  1  0.68743010  0.18486066  0.69092165  1
  Zn  Zn113  1  0.68908553  0.68948384  0.18615274  1
  Zn  Zn114  1  0.68514489  0.68504082  0.68809912  1
  Zn  Zn115  1  0.30999483  0.31247551  0.31022712  1
  Zn  Zn116  1  0.31481040  0.31301524  0.81437541  1
  Zn  Zn117  1  0.31265093  0.81303924  0.30958221  1
  Zn  Zn118  1  0.30974283  0.81238999  0.81343479  1
  Zn  Zn119  1  0.93339092  0.31259898  0.31353496  1
  Zn  Zn120  1  0.81121724  0.31260351  0.80877846  1
  Zn  Zn121  1  0.80704448  0.80913102  0.31491775  1
  Zn  Zn122  1  0.80936773  0.81091451  0.81308690  1
  Zn  Zn123  1  0.18921428  0.43803474  0.43643639  1
  Zn  Zn124  1  0.18909584  0.44182546  0.93917154  1
  Zn  Zn125  1  0.18270469  0.94002673  0.43763071  1
  Zn  Zn126  1  0.18720930  0.94368191  0.93909177  1
  Zn  Zn127  1  0.68939482  0.43710622  0.43532342  1
  Zn  Zn128  1  0.68801697  0.43578600  0.93730498  1
  Zn  Zn129  1  0.68654592  0.93438569  0.43521444  1
  Zn  Zn130  1  0.68780603  0.93510858  0.93707339  1
  Zn  Zn131  1  0.31242335  0.06573931  0.06991184  1
  Zn  Zn132  1  0.31364511  0.06657727  0.56294738  1
  Zn  Zn133  1  0.31276215  0.56197439  0.06047456  1
  Zn  Zn134  1  0.31497668  0.56246680  0.55948862  1
  Zn  Zn135  1  0.80897603  0.05631291  0.06242721  1
  Zn  Zn136  1  0.80962311  0.05706424  0.56410063  1
  Zn  Zn137  1  0.81494592  0.55860000  0.06003323  1
  Zn  Zn138  1  0.81255520  0.56011374  0.56219282  1
  Zn  Zn139  1  0.43734463  0.43961705  0.18491281  1
  Zn  Zn140  1  0.43907971  0.43639744  0.68871790  1
  Zn  Zn141  1  0.43794920  0.94375917  0.18877861  1
  Zn  Zn142  1  0.43756003  0.93835462  0.68841271  1
  Zn  Zn143  1  0.93464574  0.43851475  0.18054003  1
  Zn  Zn144  1  0.95499777  0.40479294  0.66917180  1
  Zn  Zn145  1  0.93485023  0.93915431  0.18515278  1
  Zn  Zn146  1  0.93420748  0.93897401  0.68304971  1
  Zn  Zn147  1  0.06191067  0.06505863  0.32041345  1
  Zn  Zn148  1  0.06280950  0.06431967  0.81274615  1
  Zn  Zn149  1  0.06175789  0.55907322  0.31176300  1
  Zn  Zn150  1  0.05965559  0.56175245  0.80994560  1
  Zn  Zn151  1  0.56175223  0.05636981  0.31116721  1
  Zn  Zn152  1  0.56324368  0.06524484  0.81789869  1
  Zn  Zn153  1  0.56232816  0.55853213  0.31198780  1
  Zn  Zn154  1  0.55951589  0.55943482  0.81322050  1
  Zn  Zn155  1  0.43994721  0.18780133  0.43844291  1
  Zn  Zn156  1  0.44405531  0.18702977  0.93894677  1
  Zn  Zn157  1  0.43733927  0.68912287  0.43765145  1
  Zn  Zn158  1  0.43561591  0.68419578  0.93942380  1
  Zn  Zn159  1  0.93415033  0.18183631  0.44335584  1
  Zn  Zn160  1  0.93900502  0.18511933  0.91297402  1
  Zn  Zn161  1  0.93704994  0.68158698  0.43426414  1
  Zn  Zn162  1  0.94211392  0.68814218  0.93433359  1
  Zn  Zn163  1  0.06626798  0.31870278  0.05930941  1
  Zn  Zn164  1  0.06309711  0.31258050  0.56140059  1
  Zn  Zn165  1  0.06290673  0.81123697  0.06422547  1
  Zn  Zn166  1  0.06304514  0.81691851  0.56636757  1
  Zn  Zn167  1  0.55877455  0.30897048  0.06382421  1
  Zn  Zn168  1  0.56614581  0.31105815  0.56359281  1
  Zn  Zn169  1  0.56291815  0.81057214  0.06299001  1
  Zn  Zn170  1  0.56312018  0.81065616  0.56150356  1
  O  O171  1  0.13315039  0.11991146  0.11872481  1
  O  O172  1  0.13042698  0.11518470  0.62690802  1
  O  O173  1  0.11073770  0.62859882  0.13020932  1
  O  O174  1  0.11927880  0.61993435  0.61993484  1
  O  O175  1  0.62044238  0.13033811  0.11128749  1
  O  O176  1  0.62517126  0.11747220  0.61675112  1
  O  O177  1  0.61938659  0.62005214  0.12139828  1
  O  O178  1  0.60974556  0.62664182  0.61913624  1
  O  O179  1  0.38359464  0.37921160  0.37574235  1
  O  O180  1  0.36836680  0.38441257  0.88548651  1
  O  O181  1  0.37961297  0.87274234  0.38523615  1
  O  O182  1  0.38196791  0.88366676  0.87088426  1
  O  O183  1  0.87252065  0.38620152  0.38286161  1
  O  O184  1  0.88352638  0.38256176  0.86685358  1
  O  O185  1  0.87307566  0.88372543  0.37727533  1
  O  O186  1  0.86903853  0.87589111  0.88850593  1
  O  O187  1  0.24661274  -0.00040269  0.36241290  1
  O  O188  1  0.25666190  0.00917022  0.87012541  1
  O  O189  1  0.25742373  0.50551823  0.36536496  1
  O  O190  1  0.26330509  0.50919708  0.87914613  1
  O  O191  1  0.75525105  0.00392517  0.36898477  1
  O  O192  1  0.74706215  -0.00040549  0.86177832  1
  O  O193  1  0.75841654  0.50294325  0.37078116  1
  O  O194  1  0.75420943  0.50478749  0.86906476  1
  O  O195  1  0.25431049  0.49395278  0.13579009  1
  O  O196  1  0.23676084  0.50211646  0.61684446  1
  O  O197  1  0.24118335  0.99584464  0.13531751  1
  O  O198  1  0.24656268  0.99842125  0.63349795  1
  O  O199  1  0.73616715  0.49994375  0.12330572  1
  O  O200  1  0.74479635  0.50281266  0.63804887  1
  O  O201  1  0.75352232  0.98747569  0.13517157  1
  O  O202  1  0.73651420  0.99548159  0.63444365  1
  O  O203  1  0.00975343  0.37970158  0.24787393  1
  O  O204  1  0.01746092  0.38712719  0.76734092  1
  O  O205  1  0.00595195  0.86790121  0.24886547  1
  O  O206  1  0.01459840  0.87828521  0.74734714  1
  O  O207  1  0.50992006  0.38174738  0.25695876  1
  O  O208  1  0.51400317  0.36856298  0.74490327  1
  O  O209  1  0.50822837  0.88298868  0.25794449  1
  O  O210  1  0.50365697  0.86892213  0.75919010  1
  O  O211  1  0.48912588  0.11888077  0.24631838  1
  O  O212  1  0.50076938  0.13467582  0.74799982  1
  O  O213  1  0.49071196  0.61824773  0.24104727  1
  O  O214  1  0.49190758  0.62776829  0.74313981  1
  O  O215  1  0.98447309  0.11768203  0.25210080  1
  O  O216  1  0.98657244  0.12397753  0.75056407  1
  O  O217  1  0.99020038  0.62956633  0.24433490  1
  O  O218  1  0.98852364  0.62027491  0.74013440  1
  O  O219  1  0.38096276  0.26488596  -0.00178994  1
  O  O220  1  0.37332064  0.25600753  0.50801245  1
  O  O221  1  0.37311487  0.74670524  0.01496076  1
  O  O222  1  0.36949320  0.75841517  0.50544082  1
  O  O223  1  0.89152262  0.23044966  0.01008360  1
  O  O224  1  0.87031109  0.26151609  0.49945897  1
  O  O225  1  0.88178540  0.75641370  0.00931701  1
  O  O226  1  0.86034279  0.74574090  0.49497841  1
  O  O227  1  0.13499474  0.25214334  0.50062947  1
  O  O228  1  0.12234198  0.24237835  0.98805751  1
  O  O229  1  0.13099433  0.74487733  0.49925639  1
  O  O230  1  0.12993460  0.74613996  1.00051045  1
  O  O231  1  0.62002532  0.23937082  0.48771467  1
  O  O232  1  0.61799318  0.24428182  0.98671446  1
  O  O233  1  0.62692042  0.73683526  0.49727802  1
  O  O234  1  0.61870213  0.74132432  0.98752148  1
  O  O235  1  0.49692094  0.23420526  0.12404517  1
  O  O236  1  0.49546460  0.24985086  0.63484656  1
  O  O237  1  0.49471372  0.73760768  0.12279927  1
  O  O238  1  0.49329959  0.74222149  0.62942512  1
  O  O239  1  1.00307716  0.24718264  0.12524112  1
  O  O240  1  0.98722654  0.29540879  0.63912424  1
  O  O241  1  0.99052917  0.74417931  0.13555160  1
  O  O242  1  1.00635078  0.73622639  0.63093173  1
  O  O243  1  -0.00442211  0.24939269  0.38043802  1
  O  O244  1  0.01095155  0.25925403  0.86606360  1
  O  O245  1  -0.00095308  0.75023435  0.36196394  1
  O  O246  1  0.00770169  0.74091845  0.86295923  1
  O  O247  1  0.50607021  0.26269154  0.37847710  1
  O  O248  1  0.51091633  0.24849567  0.86387762  1
  O  O249  1  0.50012026  0.76456022  0.37872216  1
  O  O250  1  0.50180698  0.75481019  0.87111844  1
  O  O251  1  0.24956263  0.13588393  0.49893363  1
  O  O252  1  0.24118331  0.12056444  0.99338927  1
  O  O253  1  0.24597703  0.63048230  0.49258326  1
  O  O254  1  0.24882354  0.62673879  0.99066699  1
  O  O255  1  0.73693069  0.11380375  0.49109784  1
  O  O256  1  0.73656282  0.12029099  0.99921529  1
  O  O257  1  0.73982126  0.62995505  0.50068532  1
  O  O258  1  0.74283841  0.61813117  0.98767003  1
  O  O259  1  0.25567792  0.38420462  0.01599925  1
  O  O260  1  0.26045557  0.37134908  0.50157855  1
  O  O261  1  0.24625492  0.87962077  0.01556296  1
  O  O262  1  0.25654822  0.87370865  0.50262831  1
  O  O263  1  0.74364998  0.37728910  0.01585608  1
  O  O264  1  0.75102826  0.37821435  0.51233043  1
  O  O265  1  0.75752863  0.87955118  0.01074007  1
  O  O266  1  0.74538447  0.85732659  0.50029552  1
  O  O267  1  0.13354386  0.48851200  0.25310646  1
  O  O268  1  0.12639341  0.49558582  0.74030619  1
  O  O269  1  0.12890895  0.99630315  0.24566516  1
  O  O270  1  0.13234360  0.99482894  0.74591072  1
  O  O271  1  0.62568580  0.49226078  0.24044559  1
  O  O272  1  0.63240096  0.48833053  0.75998539  1
  O  O273  1  0.63783087  0.98814429  0.25515164  1
  O  O274  1  0.62759033  0.99656861  0.74415830  1
  O  O275  1  0.36558787  0.01412873  0.24683898  1
  O  O276  1  0.36757646  0.00287368  0.75695464  1
  O  O277  1  0.36810307  0.51035215  0.25260746  1
  O  O278  1  0.38090225  0.50783022  0.75901046  1
  O  O279  1  0.86535974  0.00254510  0.25670852  1
  O  O280  1  0.86600954  0.00483407  0.75106001  1
  O  O281  1  0.87487033  0.50613485  0.25604458  1
  O  O282  1  0.86289119  0.51088497  0.76186438  1
  O  O283  1  0.12730301  0.37530132  0.36108567  1
  O  O284  1  0.12600010  0.36846940  0.87226501  1
  O  O285  1  0.12327790  0.87335232  0.36167028  1
  O  O286  1  0.13340000  0.87924136  0.85978017  1
  O  O287  1  0.62161506  0.36733623  0.36749290  1
  O  O288  1  0.62762364  0.36324959  0.86737972  1
  O  O289  1  0.61641560  0.87151485  0.36605340  1
  O  O290  1  0.61767430  0.86601209  0.87125469  1
  O  O291  1  0.38172803  0.12999702  0.13465099  1
  O  O292  1  0.37922158  0.13883093  0.62804288  1
  O  O293  1  0.38251590  0.62964744  0.13052647  1
  O  O294  1  0.38247091  0.62807236  0.63077226  1
  O  O295  1  0.87688330  0.12125423  0.13534787  1
  O  O296  1  0.86863207  0.11986046  0.63926393  1
  O  O297  1  0.88036507  0.63090505  0.12985539  1
  O  O298  1  0.88387407  0.61758602  0.63318603  1
  O  O299  1  0.25359178  0.26553655  0.12704769  1
  O  O300  1  0.26043592  0.25430892  0.61693639  1
  O  O301  1  0.25885758  0.76097385  0.12547710  1
  O  O302  1  0.25595720  0.75732059  0.61773741  1
  O  O303  1  0.74643128  0.25849377  0.12290786  1
  O  O304  1  0.74782845  0.26171297  0.62746930  1
  O  O305  1  0.76241883  0.75678011  0.12681720  1
  O  O306  1  0.74058429  0.74668084  0.60841770  1
  O  O307  1  0.25298420  0.25269164  0.39001482  1
  O  O308  1  0.24590877  0.23753395  0.87129823  1
  O  O309  1  0.24880059  0.74357524  0.37929287  1
  O  O310  1  0.24786913  0.74177950  0.87806101  1
  O  O311  1  0.74112723  0.23254803  0.37452149  1
  O  O312  1  0.73542936  0.24879200  0.87132104  1
  O  O313  1  0.74410773  0.74293603  0.38703868  1
  O  O314  1  0.73774276  0.73927768  0.87169962  1
  O  O315  1  0.00598043  0.12149646  0.00945619  1
  O  O316  1  0.00096083  0.10913774  0.50206038  1
  O  O317  1  0.00071608  0.61851990  0.00974996  1
  O  O318  1  0.00388319  0.61890428  0.50753222  1
  O  O319  1  0.51043102  0.12112304  0.00669567  1
  O  O320  1  0.51046741  0.11609501  0.50046416  1
  O  O321  1  0.50392825  0.61534075  0.00808540  1
  O  O322  1  0.50328585  0.61827493  0.50620703  1
  O  O323  1  0.49827972  0.38138198  0.49356056  1
  O  O324  1  0.49085788  0.38757692  1.00794701  1
  O  O325  1  0.49252064  0.88033657  0.49513596  1
  O  O326  1  0.50357388  0.87632533  0.98798878  1
  O  O327  1  0.98810323  0.38852783  0.50289305  1
  O  O328  1  1.00626181  0.38332894  0.98515513  1
  O  O329  1  1.00048000  0.88425624  0.49695642  1
  O  O330  1  0.99128837  0.88335102  1.00759254  1
  O  O331  1  0.49525885  0.48949238  0.38120447  1
  O  O332  1  0.48659613  0.50684077  0.88604040  1
  O  O333  1  0.50468912  0.98871965  0.38858117  1
  O  O334  1  0.49061570  0.99141778  0.87495998  1
  O  O335  1  0.99065738  0.50769137  0.38641401  1
  O  O336  1  0.99066044  0.49728062  0.88032019  1
  O  O337  1  0.98947822  0.99630239  0.38256976  1
  O  O338  1  1.00415482  1.00431599  0.89277832  1
  O  O339  1  0.01393394  -0.00305651  0.11937426  1
  O  O340  1  0.01120770  -0.00324528  0.61895493  1
  O  O341  1  -0.00638997  0.50912417  0.11359112  1
  O  O342  1  0.01141128  0.50497782  0.61621969  1
  O  O343  1  0.49738929  0.01577055  0.12336872  1
  O  O344  1  0.50994771  0.00000515  0.61752781  1
  O  O345  1  0.50915711  0.50924930  0.11866912  1
  O  O346  1  0.49375848  0.50743513  0.61412124  1
  O  O347  1  0.24552853  0.38285212  0.24004119  1
  O  O348  1  0.23977917  0.37358283  0.75054430  1
  O  O349  1  0.24393788  0.88305296  0.24360418  1
  O  O350  1  0.24693486  0.88796565  0.74557803  1
  O  O351  1  0.73270840  0.37807155  0.23306085  1
  O  O352  1  0.74363692  0.38071819  0.73921541  1
  O  O353  1  0.74435220  0.87875499  0.24195174  1
  O  O354  1  0.73932812  0.88027334  0.75064073  1
  O  O355  1  0.26093350  0.11924798  0.25242380  1
  O  O356  1  0.25208898  0.11574366  0.75900915  1
  O  O357  1  0.25447587  0.61844574  0.25219367  1
  O  O358  1  0.26218195  0.63009251  0.75277941  1
  O  O359  1  0.75530107  0.11479675  0.25556949  1
  O  O360  1  0.75619653  0.11608246  0.75208736  1
  O  O361  1  0.76193700  0.62285532  0.24794399  1
  O  O362  1  0.75033201  0.61819206  0.75867397  1
  O  O363  1  0.37567089  0.12635797  0.36399208  1
  O  O364  1  0.36928729  0.11945208  0.87573431  1
  O  O365  1  0.37198361  0.62158270  0.36698484  1
  O  O366  1  0.36684400  0.62046643  0.86698867  1
  O  O367  1  0.86690165  0.11316564  0.36733217  1
  O  O368  1  0.86968242  0.11409686  0.86280067  1
  O  O369  1  0.87244940  0.61486940  0.36507097  1
  O  O370  1  0.86494592  0.61882857  0.87081469  1
  O  O371  1  0.13719190  0.37570743  0.13315100  1
  O  O372  1  0.13060522  0.38575867  0.63441673  1
  O  O373  1  0.13207773  0.88245390  0.13588195  1
  O  O374  1  0.13384529  0.88600248  0.63501056  1
  O  O375  1  0.62188851  0.38102284  0.12928741  1
  O  O376  1  0.63672028  0.37372856  0.63239687  1
  O  O377  1  0.63423637  0.86954861  0.12976391  1
  O  O378  1  0.62352197  0.88082745  0.63285304  1
  O  O379  1  0.13047350  0.26845329  0.25382578  1
  O  O380  1  0.12529285  0.25685025  0.75913831  1
  O  O381  1  0.11623589  0.75952635  0.24921854  1
  O  O382  1  0.13092302  0.77067957  0.74746663  1
  O  O383  1  0.62608018  0.25443162  0.26288367  1
  O  O384  1  0.62045784  0.25559545  0.75857979  1
  O  O385  1  0.62865878  0.76319108  0.25111551  1
  O  O386  1  0.61675656  0.75166879  0.75997090  1
  O  O387  1  0.37184005  0.23501954  0.25018721  1
  O  O388  1  0.38471231  0.25140605  0.74482363  1
  O  O389  1  0.36991381  0.73658914  0.24084962  1
  O  O390  1  0.37946226  0.74281434  0.74395429  1
  O  O391  1  0.87225965  0.23189132  0.25320579  1
  O  O392  1  0.87466761  0.23276203  0.75530476  1
  O  O393  1  0.87977422  0.74346061  0.24466871  1
  O  O394  1  0.86954008  0.73354849  0.75316963  1
  O  O395  1  0.38542157  0.49545996  0.49190692  1
  O  O396  1  0.38118981  0.49317606  0.99465157  1
  O  O397  1  0.38508195  0.99218636  0.50716209  1
  O  O398  1  0.37480624  1.00311513  0.99040261  1
  O  O399  1  0.88036721  0.49789059  0.49187468  1
  O  O400  1  0.88410136  0.50418439  0.98527968  1
  O  O401  1  0.87915035  0.99678292  0.49283334  1
  O  O402  1  0.88447965  0.99121234  1.00127395  1
  O  O403  1  0.12021771  0.01020055  0.00900291  1
  O  O404  1  0.11826859  0.00125841  0.51070879  1
  O  O405  1  0.11052039  0.50736796  -0.00632342  1
  O  O406  1  0.11736073  0.50474377  0.50289629  1
  O  O407  1  0.62140122  0.01305763  -0.00660465  1
  O  O408  1  0.61930908  0.00245295  0.50742933  1
  O  O409  1  0.61591869  0.50423453  0.00352182  1
  O  O410  1  0.61353043  0.50880129  0.49452241  1
  O  O411  1  0.36566086  0.37423804  0.12006300  1
  O  O412  1  0.37546011  0.36643048  0.62021162  1
  O  O413  1  0.36791782  0.86697842  0.13462890  1
  O  O414  1  0.37012679  0.87190917  0.61601963  1
  O  O415  1  0.85893562  0.37443135  0.12753872  1
  O  O416  1  0.85352388  0.38867661  0.61370401  1
  O  O417  1  0.86829261  0.86681360  0.11755029  1
  O  O418  1  0.86950849  0.87204425  0.62341096  1
  O  O419  1  0.13136479  0.13037139  0.37963225  1
  O  O420  1  0.13231490  0.13192466  0.88262504  1
  O  O421  1  0.13062691  0.62645789  0.38039903  1
  O  O422  1  0.14011207  0.62203712  0.86806402  1
  O  O423  1  0.62766138  0.12874072  0.37877998  1
  O  O424  1  0.62722930  0.13538775  0.88705139  1
  O  O425  1  0.62258196  0.62539100  0.38378949  1
  O  O426  1  0.62906784  0.63015772  0.87823149  1
