# generated using pymatgen
data_V85Zn86O256
_symmetry_space_group_name_H-M   'P 1'
_cell_length_a   16.95528175
_cell_length_b   16.95145587
_cell_length_c   16.96146361
_cell_angle_alpha   89.91039302
_cell_angle_beta   89.98328581
_cell_angle_gamma   89.91034620
_symmetry_Int_Tables_number   1
_chemical_formula_structural   V85Zn86O256
_chemical_formula_sum   'V85 Zn86 O256'
_cell_volume   4874.99593942
_cell_formula_units_Z   1
loop_
 _symmetry_equiv_pos_site_id
 _symmetry_equiv_pos_as_xyz
  1  'x, y, z'
loop_
 _atom_site_type_symbol
 _atom_site_label
 _atom_site_symmetry_multiplicity
 _atom_site_fract_x
 _atom_site_fract_y
 _atom_site_fract_z
 _atom_site_occupancy
  V  V0  1  0.00643863  0.12377922  0.62327904  1
  V  V1  1  0.74373244  0.12890839  0.86970896  1
  V  V2  1  0.69502196  -0.05924123  0.79418876  1
  V  V3  1  0.12593210  -0.00582506  0.63272852  1
  V  V4  1  0.87438777  -0.00161323  0.87179023  1
  V  V5  1  0.49810133  0.25274424  0.25980091  1
  V  V6  1  0.12103390  0.12647902  0.00992899  1
  V  V7  1  -0.00212418  0.50199312  -0.00679370  1
  V  V8  1  0.12570175  0.50307067  0.62285174  1
  V  V9  1  0.74878992  -0.00058966  0.25057733  1
  V  V10  1  0.62065487  0.36268636  0.74832910  1
  V  V11  1  0.87653289  0.00091890  0.37669481  1
  V  V12  1  0.87481350  0.37926466  -0.00080277  1
  V  V13  1  0.74860136  0.37601845  0.62500316  1
  V  V14  1  0.37963711  0.36912966  0.49516395  1
  V  V15  1  0.38065731  0.74966707  0.62051022  1
  V  V16  1  0.38723147  0.87432203  -0.00022901  1
  V  V17  1  0.38041712  0.62266877  0.25055084  1
  V  V18  1  0.12751729  0.62733101  -0.00095791  1
  V  V19  1  0.69448922  0.42082221  0.07737627  1
  V  V20  1  0.62085517  0.63202423  0.48543604  1
  V  V21  1  0.62224286  0.13159494  -0.00109944  1
  V  V22  1  0.75317085  0.49864519  0.75820845  1
  V  V23  1  0.25290210  0.50332417  0.75039015  1
  V  V24  1  0.12631491  0.37646131  0.75097386  1
  V  V25  1  0.49553083  -0.00320068  0.49609514  1
  V  V26  1  0.86618901  0.51250229  0.37240234  1
  V  V27  1  0.25173863  0.75452437  -0.00012022  1
  V  V28  1  0.62252091  0.51106809  0.62672906  1
  V  V29  1  0.50185947  0.49937963  0.49479703  1
  V  V30  1  0.25274861  0.37736250  0.12493946  1
  V  V31  1  0.75146812  0.86783367  0.62539789  1
  V  V32  1  0.50043698  0.13036903  0.63047512  1
  V  V33  1  0.87699713  0.24859291  0.62281148  1
  V  V34  1  0.37646075  0.12792020  0.75320297  1
  V  V35  1  0.00572587  0.87807216  0.87213371  1
  V  V36  1  0.74786203  0.24853076  0.00026686  1
  V  V37  1  0.24860971  0.49876052  0.26212972  1
  V  V38  1  0.87319453  0.25038539  0.12317719  1
  V  V39  1  0.37612640  0.74555757  0.12688457  1
  V  V40  1  0.24910014  0.64185315  0.37867727  1
  V  V41  1  0.62876555  -0.00784859  0.62500527  1
  V  V42  1  0.62508135  0.37621471  0.26170260  1
  V  V43  1  0.87850643  0.12584269  0.24584706  1
  V  V44  1  -0.00219099  0.00414740  0.00894003  1
  V  V45  1  0.73503739  0.74591367  -0.00262700  1
  V  V46  1  0.50124826  0.35910597  0.86734540  1
  V  V47  1  0.24836427  0.86751661  0.62443462  1
  V  V48  1  0.38140308  0.62870673  0.74280929  1
  V  V49  1  0.74405950  0.50395781  0.25116905  1
  V  V50  1  0.00067831  0.24995003  0.74926590  1
  V  V51  1  0.75277484  0.24746757  0.49777967  1
  V  V52  1  0.12943669  0.63628865  0.49671948  1
  V  V53  1  0.25181133  0.24920428  -0.00078556  1
  V  V54  1  -0.00040346  0.25131592  0.24213241  1
  V  V55  1  0.12103129  0.37713783  0.24662676  1
  V  V56  1  -0.00323686  0.75417073  0.74532563  1
  V  V57  1  0.62596909  0.12269182  0.49982439  1
  V  V58  1  0.38626341  0.50276080  0.87434814  1
  V  V59  1  -0.00968349  0.62895280  0.62347723  1
  V  V60  1  0.87302484  0.37699514  0.49763601  1
  V  V61  1  0.49582063  0.12515724  0.12861401  1
  V  V62  1  0.50783701  0.60999093  0.09643494  1
  V  V63  1  0.12830535  0.50428228  0.12153155  1
  V  V64  1  0.25144745  -0.00649853  0.75342476  1
  V  V65  1  -0.00132197  0.50354890  0.49737839  1
  V  V66  1  0.62792581  0.00122598  0.13035432  1
  V  V67  1  0.87575943  0.87045093  0.50438634  1
  V  V68  1  -0.00368122  0.37691063  0.87343886  1
  V  V69  1  -0.00613948  0.38106728  0.36744948  1
  V  V70  1  0.87602925  0.62116956  0.76074417  1
  V  V71  1  0.00739152  0.00354655  0.49717080  1
  V  V72  1  0.00936233  0.86420424  0.37692797  1
  V  V73  1  0.75378087  0.86290239  0.13324657  1
  V  V74  1  0.51238357  0.86888800  0.36991753  1
  V  V75  1  0.51326298  0.75932366  0.75036666  1
  V  V76  1  0.37028177  0.87370604  0.49261576  1
  V  V77  1  0.87856555  0.86339937  0.00562080  1
  V  V78  1  0.12472135  0.24758590  0.87466702  1
  V  V79  1  0.36954468  0.11898145  0.26692120  1
  V  V80  1  0.00197108  0.74723743  0.23983528  1
  V  V81  1  0.75163782  0.74453343  0.48637313  1
  V  V82  1  0.12740023  0.75380877  0.86730323  1
  V  V83  1  0.38094219  0.37847315  -0.00084189  1
  V  V84  1  0.87264412  0.12324644  0.75037362  1
  Zn  Zn85  1  0.24038367  0.24430529  0.50505044  1
  Zn  Zn86  1  0.37447531  0.24986965  0.12909773  1
  Zn  Zn87  1  0.24576189  -0.00222863  0.25643044  1
  Zn  Zn88  1  0.12294494  0.24768627  0.37998989  1
  Zn  Zn89  1  0.75141533  0.12600017  0.37394524  1
  Zn  Zn90  1  0.25068065  0.11782272  0.87752503  1
  Zn  Zn91  1  0.25097930  0.88039921  0.12915047  1
  Zn  Zn92  1  0.37774801  0.49558999  0.37704867  1
  Zn  Zn93  1  -0.00634565  0.63186290  0.11906668  1
  Zn  Zn94  1  0.51377767  0.74465673  0.25764197  1
  Zn  Zn95  1  0.51812178  0.87300490  0.87643740  1
  Zn  Zn96  1  0.37312331  0.25121592  0.62929160  1
  Zn  Zn97  1  0.12624434  -0.00096287  0.12879560  1
  Zn  Zn98  1  0.62152514  0.25135711  0.38133567  1
  Zn  Zn99  1  0.85968275  0.63953283  0.24251753  1
  Zn  Zn100  1  0.13072033  0.87374049  0.24915150  1
  Zn  Zn101  1  0.50206906  -0.00288827  0.00162844  1
  Zn  Zn102  1  0.25474173  0.62830539  0.87371518  1
  Zn  Zn103  1  0.25816774  0.37551022  0.62642346  1
  Zn  Zn104  1  0.73862551  0.63224419  0.87576253  1
  Zn  Zn105  1  0.38047968  -0.00409788  0.87669833  1
  Zn  Zn106  1  0.22083980  0.11606698  0.40175092  1
  Zn  Zn107  1  0.18887238  0.18937117  0.18816666  1
  Zn  Zn108  1  0.19322291  0.18366814  0.68219790  1
  Zn  Zn109  1  0.18588286  0.69272075  0.19028655  1
  Zn  Zn110  1  0.18852591  0.68683079  0.68642561  1
  Zn  Zn111  1  0.68705193  0.19100257  0.18849494  1
  Zn  Zn112  1  0.68827502  0.18406962  0.68326979  1
  Zn  Zn113  1  0.67591588  0.68173504  0.17882623  1
  Zn  Zn114  1  0.69331118  0.68755320  0.68397104  1
  Zn  Zn115  1  0.30859602  0.30377283  0.32085510  1
  Zn  Zn116  1  0.31214741  0.31204786  0.81201812  1
  Zn  Zn117  1  0.31937762  0.81592798  0.30980379  1
  Zn  Zn118  1  0.31839922  0.81417447  0.81212871  1
  Zn  Zn119  1  0.80866566  0.31787351  0.31107451  1
  Zn  Zn120  1  0.81013747  0.31346423  0.81460622  1
  Zn  Zn121  1  0.81860477  0.81474466  0.31407071  1
  Zn  Zn122  1  0.82040015  0.80431432  0.81903646  1
  Zn  Zn123  1  0.17844232  0.41442678  0.44745361  1
  Zn  Zn124  1  0.19126734  0.43755153  0.93377866  1
  Zn  Zn125  1  0.19103650  0.94052103  0.43802472  1
  Zn  Zn126  1  0.18773645  0.93710733  0.94239096  1
  Zn  Zn127  1  0.68705912  0.44058812  0.43793694  1
  Zn  Zn128  1  0.64918135  0.48164693  0.91056712  1
  Zn  Zn129  1  0.68873814  0.93611907  0.43718135  1
  Zn  Zn130  1  0.69027198  0.93895859  0.96020901  1
  Zn  Zn131  1  0.31197757  0.05966212  0.06617326  1
  Zn  Zn132  1  0.31341934  0.06080927  0.56324943  1
  Zn  Zn133  1  0.31480680  0.56193439  0.06148263  1
  Zn  Zn134  1  0.31450419  0.56198104  0.56059807  1
  Zn  Zn135  1  0.81538716  0.06460642  0.06310311  1
  Zn  Zn136  1  0.81437759  0.05777804  0.56498675  1
  Zn  Zn137  1  0.81620328  0.56719520  0.06254798  1
  Zn  Zn138  1  0.80920421  0.56519712  0.56389474  1
  Zn  Zn139  1  0.43835341  0.43678427  0.19050426  1
  Zn  Zn140  1  0.44186563  0.43788574  0.68367962  1
  Zn  Zn141  1  0.43547506  0.93834121  0.18746747  1
  Zn  Zn142  1  0.43763227  0.93741878  0.68555100  1
  Zn  Zn143  1  0.92737986  0.45733801  0.17492637  1
  Zn  Zn144  1  0.93723568  0.43938145  0.68536299  1
  Zn  Zn145  1  0.93796700  0.93436951  0.19064635  1
  Zn  Zn146  1  0.93463251  0.93664796  0.68792246  1
  Zn  Zn147  1  0.06599317  0.06318500  0.31195074  1
  Zn  Zn148  1  0.06487703  0.06353504  0.81382167  1
  Zn  Zn149  1  0.06472011  0.56670533  0.31340513  1
  Zn  Zn150  1  0.06443162  0.56615238  0.81313199  1
  Zn  Zn151  1  0.56026408  0.06136988  0.31583419  1
  Zn  Zn152  1  0.55592059  0.06372948  0.81807993  1
  Zn  Zn153  1  0.56328634  0.55873160  0.31178683  1
  Zn  Zn154  1  0.55866388  0.57060306  0.80453429  1
  Zn  Zn155  1  0.43772321  0.18676049  0.44095076  1
  Zn  Zn156  1  0.43427151  0.18503232  0.93778466  1
  Zn  Zn157  1  0.43852207  0.68845906  0.43733505  1
  Zn  Zn158  1  0.44240280  0.69152520  0.93125694  1
  Zn  Zn159  1  0.94790000  0.18547021  0.43021494  1
  Zn  Zn160  1  0.93588151  0.18674412  0.93673180  1
  Zn  Zn161  1  0.93420081  0.68806134  0.43565065  1
  Zn  Zn162  1  0.93900197  0.68756785  0.93370544  1
  Zn  Zn163  1  0.06169957  0.31468391  0.06325347  1
  Zn  Zn164  1  0.06110164  0.31757678  0.56322331  1
  Zn  Zn165  1  0.06510161  0.81551145  0.06230681  1
  Zn  Zn166  1  0.06509018  0.81421007  0.56417454  1
  Zn  Zn167  1  0.55414043  0.30836273  0.06253401  1
  Zn  Zn168  1  0.56166047  0.31457822  0.56324211  1
  Zn  Zn169  1  0.56883057  0.80363769  0.09281563  1
  Zn  Zn170  1  0.56168639  0.81070987  0.56261399  1
  O  O171  1  0.12384063  0.12852867  0.11239702  1
  O  O172  1  0.11092458  0.11677114  0.63172415  1
  O  O173  1  0.12393896  0.62465317  0.11186885  1
  O  O174  1  0.11920451  0.61685017  0.61996650  1
  O  O175  1  0.61750514  0.12103683  0.12137759  1
  O  O176  1  0.62255171  0.11474494  0.61666692  1
  O  O177  1  0.60652013  0.61601228  0.11274773  1
  O  O178  1  0.63266917  0.61263893  0.61685290  1
  O  O179  1  0.37471651  0.37575887  0.38990428  1
  O  O180  1  0.38379795  0.37937403  0.87680449  1
  O  O181  1  0.38313127  0.86940452  0.39016149  1
  O  O182  1  0.37869393  0.87237566  0.89122975  1
  O  O183  1  0.87703311  0.38321510  0.38082830  1
  O  O184  1  0.88304331  0.36672704  0.88818133  1
  O  O185  1  0.88314116  0.88117042  0.38809767  1
  O  O186  1  0.88409927  0.88151156  0.88306988  1
  O  O187  1  0.24309243  0.00996476  0.37080868  1
  O  O188  1  0.25107788  -0.00288638  0.86676914  1
  O  O189  1  0.24696307  0.49627886  0.36510807  1
  O  O190  1  0.25769314  0.50119168  0.86099719  1
  O  O191  1  0.75770675  0.00021334  0.36771694  1
  O  O192  1  0.75440700  0.00170940  0.87008507  1
  O  O193  1  0.75455093  0.49849475  0.36545589  1
  O  O194  1  0.75702890  0.48896125  0.85796507  1
  O  O195  1  0.24602655  0.49565417  0.13353970  1
  O  O196  1  0.24268685  0.50217695  0.63515332  1
  O  O197  1  0.24609262  0.99953335  0.13268127  1
  O  O198  1  0.24177609  0.98992046  0.63261885  1
  O  O199  1  0.75096545  0.48978565  0.12961970  1
  O  O200  1  0.74098541  0.49399613  0.62839651  1
  O  O201  1  0.74765967  0.99960365  0.13356207  1
  O  O202  1  0.74221969  0.98582676  0.62196036  1
  O  O203  1  0.00377503  0.37505169  0.24561308  1
  O  O204  1  0.00449882  0.37138254  0.75407868  1
  O  O205  1  -0.00262291  0.86681989  0.26447758  1
  O  O206  1  -0.00633355  0.86580383  0.75872584  1
  O  O207  1  0.51308471  0.36650649  0.24403276  1
  O  O208  1  0.50539899  0.37333469  0.75774748  1
  O  O209  1  0.49189106  0.87922099  0.26936574  1
  O  O210  1  0.50029024  0.86375685  0.75059539  1
  O  O211  1  0.49283857  0.13082192  0.24659665  1
  O  O212  1  0.49096053  0.11854041  0.74224138  1
  O  O213  1  0.48693649  0.62436167  0.25579745  1
  O  O214  1  0.48762751  0.63579409  0.74651567  1
  O  O215  1  0.98568972  0.13722601  0.25140756  1
  O  O216  1  0.99327549  0.13057324  0.74473519  1
  O  O217  1  1.00437065  0.64081447  0.25009062  1
  O  O218  1  0.99446743  0.62905018  0.74306869  1
  O  O219  1  0.36596633  0.25730075  0.00112142  1
  O  O220  1  0.37975813  0.26202016  0.50469339  1
  O  O221  1  0.36707935  0.75262838  0.00282548  1
  O  O222  1  0.38142280  0.75717324  0.51203857  1
  O  O223  1  0.86979089  0.25400096  0.00576509  1
  O  O224  1  0.87105119  0.25318727  0.50390511  1
  O  O225  1  0.87926441  0.76157256  -0.00164955  1
  O  O226  1  0.86196940  0.75468257  0.49780402  1
  O  O227  1  0.13717302  0.30249019  0.48470357  1
  O  O228  1  0.12919047  0.24624963  0.99465136  1
  O  O229  1  0.12435617  0.73503639  0.50590323  1
  O  O230  1  0.13040728  0.74516653  0.99043908  1
  O  O231  1  0.63377648  0.24170404  0.50234643  1
  O  O232  1  0.63236196  0.23996527  1.00456934  1
  O  O233  1  0.63333228  0.73767859  0.50417684  1
  O  O234  1  0.63735864  0.75461648  1.00532784  1
  O  O235  1  0.49901145  0.24059195  0.13834258  1
  O  O236  1  0.50355675  0.23271372  0.62153545  1
  O  O237  1  0.48109079  0.72529959  0.11213564  1
  O  O238  1  0.49050239  0.75554152  0.63548981  1
  O  O239  1  0.99230159  0.25537746  0.13512236  1
  O  O240  1  0.99822357  0.24301475  0.62695002  1
  O  O241  1  0.99817433  0.75112513  0.13525951  1
  O  O242  1  1.00730717  0.74252415  0.63576827  1
  O  O243  1  -0.00448879  0.26445206  0.35856401  1
  O  O244  1  0.00525214  0.25518514  0.86891685  1
  O  O245  1  -0.00157607  0.76151769  0.37364723  1
  O  O246  1  0.00728955  0.75801692  0.86787330  1
  O  O247  1  0.50313699  0.24474207  0.36410787  1
  O  O248  1  0.49651118  0.26052082  0.87325883  1
  O  O249  1  0.50183244  0.76260110  0.37419202  1
  O  O250  1  0.50165161  0.75526509  0.85743651  1
  O  O251  1  0.24497485  0.12982797  0.51355374  1
  O  O252  1  0.24301301  0.13383060  0.99903614  1
  O  O253  1  0.24437947  0.61891202  0.48581618  1
  O  O254  1  0.24470559  0.63629744  0.99635046  1
  O  O255  1  0.74454041  0.13079041  0.50215425  1
  O  O256  1  0.74468058  0.13068369  0.99230524  1
  O  O257  1  0.74309136  0.63855656  0.50232185  1
  O  O258  1  0.75769793  0.64300930  1.00254250  1
  O  O259  1  0.25812247  0.36872247  0.00215376  1
  O  O260  1  0.27376829  0.38627566  0.50739574  1
  O  O261  1  0.25710864  0.86342302  0.00228981  1
  O  O262  1  0.25921116  0.87905359  0.51081137  1
  O  O263  1  0.75545627  0.36770484  0.00527833  1
  O  O264  1  0.75315043  0.36798022  0.50517012  1
  O  O265  1  0.76063813  0.86333099  0.00875662  1
  O  O266  1  0.75642624  0.86588081  0.50444829  1
  O  O267  1  0.13043709  0.49788557  0.24090204  1
  O  O268  1  0.13361946  0.50074026  0.74474324  1
  O  O269  1  0.12006360  0.99387777  0.24538412  1
  O  O270  1  0.13123642  1.00182393  0.74050033  1
  O  O271  1  0.62731830  0.48603102  0.25057037  1
  O  O272  1  0.63165324  0.49412726  0.73718931  1
  O  O273  1  0.64009907  1.01051538  0.24554477  1
  O  O274  1  0.62915090  1.00509148  0.74206075  1
  O  O275  1  0.37707182  0.01824656  0.24678526  1
  O  O276  1  0.36787207  0.00659682  0.75083788  1
  O  O277  1  0.36575199  0.50478862  0.25542874  1
  O  O278  1  0.37060082  0.50810971  0.75065196  1
  O  O279  1  0.87016419  0.00935033  0.25324980  1
  O  O280  1  0.87985260  0.00511641  0.76419674  1
  O  O281  1  0.85838855  0.48800463  0.26161792  1
  O  O282  1  0.86535478  0.50904376  0.74029360  1
  O  O283  1  0.11255311  0.38603723  0.35392028  1
  O  O284  1  0.11888807  0.36756179  0.86993801  1
  O  O285  1  0.10979835  0.87486805  0.38165971  1
  O  O286  1  0.11356232  0.86838070  0.88047875  1
  O  O287  1  0.62540170  0.37208125  0.36544535  1
  O  O288  1  0.60775448  0.38114641  0.86502106  1
  O  O289  1  0.61143695  0.87642770  0.37816412  1
  O  O290  1  0.63933347  0.89018055  0.86723856  1
  O  O291  1  0.38904541  0.12788977  0.12409886  1
  O  O292  1  0.38649542  0.12368661  0.63415865  1
  O  O293  1  0.37068211  0.62795359  0.13672079  1
  O  O294  1  0.36778052  0.63706489  0.63048200  1
  O  O295  1  0.87508278  0.13915328  0.13017332  1
  O  O296  1  0.88303300  0.12790796  0.63156120  1
  O  O297  1  0.89015273  0.59090000  0.14256889  1
  O  O298  1  0.88736475  0.62315875  0.62978947  1
  O  O299  1  0.25024123  0.25833562  0.11349801  1
  O  O300  1  0.25202095  0.25861567  0.62369019  1
  O  O301  1  0.26035978  0.74784385  0.11676168  1
  O  O302  1  0.25696395  0.76219447  0.63288449  1
  O  O303  1  0.75852947  0.24286479  0.11089882  1
  O  O304  1  0.75649612  0.25372760  0.61412576  1
  O  O305  1  0.75320154  0.75946502  0.11828046  1
  O  O306  1  0.74694255  0.76330496  0.61505385  1
  O  O307  1  0.24204978  0.23849136  0.38253444  1
  O  O308  1  0.24296709  0.25133801  0.88634666  1
  O  O309  1  0.25347726  0.73940326  0.37390277  1
  O  O310  1  0.24260939  0.75239041  0.87990280  1
  O  O311  1  0.75059406  0.24894785  0.38829009  1
  O  O312  1  0.75547453  0.24098653  0.88858897  1
  O  O313  1  0.74867386  0.75715057  0.38787605  1
  O  O314  1  0.75097283  0.74981608  0.89175319  1
  O  O315  1  0.00781864  0.11598102  -0.00808107  1
  O  O316  1  -0.01007427  0.11392415  0.51185612  1
  O  O317  1  0.00769038  0.61912230  -0.00200758  1
  O  O318  1  0.00536280  0.62233878  0.50526219  1
  O  O319  1  0.50786898  0.12742246  0.00871394  1
  O  O320  1  0.50728951  0.11591503  0.50651564  1
  O  O321  1  0.49101965  0.61312711  -0.00293039  1
  O  O322  1  0.51478876  0.62098441  0.49856256  1
  O  O323  1  0.49154784  0.38421572  0.50348947  1
  O  O324  1  0.48780418  0.36848401  0.98798769  1
  O  O325  1  0.49528397  0.87987063  0.49385398  1
  O  O326  1  0.49757313  0.86977091  1.00549261  1
  O  O327  1  0.98927696  0.38649907  0.49341854  1
  O  O328  1  0.99442908  0.38114530  0.99288422  1
  O  O329  1  0.99385035  0.87673476  0.49407095  1
  O  O330  1  0.99435019  0.88258989  0.99237073  1
  O  O331  1  0.50036478  0.50241253  0.39018979  1
  O  O332  1  0.48722784  0.48943033  0.86471004  1
  O  O333  1  0.50482640  0.99174802  0.39020528  1
  O  O334  1  0.50004448  0.99036443  0.88315582  1
  O  O335  1  0.99077833  0.49918899  0.37751407  1
  O  O336  1  1.00823136  0.49385919  0.88516303  1
  O  O337  1  0.99457042  0.98952244  0.38413068  1
  O  O338  1  0.99434564  0.99358256  0.87975540  1
  O  O339  1  -0.00408857  -0.00219579  0.11097539  1
  O  O340  1  0.00539658  0.00476425  0.62239423  1
  O  O341  1  0.01446889  0.49543280  0.10615949  1
  O  O342  1  0.00629420  0.50998913  0.61938825  1
  O  O343  1  0.51138052  0.00716343  0.12722212  1
  O  O344  1  0.51124484  0.00384410  0.61739999  1
  O  O345  1  0.48329240  0.51514338  0.12347868  1
  O  O346  1  0.51714681  0.49878473  0.61616671  1
  O  O347  1  0.24225664  0.38010710  0.24644149  1
  O  O348  1  0.24403802  0.38512391  0.74933649  1
  O  O349  1  0.24997667  0.87604720  0.24813337  1
  O  O350  1  0.25826003  0.88589033  0.74199656  1
  O  O351  1  0.73329661  0.38100460  0.24941305  1
  O  O352  1  0.74499129  0.37949869  0.74300436  1
  O  O353  1  0.75946796  0.88583148  0.24275602  1
  O  O354  1  0.75870053  0.87137726  0.74413591  1
  O  O355  1  0.26713268  0.13065036  0.24660239  1
  O  O356  1  0.25685019  0.11067198  0.75032192  1
  O  O357  1  0.25462283  0.61952911  0.26171429  1
  O  O358  1  0.26006769  0.61992693  0.75150949  1
  O  O359  1  0.76163631  0.12140054  0.25146455  1
  O  O360  1  0.75707071  0.13157504  0.75935687  1
  O  O361  1  0.74312547  0.60978484  0.23913232  1
  O  O362  1  0.75888515  0.61867634  0.75100712  1
  O  O363  1  0.37815473  0.12347955  0.36631281  1
  O  O364  1  0.37221123  0.11834211  0.86872464  1
  O  O365  1  0.36326027  0.62160268  0.37101674  1
  O  O366  1  0.37417659  0.61782261  0.86495037  1
  O  O367  1  0.87463815  0.11834619  0.36666529  1
  O  O368  1  0.86363841  0.11696104  0.87275179  1
  O  O369  1  0.87534032  0.61491077  0.36656341  1
  O  O370  1  0.87328353  0.62378606  0.86341859  1
  O  O371  1  0.13170512  0.38176839  0.13100289  1
  O  O372  1  0.12084171  0.39223184  0.63525058  1
  O  O373  1  0.13039295  0.87834233  0.12557576  1
  O  O374  1  0.13436088  0.88147453  0.62580983  1
  O  O375  1  0.63220825  0.36122496  0.13382115  1
  O  O376  1  0.62997245  0.38356390  0.62977863  1
  O  O377  1  0.64240094  0.89676022  0.11409391  1
  O  O378  1  0.63299621  0.88402478  0.62159672  1
  O  O379  1  0.11514730  0.26064459  0.24617645  1
  O  O380  1  0.12006014  0.25414444  0.75524281  1
  O  O381  1  0.10914296  0.75533740  0.25028515  1
  O  O382  1  0.11667202  0.74217323  0.76234358  1
  O  O383  1  0.62067599  0.25790107  0.25684252  1
  O  O384  1  0.63185357  0.26363727  0.74313033  1
  O  O385  1  0.60702319  0.76645009  0.19979693  1
  O  O386  1  0.61148924  0.74361976  0.74161866  1
  O  O387  1  0.38266874  0.24293961  0.25002698  1
  O  O388  1  0.36717387  0.23271968  0.75038545  1
  O  O389  1  0.38131917  0.74077818  0.24142648  1
  O  O390  1  0.38105076  0.74479591  0.74163327  1
  O  O391  1  0.87620871  0.24832379  0.24135293  1
  O  O392  1  0.88157889  0.24651802  0.74233095  1
  O  O393  1  0.89183644  0.74963376  0.25618084  1
  O  O394  1  0.88833521  0.73889978  0.75263803  1
  O  O395  1  0.38795544  0.49556827  0.50127986  1
  O  O396  1  0.36305135  0.48876484  0.98547718  1
  O  O397  1  0.38711780  0.98730186  0.51152874  1
  O  O398  1  0.37952743  0.98770641  1.00250140  1
  O  O399  1  0.87626510  0.49979263  0.49143645  1
  O  O400  1  0.88515301  0.49105345  1.00018166  1
  O  O401  1  0.88516125  0.99157397  0.49771335  1
  O  O402  1  0.87956976  0.99581493  0.98909113  1
  O  O403  1  0.11534911  0.01012255  -0.00031930  1
  O  O404  1  0.11087282  -0.00827392  0.51469022  1
  O  O405  1  0.12505984  0.50996415  -0.00034369  1
  O  O406  1  0.11887169  0.50366180  0.50817036  1
  O  O407  1  0.62638977  0.01723139  0.01218572  1
  O  O408  1  0.62195582  0.00514960  0.50796852  1
  O  O409  1  0.63037623  0.47117590  0.02237766  1
  O  O410  1  0.62371327  0.51057016  0.50679253  1
  O  O411  1  0.37078661  0.37382713  0.11543438  1
  O  O412  1  0.37970464  0.37175102  0.61647280  1
  O  O413  1  0.37776158  0.86338023  0.11672604  1
  O  O414  1  0.36868678  0.86742461  0.61823492  1
  O  O415  1  0.87956996  0.36486973  0.10963690  1
  O  O416  1  0.87037286  0.36901981  0.61755916  1
  O  O417  1  0.86542197  0.88328083  0.11561737  1
  O  O418  1  0.86877582  0.87963805  0.61201522  1
  O  O419  1  0.10402774  0.13514659  0.38570796  1
  O  O420  1  0.12788560  0.13439600  0.88253736  1
  O  O421  1  0.14005634  0.62186208  0.38234275  1
  O  O422  1  0.12829787  0.63434160  0.88438202  1
  O  O423  1  0.62848287  0.12428430  0.39009538  1
  O  O424  1  0.63543547  0.12091791  0.88354974  1
  O  O425  1  0.62659486  0.62382995  0.38711293  1
  O  O426  1  0.63416878  0.59016705  0.88102400  1
