# generated using pymatgen
data_V85Zn86O256
_symmetry_space_group_name_H-M   'P 1'
_cell_length_a   16.93137228
_cell_length_b   16.94144406
_cell_length_c   16.93574493
_cell_angle_alpha   90.04987134
_cell_angle_beta   90.00563033
_cell_angle_gamma   89.97124703
_symmetry_Int_Tables_number   1
_chemical_formula_structural   V85Zn86O256
_chemical_formula_sum   'V85 Zn86 O256'
_cell_volume   4857.87871830
_cell_formula_units_Z   1
loop_
 _symmetry_equiv_pos_site_id
 _symmetry_equiv_pos_as_xyz
  1  'x, y, z'
loop_
 _atom_site_type_symbol
 _atom_site_label
 _atom_site_symmetry_multiplicity
 _atom_site_fract_x
 _atom_site_fract_y
 _atom_site_fract_z
 _atom_site_occupancy
  V  V0  1  0.75072481  0.49482887  0.74988138  1
  V  V1  1  0.49774809  0.50191015  -0.01413578  1
  V  V2  1  0.75393282  0.00501309  0.75005329  1
  V  V3  1  -0.00184297  0.62877725  0.13005959  1
  V  V4  1  0.87251919  0.75210383  0.61267060  1
  V  V5  1  -0.00407162  0.75027954  0.75005331  1
  V  V6  1  0.63433977  0.74898133  0.37884459  1
  V  V7  1  0.13074278  0.12073513  0.48932200  1
  V  V8  1  -0.00542440  0.12039518  0.63028820  1
  V  V9  1  0.18488880  0.04653308  0.68135246  1
  V  V10  1  0.36958193  0.00591437  0.36983850  1
  V  V11  1  0.37760216  0.37520895  -0.01414427  1
  V  V12  1  0.50182150  0.87376292  0.37434784  1
  V  V13  1  -0.00123330  0.00251848  0.00430413  1
  V  V14  1  0.13495876  0.37776617  0.24982622  1
  V  V15  1  0.25168459  0.62179928  0.37266736  1
  V  V16  1  0.63417434  0.62605149  0.50235850  1
  V  V17  1  -0.00598853  0.49962835  -0.00601892  1
  V  V18  1  0.13324556  0.24848516  0.88117544  1
  V  V19  1  0.37091767  0.62163653  0.24735568  1
  V  V20  1  0.36123405  0.00721620  0.86833605  1
  V  V21  1  0.74273520  0.49531501  0.24824539  1
  V  V22  1  0.50671843  0.49981993  0.50253393  1
  V  V23  1  0.37790012  0.87276792  0.50045734  1
  V  V24  1  0.73882884  0.37243400  0.12247322  1
  V  V25  1  0.37365339  0.25180634  0.12279313  1
  V  V26  1  0.74789445  0.13293380  0.87773151  1
  V  V27  1  0.62719162  0.87775691  0.75275367  1
  V  V28  1  0.73290211  0.12701276  0.37643538  1
  V  V29  1  0.87321194  0.12688894  0.25461393  1
  V  V30  1  0.37778216  0.37436164  0.49648718  1
  V  V31  1  -0.00300833  0.87847705  0.87502528  1
  V  V32  1  0.00103444  0.37137738  0.37149039  1
  V  V33  1  0.62025828  0.50688356  0.12082984  1
  V  V34  1  0.62443134  0.13469381  0.00172268  1
  V  V35  1  0.11915220  0.37571058  0.75222209  1
  V  V36  1  0.62634361  0.00798384  0.62211434  1
  V  V37  1  0.37322337  0.75153562  0.12638526  1
  V  V38  1  0.12176387  0.74820052  0.36886787  1
  V  V39  1  0.37487163  0.49834659  0.37025346  1
  V  V40  1  0.87529822  0.63069806  0.25040520  1
  V  V41  1  0.51493533  0.37285738  0.36988193  1
  V  V42  1  0.24629781  0.87155115  0.62595153  1
  V  V43  1  0.24406883  0.88439090  0.12727981  1
  V  V44  1  0.73534599  0.74894021  0.00092115  1
  V  V45  1  0.25190698  0.74756454  0.49924319  1
  V  V46  1  0.37449702  0.87767483  -0.00159764  1
  V  V47  1  0.50575311  0.62766673  0.62275876  1
  V  V48  1  0.87394453  0.49646320  0.37160482  1
  V  V49  1  0.56049237  0.70148295  0.80679088  1
  V  V50  1  0.25209712  0.37403282  0.11816240  1
  V  V51  1  0.25324526  0.62151622  0.87637017  1
  V  V52  1  0.51217052  0.25186919  0.24965409  1
  V  V53  1  0.62990081  -0.00948478  0.12165449  1
  V  V54  1  0.73507971  0.24581871  0.49767799  1
  V  V55  1  0.25691789  0.50028710  0.75380174  1
  V  V56  1  0.24385352  0.75155041  0.00259315  1
  V  V57  1  0.61334372  0.37284352  0.74579878  1
  V  V58  1  0.87592135  0.36833299  0.49889549  1
  V  V59  1  0.12155688  0.75101378  0.87798632  1
  V  V60  1  0.38043338  0.75051252  0.63538357  1
  V  V61  1  0.75301801  0.87305073  0.61233076  1
  V  V62  1  0.12564816  0.62244143  0.49865087  1
  V  V63  1  0.12505433  0.49953790  0.62356745  1
  V  V64  1  -0.00010263  0.25254690  0.24901602  1
  V  V65  1  0.86765480  0.37851709  -0.00422217  1
  V  V66  1  0.25084957  0.37716999  0.61984717  1
  V  V67  1  0.00153090  -0.00541993  0.50593373  1
  V  V68  1  0.87427398  0.24753044  0.63131948  1
  V  V69  1  0.50648418  0.00873376  0.49722987  1
  V  V70  1  0.87324171  -0.00037070  0.38271441  1
  V  V71  1  0.49895928  0.87894059  0.86715144  1
  V  V72  1  0.12214658  0.62515190  0.00154019  1
  V  V73  1  0.12217085  0.88018694  0.25015887  1
  V  V74  1  0.00204520  0.12410628  0.12365285  1
  V  V75  1  -0.00079885  0.62450105  0.62432334  1
  V  V76  1  0.86826417  0.25051512  0.11691444  1
  V  V77  1  0.87262009  0.00599237  0.87411398  1
  V  V78  1  0.12752593  0.87374861  0.74869866  1
  V  V79  1  0.13720751  0.12501986  0.00099845  1
  V  V80  1  0.37957883  0.24741746  0.62507812  1
  V  V81  1  0.12906634  0.50052985  0.12730490  1
  V  V82  1  0.50234163  0.74771215  0.24928464  1
  V  V83  1  0.87575365  0.62037928  0.76080355  1
  V  V84  1  -0.00498666  0.87041775  0.37697473  1
  Zn  Zn85  1  0.36704794  0.13458365  0.25217926  1
  Zn  Zn86  1  0.50093240  0.62500154  0.11873894  1
  Zn  Zn87  1  0.74216359  0.62763672  0.87901004  1
  Zn  Zn88  1  -0.00465697  0.24250195  0.75491328  1
  Zn  Zn89  1  0.50245829  0.12694959  0.62613480  1
  Zn  Zn90  1  0.24182271  0.01138740  0.25090365  1
  Zn  Zn91  1  0.37259133  0.12196998  0.75023446  1
  Zn  Zn92  1  0.00001002  0.49616495  0.49998711  1
  Zn  Zn93  1  0.86195725  0.87669381  0.01152990  1
  Zn  Zn94  1  0.50047902  0.00152104  -0.00118777  1
  Zn  Zn95  1  0.75096170  -0.00359186  0.24601227  1
  Zn  Zn96  1  0.86695811  0.75928685  0.12850634  1
  Zn  Zn97  1  0.61938107  0.26329399  0.88213849  1
  Zn  Zn98  1  0.49797894  0.12284123  0.12611299  1
  Zn  Zn99  1  0.38082131  0.62364673  0.75547667  1
  Zn  Zn100  1  -0.00484382  0.37307398  0.87605277  1
  Zn  Zn101  1  0.63396141  0.86789177  0.24143580  1
  Zn  Zn102  1  0.75241159  0.62560342  0.37786628  1
  Zn  Zn103  1  0.49490125  0.24452181  0.76182299  1
  Zn  Zn104  1  0.25645432  0.23985434  0.49140699  1
  Zn  Zn105  1  0.13563944  0.24282935  0.36611175  1
  Zn  Zn106  1  0.74801473  0.38172463  0.62169708  1
  Zn  Zn107  1  0.19049863  0.18929082  0.18479286  1
  Zn  Zn108  1  0.18612994  0.20778034  0.68309809  1
  Zn  Zn109  1  0.18762003  0.68982076  0.18838564  1
  Zn  Zn110  1  0.18742803  0.68757998  0.68919208  1
  Zn  Zn111  1  0.68865734  0.18234477  0.18436379  1
  Zn  Zn112  1  0.68855800  0.18962263  0.68871997  1
  Zn  Zn113  1  0.69055117  0.68501080  0.18486171  1
  Zn  Zn114  1  0.69758420  0.68371417  0.68082252  1
  Zn  Zn115  1  0.31466627  0.31270473  0.31018186  1
  Zn  Zn116  1  0.31009652  0.31041668  0.80883751  1
  Zn  Zn117  1  0.31149870  0.81404884  0.31163158  1
  Zn  Zn118  1  0.30973344  0.81312209  0.81464784  1
  Zn  Zn119  1  0.80559802  0.31063066  0.31054219  1
  Zn  Zn120  1  0.81055661  0.31210212  0.81469373  1
  Zn  Zn121  1  0.81209817  0.81593786  0.31297959  1
  Zn  Zn122  1  0.80931724  0.81191966  0.81841381  1
  Zn  Zn123  1  0.18992158  0.43543750  0.43344275  1
  Zn  Zn124  1  0.18706990  0.43670669  0.93880052  1
  Zn  Zn125  1  0.18587259  0.93620034  0.43995289  1
  Zn  Zn126  1  0.18331047  0.94007277  0.94024141  1
  Zn  Zn127  1  0.68992578  0.43806265  0.44046076  1
  Zn  Zn128  1  0.68725957  0.44279697  0.93361335  1
  Zn  Zn129  1  0.68732904  0.93805041  0.43155453  1
  Zn  Zn130  1  0.68667749  0.93583424  0.93892267  1
  Zn  Zn131  1  0.31591161  0.06243308  0.06422795  1
  Zn  Zn132  1  0.32099193  0.06282874  0.55375522  1
  Zn  Zn133  1  0.31368665  0.55788418  0.06156536  1
  Zn  Zn134  1  0.31817664  0.56267056  0.56276550  1
  Zn  Zn135  1  0.80999820  0.06364731  0.06055513  1
  Zn  Zn136  1  0.81122060  0.06450773  0.56083986  1
  Zn  Zn137  1  0.80881812  0.56690449  0.06123300  1
  Zn  Zn138  1  0.81710664  0.56022934  0.56478996  1
  Zn  Zn139  1  0.44036416  0.43477314  0.18671122  1
  Zn  Zn140  1  0.43658426  0.44096371  0.68371263  1
  Zn  Zn141  1  0.44295471  0.93725988  0.18595074  1
  Zn  Zn142  1  0.43828545  0.94024101  0.68890032  1
  Zn  Zn143  1  0.93599700  0.43947357  0.18229711  1
  Zn  Zn144  1  0.93474800  0.43867721  0.68582291  1
  Zn  Zn145  1  0.93748272  0.93979264  0.19414130  1
  Zn  Zn146  1  0.93371783  0.93658272  0.68863172  1
  Zn  Zn147  1  0.05691203  0.05917034  0.31278545  1
  Zn  Zn148  1  0.06017639  0.06790535  0.82008086  1
  Zn  Zn149  1  0.06008248  0.55899028  0.31149547  1
  Zn  Zn150  1  0.06413990  0.56131968  0.81360836  1
  Zn  Zn151  1  0.55664918  0.06260639  0.30339587  1
  Zn  Zn152  1  0.55876230  0.06557464  0.81392898  1
  Zn  Zn153  1  0.56304346  0.56245737  0.31162584  1
  Zn  Zn154  1  0.56775730  0.53626598  0.81047027  1
  Zn  Zn155  1  0.44319265  0.18950172  0.43517542  1
  Zn  Zn156  1  0.43952734  0.18869376  0.93699624  1
  Zn  Zn157  1  0.44046292  0.68747469  0.43838866  1
  Zn  Zn158  1  0.43215953  0.68586267  0.94317326  1
  Zn  Zn159  1  0.94154534  0.18593443  0.44008365  1
  Zn  Zn160  1  0.93783411  0.18998188  0.93581302  1
  Zn  Zn161  1  0.93911301  0.68394440  0.43580569  1
  Zn  Zn162  1  0.93145245  0.69233775  0.94451125  1
  Zn  Zn163  1  0.05954820  0.31196800  0.06183696  1
  Zn  Zn164  1  0.06117308  0.30669858  0.56091442  1
  Zn  Zn165  1  0.04608413  0.82036559  0.07195839  1
  Zn  Zn166  1  0.06249895  0.80986648  0.56041889  1
  Zn  Zn167  1  0.55710262  0.31561385  0.06083718  1
  Zn  Zn168  1  0.56241851  0.31757713  0.56786753  1
  Zn  Zn169  1  0.56044488  0.81075890  0.05759319  1
  Zn  Zn170  1  0.56597201  0.81426226  0.56358069  1
  O  O171  1  0.11426674  0.13769479  0.10959700  1
  O  O172  1  0.12578330  0.11417574  0.62444908  1
  O  O173  1  0.12101350  0.61754043  0.12369442  1
  O  O174  1  0.11896033  0.62123926  0.62051118  1
  O  O175  1  0.62378468  0.11772107  0.11339994  1
  O  O176  1  0.62665867  0.11103263  0.62665877  1
  O  O177  1  0.62155865  0.61071092  0.12669997  1
  O  O178  1  0.61463241  0.63289105  0.61817176  1
  O  O179  1  0.38370075  0.38410059  0.37876757  1
  O  O180  1  0.36666875  0.37158688  0.88764857  1
  O  O181  1  0.38680512  0.87766797  0.37850033  1
  O  O182  1  0.37916250  0.87952428  0.87974730  1
  O  O183  1  0.87926165  0.37722308  0.37875950  1
  O  O184  1  0.87493719  0.36900349  0.89091909  1
  O  O185  1  0.88392893  0.88483366  0.37438061  1
  O  O186  1  0.88318059  0.88760643  0.87528923  1
  O  O187  1  0.26760589  -0.01090164  0.37494540  1
  O  O188  1  0.26309581  -0.00706546  0.87692762  1
  O  O189  1  0.26631908  0.50554870  0.37905104  1
  O  O190  1  0.24062457  0.50953708  0.86589578  1
  O  O191  1  0.75850159  0.01132611  0.37865479  1
  O  O192  1  0.75557469  0.00522266  0.86893175  1
  O  O193  1  0.75970031  0.49779872  0.36790048  1
  O  O194  1  0.74441760  0.51128821  0.85719254  1
  O  O195  1  0.23677364  0.49319792  0.12159346  1
  O  O196  1  0.24570414  0.49592803  0.63106855  1
  O  O197  1  0.25332437  0.98683241  0.12702337  1
  O  O198  1  0.25079171  0.99158725  0.62207629  1
  O  O199  1  0.74160663  0.49414451  0.13022757  1
  O  O200  1  0.75768169  0.50148793  0.64206549  1
  O  O201  1  0.73531414  1.00422997  0.12541420  1
  O  O202  1  0.74641609  0.99557182  0.63149533  1
  O  O203  1  0.00418971  0.37051896  0.25171013  1
  O  O204  1  0.01138022  0.37904275  0.75072922  1
  O  O205  1  0.00852471  0.87885850  0.26784756  1
  O  O206  1  0.00937836  0.87261107  0.75400900  1
  O  O207  1  0.49964689  0.36354255  0.25707305  1
  O  O208  1  0.51116196  0.37945480  0.74549354  1
  O  O209  1  0.50313764  0.86227331  0.25640418  1
  O  O210  1  0.50638806  0.87493882  0.75884179  1
  O  O211  1  0.49043395  0.13969695  0.24837480  1
  O  O212  1  0.49450065  0.12559520  0.74335474  1
  O  O213  1  0.48999975  0.63523265  0.25029853  1
  O  O214  1  0.50470939  0.62927024  0.74795443  1
  O  O215  1  0.99508664  0.13069329  0.24287033  1
  O  O216  1  1.00578250  0.12155854  0.73461968  1
  O  O217  1  0.98854744  0.61599214  0.24259616  1
  O  O218  1  0.99262904  0.62683114  0.74490761  1
  O  O219  1  0.38187967  0.26482147  0.01105959  1
  O  O220  1  0.37658960  0.25697353  0.50488911  1
  O  O221  1  0.36608269  0.76133026  0.00437055  1
  O  O222  1  0.37100201  0.75423371  0.50816288  1
  O  O223  1  0.87727981  0.25648317  0.01210432  1
  O  O224  1  0.87417202  0.25809466  0.50578201  1
  O  O225  1  0.86798846  0.75722996  0.00727636  1
  O  O226  1  0.87975163  0.74397707  0.51323577  1
  O  O227  1  0.12551645  0.22967617  0.50320424  1
  O  O228  1  0.12059763  0.24304503  0.98915972  1
  O  O229  1  0.13152814  0.74207799  0.49041816  1
  O  O230  1  0.12486662  0.74515783  0.99800444  1
  O  O231  1  0.63686593  0.25304818  0.50424425  1
  O  O232  1  0.62456395  0.23862659  1.00284765  1
  O  O233  1  0.61764596  0.73930601  0.49039668  1
  O  O234  1  0.63430094  0.74764186  1.00023060  1
  O  O235  1  0.49356609  0.25275465  0.13522515  1
  O  O236  1  0.48819266  0.25092860  0.62656143  1
  O  O237  1  0.49327436  0.74790037  0.13188401  1
  O  O238  1  0.49116070  0.74344450  0.62049630  1
  O  O239  1  0.98979416  0.24263603  0.12962810  1
  O  O240  1  0.99266184  0.23921247  0.62748891  1
  O  O241  1  1.00339571  0.73010122  0.12600865  1
  O  O242  1  0.99512736  0.74519467  0.63169759  1
  O  O243  1  0.00501685  0.25581245  0.36776509  1
  O  O244  1  0.00852447  0.25296725  0.87100555  1
  O  O245  1  0.00922949  0.75756239  0.38163803  1
  O  O246  1  0.00326054  0.75712714  0.87030850  1
  O  O247  1  0.49626168  0.25899473  0.36100239  1
  O  O248  1  0.50605923  0.25117259  0.87420542  1
  O  O249  1  0.50546223  0.75558336  0.36818771  1
  O  O250  1  0.49702656  0.75310785  0.87070178  1
  O  O251  1  0.23499490  0.11998233  0.50210000  1
  O  O252  1  0.23544048  0.12200523  1.00568228  1
  O  O253  1  0.24670144  0.62806094  0.49438120  1
  O  O254  1  0.24319968  0.62870506  0.99487192  1
  O  O255  1  0.75170468  0.13835522  0.49180073  1
  O  O256  1  0.73674115  0.12114398  0.99133819  1
  O  O257  1  0.73772158  0.61654560  0.50052819  1
  O  O258  1  0.75239235  0.63699111  0.99439371  1
  O  O259  1  0.26300207  0.38316366  0.00729762  1
  O  O260  1  0.25684935  0.38207292  0.51174848  1
  O  O261  1  0.25208112  0.87119903  0.00735555  1
  O  O262  1  0.25568419  0.86851878  0.50737990  1
  O  O263  1  0.75595745  0.38386041  0.00863204  1
  O  O264  1  0.75727859  0.36333257  0.50015590  1
  O  O265  1  0.74811155  0.85968890  -0.00538503  1
  O  O266  1  0.74643405  0.88051599  0.51341792  1
  O  O267  1  0.11898620  0.49037021  0.23923789  1
  O  O268  1  0.13296433  0.49355476  0.74373597  1
  O  O269  1  0.12626230  0.98555386  0.25898833  1
  O  O270  1  0.12554455  0.99487706  0.74951477  1
  O  O271  1  0.63320611  0.50229309  0.24162810  1
  O  O272  1  0.63903336  0.48727721  0.74129443  1
  O  O273  1  0.62292030  1.00068309  0.23242633  1
  O  O274  1  0.63008196  0.99295793  0.74223252  1
  O  O275  1  0.37848981  -0.00285647  0.26416384  1
  O  O276  1  0.37233491  -0.00005292  0.76320195  1
  O  O277  1  0.38258676  0.51005775  0.25764509  1
  O  O278  1  0.36115449  0.50317178  0.74610152  1
  O  O279  1  0.87743034  0.01324018  0.26131491  1
  O  O280  1  0.86530762  -0.00154032  0.75966257  1
  O  O281  1  0.86835927  0.50422697  0.25616079  1
  O  O282  1  0.87055918  0.51244835  0.74921395  1
  O  O283  1  0.11694057  0.38028309  0.36410705  1
  O  O284  1  0.12295791  0.36643445  0.86934827  1
  O  O285  1  0.12080355  0.86550558  0.37155421  1
  O  O286  1  0.11927935  0.87212542  0.86693565  1
  O  O287  1  0.61382621  0.38046754  0.37709958  1
  O  O288  1  0.63568900  0.37717185  0.85310884  1
  O  O289  1  0.61349131  0.86661310  0.37615909  1
  O  O290  1  0.61581215  0.88102896  0.86131730  1
  O  O291  1  0.37821556  0.13783355  0.12143934  1
  O  O292  1  0.37522047  0.13401798  0.62416737  1
  O  O293  1  0.37346212  0.63103509  0.13262687  1
  O  O294  1  0.38710335  0.63291046  0.62834210  1
  O  O295  1  0.87806817  0.13220134  0.13130992  1
  O  O296  1  0.88386510  0.13367601  0.61872444  1
  O  O297  1  0.88317930  0.62120996  0.13549956  1
  O  O298  1  0.88316966  0.63113531  0.63215379  1
  O  O299  1  0.25668352  0.26594730  0.12467505  1
  O  O300  1  0.26029684  0.26114066  0.61608592  1
  O  O301  1  0.25460240  0.75892116  0.12033121  1
  O  O302  1  0.25658085  0.75404050  0.61932199  1
  O  O303  1  0.75749948  0.25929867  0.13233324  1
  O  O304  1  0.75805314  0.24765003  0.61215848  1
  O  O305  1  0.75073379  0.74558130  0.11133971  1
  O  O306  1  0.76049367  0.76002805  0.62643693  1
  O  O307  1  0.24477891  0.26639133  0.38260932  1
  O  O308  1  0.23220542  0.25124841  0.87026968  1
  O  O309  1  0.24483375  0.74347134  0.38104657  1
  O  O310  1  0.24028234  0.74545661  0.88251893  1
  O  O311  1  0.75250789  0.24276224  0.38822215  1
  O  O312  1  0.74417264  0.23560794  0.86911849  1
  O  O313  1  0.73749712  0.74714238  0.37474244  1
  O  O314  1  0.75322559  0.74311035  0.88813270  1
  O  O315  1  0.00222204  0.11804537  0.00591229  1
  O  O316  1  0.01158954  0.11751435  0.51120522  1
  O  O317  1  0.00315315  0.61774542  0.00683982  1
  O  O318  1  0.00782444  0.61983849  0.50584054  1
  O  O319  1  0.51311326  0.12191959  0.00183449  1
  O  O320  1  0.49895377  0.11204981  0.50187136  1
  O  O321  1  0.48921151  0.60796828  0.00224197  1
  O  O322  1  0.50729972  0.61869513  0.50636404  1
  O  O323  1  0.49731312  0.38264514  0.49437234  1
  O  O324  1  0.48586833  0.38567725  1.00190861  1
  O  O325  1  0.49527796  0.87989279  0.49246345  1
  O  O326  1  0.48974295  0.87274204  0.98649739  1
  O  O327  1  0.99389524  0.37336141  0.49143574  1
  O  O328  1  0.98991352  0.38366733  1.00312665  1
  O  O329  1  1.00816125  0.88386558  0.49097842  1
  O  O330  1  1.01239100  0.89390473  0.98998191  1
  O  O331  1  0.49282933  0.49548906  0.38020626  1
  O  O332  1  0.49383207  0.49986848  0.88609320  1
  O  O333  1  0.49624240  0.99140677  0.37879183  1
  O  O334  1  0.48909531  0.99108374  0.87757728  1
  O  O335  1  0.98731165  0.49111376  0.37544883  1
  O  O336  1  1.00703198  0.49649170  0.89002571  1
  O  O337  1  0.99259197  0.99395365  0.38608685  1
  O  O338  1  0.99068764  1.00097467  0.88235055  1
  O  O339  1  -0.00284041  0.01643124  0.11959737  1
  O  O340  1  -0.00804408  0.00307438  0.61376081  1
  O  O341  1  0.00994144  0.50632524  0.11647637  1
  O  O342  1  0.00695392  0.50591211  0.62258236  1
  O  O343  1  0.50927035  0.00296938  0.11991862  1
  O  O344  1  0.50870631  -0.00333735  0.61485349  1
  O  O345  1  0.50737647  0.50001813  0.11980968  1
  O  O346  1  0.49491543  0.51289800  0.61424232  1
  O  O347  1  0.23877602  0.37728377  0.24104673  1
  O  O348  1  0.24084070  0.38119066  0.74027119  1
  O  O349  1  0.24189311  0.87656291  0.24309092  1
  O  O350  1  0.23633432  0.86957903  0.74351988  1
  O  O351  1  0.75578052  0.38667105  0.23936078  1
  O  O352  1  0.75676917  0.38703693  0.74616207  1
  O  O353  1  0.74412965  0.88414263  0.25905545  1
  O  O354  1  0.74276682  0.88489077  0.74795950  1
  O  O355  1  0.25377175  0.12290224  0.24658606  1
  O  O356  1  0.23991039  0.11330005  0.73363354  1
  O  O357  1  0.26307783  0.63036181  0.25628594  1
  O  O358  1  0.24764232  0.61664741  0.75815267  1
  O  O359  1  0.75819292  0.12308869  0.25914747  1
  O  O360  1  0.74179797  0.11157686  0.75878416  1
  O  O361  1  0.75765683  0.61184795  0.25237904  1
  O  O362  1  0.76284965  0.61924982  0.75125644  1
  O  O363  1  0.37892985  0.10848017  0.37751910  1
  O  O364  1  0.37248531  0.11071788  0.87686738  1
  O  O365  1  0.37333215  0.61888749  0.36874188  1
  O  O366  1  0.35766540  0.63264491  0.87252503  1
  O  O367  1  0.87375192  0.12065717  0.36905166  1
  O  O368  1  0.86513842  0.11482439  0.88261835  1
  O  O369  1  0.87409929  0.61409213  0.36980122  1
  O  O370  1  0.88238451  0.62654603  0.86102274  1
  O  O371  1  0.13087584  0.38075972  0.12722744  1
  O  O372  1  0.13149688  0.37626732  0.63010165  1
  O  O373  1  0.13059854  0.86797807  0.13836674  1
  O  O374  1  0.13658009  0.86930617  0.63028856  1
  O  O375  1  0.63495289  0.38235913  0.11928389  1
  O  O376  1  0.63218180  0.37358446  0.63861956  1
  O  O377  1  0.61853965  0.88726556  0.12272555  1
  O  O378  1  0.63232849  0.88037068  0.63547565  1
  O  O379  1  0.11750058  0.26119862  0.24691578  1
  O  O380  1  0.11990245  0.25921094  0.75891852  1
  O  O381  1  0.12957478  0.75701643  0.26374605  1
  O  O382  1  0.11688992  0.75643397  0.75543506  1
  O  O383  1  0.61107809  0.24547800  0.24411324  1
  O  O384  1  0.62385129  0.26361944  0.74824862  1
  O  O385  1  0.61738668  0.74593499  0.25709269  1
  O  O386  1  0.62584343  0.75562397  0.74738171  1
  O  O387  1  0.38171082  0.25484598  0.23660373  1
  O  O388  1  0.37195174  0.24490334  0.74012663  1
  O  O389  1  0.38164798  0.74467946  0.24618010  1
  O  O390  1  0.36860945  0.74716991  0.73851430  1
  O  O391  1  0.87859735  0.24083239  0.24456014  1
  O  O392  1  0.87553901  0.25562289  0.73565397  1
  O  O393  1  0.86837425  0.73431072  0.25141392  1
  O  O394  1  0.87929805  0.73913208  0.74509719  1
  O  O395  1  0.38708855  0.49670669  0.49240075  1
  O  O396  1  0.38492518  0.48730048  1.00417779  1
  O  O397  1  0.38437714  0.99120503  0.48858305  1
  O  O398  1  0.37458248  0.98888209  0.99252077  1
  O  O399  1  0.87376064  0.48608551  0.49149250  1
  O  O400  1  0.88327108  0.49170876  1.00900242  1
  O  O401  1  0.88402993  1.00693125  0.48956079  1
  O  O402  1  0.88171572  0.99715200  0.99479712  1
  O  O403  1  0.11627413  0.01779224  -0.00553870  1
  O  O404  1  0.11625908  0.00938231  0.49753747  1
  O  O405  1  0.11833376  0.50636320  0.00772158  1
  O  O406  1  0.12552454  0.50495240  0.50554841  1
  O  O407  1  0.62307076  0.00588281  0.00884593  1
  O  O408  1  0.61677441  -0.00852115  0.50866718  1
  O  O409  1  0.60719839  0.49357049  0.00432404  1
  O  O410  1  0.61406259  0.50796845  0.49593547  1
  O  O411  1  0.36633621  0.37290901  0.12035009  1
  O  O412  1  0.36820260  0.37065045  0.61895187  1
  O  O413  1  0.36896338  0.87148697  0.11724812  1
  O  O414  1  0.36655925  0.86909643  0.62332434  1
  O  O415  1  0.86590160  0.36800388  0.11774888  1
  O  O416  1  0.87525311  0.36738772  0.61422632  1
  O  O417  1  0.91045179  0.86630143  0.11714786  1
  O  O418  1  0.86545732  0.86432701  0.63053986  1
  O  O419  1  0.11938985  0.12452190  0.38627998  1
  O  O420  1  0.12196860  0.13739022  0.88741288  1
  O  O421  1  0.12928469  0.62846432  0.37667887  1
  O  O422  1  0.13128131  0.63193866  0.88062255  1
  O  O423  1  0.63419590  0.11756863  0.37036489  1
  O  O424  1  0.63113296  0.12076932  0.88836174  1
  O  O425  1  0.62526793  0.63192084  0.38382687  1
  O  O426  1  0.61548580  0.63474686  0.85936238  1
