# generated using pymatgen
data_V85Zn86O256
_symmetry_space_group_name_H-M   'P 1'
_cell_length_a   16.95003247
_cell_length_b   16.97350177
_cell_length_c   16.97069774
_cell_angle_alpha   90.06129045
_cell_angle_beta   89.97272194
_cell_angle_gamma   90.01874840
_symmetry_Int_Tables_number   1
_chemical_formula_structural   V85Zn86O256
_chemical_formula_sum   'V85 Zn86 O256'
_cell_volume   4882.48999495
_cell_formula_units_Z   1
loop_
 _symmetry_equiv_pos_site_id
 _symmetry_equiv_pos_as_xyz
  1  'x, y, z'
loop_
 _atom_site_type_symbol
 _atom_site_label
 _atom_site_symmetry_multiplicity
 _atom_site_fract_x
 _atom_site_fract_y
 _atom_site_fract_z
 _atom_site_occupancy
  V  V0  1  0.75231597  0.25347412  -0.00525535  1
  V  V1  1  0.75273862  0.00239057  0.26456668  1
  V  V2  1  0.37356675  0.74318051  0.62417297  1
  V  V3  1  0.25087259  0.00035019  0.74708139  1
  V  V4  1  0.86580123  0.87663839  0.49090329  1
  V  V5  1  0.87125207  0.61629814  0.25931207  1
  V  V6  1  0.37695067  0.12404162  0.24963579  1
  V  V7  1  0.37654114  -0.00168021  0.37412496  1
  V  V8  1  0.12275076  0.12296051  -0.00058119  1
  V  V9  1  0.37638031  0.87643395  -0.00197285  1
  V  V10  1  0.24914764  0.25021965  0.00040273  1
  V  V11  1  0.25014707  0.12417844  0.87478965  1
  V  V12  1  0.49739747  0.50459983  0.50369361  1
  V  V13  1  0.50255741  0.50719918  0.00202696  1
  V  V14  1  0.24951271  0.24728246  0.50588028  1
  V  V15  1  0.12595942  0.25499429  0.86591530  1
  V  V16  1  0.81358490  0.06629441  0.81501266  1
  V  V17  1  0.12588109  0.25749474  0.36944954  1
  V  V18  1  0.37853961  0.74675670  0.12401351  1
  V  V19  1  0.62908368  0.74074430  0.39231556  1
  V  V20  1  0.37656979  0.37672292  -0.00064823  1
  V  V21  1  0.24849401  0.87256852  0.12111460  1
  V  V22  1  0.00473184  0.25818788  0.25070622  1
  V  V23  1  -0.00421942  0.88149890  0.87379966  1
  V  V24  1  0.12828898  0.75022852  0.87559575  1
  V  V25  1  -0.00438469  0.12196207  0.12435398  1
  V  V26  1  0.24816098  0.48835942  0.75538154  1
  V  V27  1  0.24649272  0.74856953  0.49658494  1
  V  V28  1  0.37403963  0.87326725  0.49920581  1
  V  V29  1  0.36647956  0.63006163  0.76549508  1
  V  V30  1  -0.00333811  0.62508636  0.11560298  1
  V  V31  1  0.62715248  0.87234413  0.25141335  1
  V  V32  1  0.63015999  0.00132804  0.12659399  1
  V  V33  1  0.12343179  0.12126924  0.49732382  1
  V  V34  1  0.11862334  0.75191236  0.37334295  1
  V  V35  1  0.11940353  0.87599640  0.24942561  1
  V  V36  1  0.24045725  0.49539076  0.24963043  1
  V  V37  1  0.86404738  0.87420545  -0.00922595  1
  V  V38  1  0.37345890  0.62439007  0.24575901  1
  V  V39  1  0.50190869  0.12645473  0.12490705  1
  V  V40  1  0.95377589  0.44346219  0.43306698  1
  V  V41  1  0.24804787  0.62563993  0.37115371  1
  V  V42  1  0.86412091  0.74936494  0.11875664  1
  V  V43  1  -0.00597712  0.75518685  0.24746836  1
  V  V44  1  0.12803594  0.48641816  0.62976983  1
  V  V45  1  0.25343019  0.12369483  0.37328435  1
  V  V46  1  0.87844505  0.50681148  0.87799278  1
  V  V47  1  0.12000421  0.87425844  0.74804221  1
  V  V48  1  0.50957129  0.75236424  0.75021330  1
  V  V49  1  0.49742981  0.25279895  0.75155530  1
  V  V50  1  0.24484498  0.37462975  0.12707695  1
  V  V51  1  0.49981347  0.37574868  0.37694698  1
  V  V52  1  0.36306213  0.37542826  0.50361974  1
  V  V53  1  0.12966375  0.62410036  -0.00487736  1
  V  V54  1  0.62555461  0.25338278  0.87511622  1
  V  V55  1  0.88223892  0.38093903  -0.00123948  1
  V  V56  1  0.63312504  0.12641455  -0.00234424  1
  V  V57  1  0.75062965  0.38347740  0.12983137  1
  V  V58  1  0.50245584  0.00153013  -0.00180902  1
  V  V59  1  0.83581626  0.71044030  0.59854229  1
  V  V60  1  0.50500566  0.25541435  0.24880584  1
  V  V61  1  0.37457928  0.25036619  0.12486935  1
  V  V62  1  0.74891573  0.50019464  0.75220312  1
  V  V63  1  0.00398874  0.38206108  0.86714709  1
  V  V64  1  0.11847817  0.49561054  0.11778828  1
  V  V65  1  0.74185505  0.63772341  0.87691678  1
  V  V66  1  0.87461507  0.24917138  0.12357211  1
  V  V67  1  0.62502311  0.50046994  0.62204714  1
  V  V68  1  0.25041463  0.87543724  0.62325077  1
  V  V69  1  0.36874133  0.49988307  0.37423535  1
  V  V70  1  0.51452021  0.87537447  0.86832681  1
  V  V71  1  0.37423513  0.25296742  0.62462118  1
  V  V72  1  0.62338307  0.50903857  0.13289451  1
  V  V73  1  0.25012049  -0.00195687  0.24743558  1
  V  V74  1  0.50534822  0.00105847  0.50151440  1
  V  V75  1  0.01462233  0.63362019  0.62376820  1
  V  V76  1  0.37688737  -0.00068880  0.87313163  1
  V  V77  1  0.50346064  0.74201303  0.24802525  1
  V  V78  1  -0.00885029  0.24479547  0.74576725  1
  V  V79  1  0.50084420  0.87150659  0.37527640  1
  V  V80  1  0.75395316  0.88099589  0.63897690  1
  V  V81  1  0.76362095  0.37064538  0.62017104  1
  V  V82  1  0.62839949  -0.00121047  0.63863812  1
  V  V83  1  -0.00252278  -0.01024136  0.48678640  1
  V  V84  1  0.87174721  0.12376517  0.26460608  1
  Zn  Zn85  1  0.74859198  0.87230842  0.12263596  1
  Zn  Zn86  1  0.84575617  0.20740426  0.63448042  1
  Zn  Zn87  1  0.50244252  0.12698389  0.62599909  1
  Zn  Zn88  1  0.64903072  0.12692504  0.49805417  1
  Zn  Zn89  1  0.87979201  0.62682557  0.74931471  1
  Zn  Zn90  1  0.11795862  0.60878932  0.48838802  1
  Zn  Zn91  1  0.50336258  0.62523962  0.62425138  1
  Zn  Zn92  1  0.37562546  0.12544787  0.74846122  1
  Zn  Zn93  1  0.50055209  0.38080677  0.87539435  1
  Zn  Zn94  1  0.12405266  -0.00155273  0.62099406  1
  Zn  Zn95  1  0.62495514  0.37559651  0.75041225  1
  Zn  Zn96  1  -0.01086128  0.00303626  -0.00575327  1
  Zn  Zn97  1  0.37278115  0.50885643  0.88155168  1
  Zn  Zn98  1  0.78640390  0.25033067  0.47718000  1
  Zn  Zn99  1  0.63285818  0.63759520  0.00490468  1
  Zn  Zn100  1  0.63383489  0.37963061  0.25492225  1
  Zn  Zn101  1  -0.00063149  0.11870394  0.62561080  1
  Zn  Zn102  1  -0.01471541  0.75609795  0.74419217  1
  Zn  Zn103  1  0.12091899  -0.00303433  0.12106838  1
  Zn  Zn104  1  0.25802019  0.74469024  -0.00962143  1
  Zn  Zn105  1  0.74338251  0.61615829  0.37298245  1
  Zn  Zn106  1  0.64439971  0.24773456  0.37953815  1
  Zn  Zn107  1  0.18633878  0.18470399  0.18527397  1
  Zn  Zn108  1  0.18368520  0.18740589  0.68392616  1
  Zn  Zn109  1  0.18527825  0.68742746  0.18269171  1
  Zn  Zn110  1  0.18807032  0.68861110  0.68988561  1
  Zn  Zn111  1  0.69212407  0.19102070  0.18878086  1
  Zn  Zn112  1  0.68222825  0.18089221  0.69132961  1
  Zn  Zn113  1  0.69016646  0.68389521  0.19266863  1
  Zn  Zn114  1  0.68616069  0.68229561  0.68643249  1
  Zn  Zn115  1  0.31191359  0.31281841  0.31393712  1
  Zn  Zn116  1  0.31425834  0.31298646  0.81538271  1
  Zn  Zn117  1  0.31079652  0.81229754  0.30957915  1
  Zn  Zn118  1  0.31373335  0.81427217  0.81240925  1
  Zn  Zn119  1  0.82605644  0.32362339  0.31096228  1
  Zn  Zn120  1  0.81416870  0.31483659  0.81165943  1
  Zn  Zn121  1  0.80550725  0.80558774  0.31210401  1
  Zn  Zn122  1  0.81552235  0.80848760  0.79909005  1
  Zn  Zn123  1  0.13873815  0.40381143  0.47256702  1
  Zn  Zn124  1  0.18918209  0.44082943  0.93548441  1
  Zn  Zn125  1  0.18571575  0.93571470  0.43315571  1
  Zn  Zn126  1  0.18606251  0.93678833  0.93559452  1
  Zn  Zn127  1  0.68678221  0.43248106  0.44039211  1
  Zn  Zn128  1  0.68882453  0.44197564  0.94000904  1
  Zn  Zn129  1  0.68536058  0.93276420  0.44191434  1
  Zn  Zn130  1  0.69405709  0.93979452  0.93165694  1
  Zn  Zn131  1  0.31175878  0.06115296  0.06208373  1
  Zn  Zn132  1  0.31817488  0.06497970  0.56204113  1
  Zn  Zn133  1  0.30971150  0.56298153  0.06192913  1
  Zn  Zn134  1  0.30175901  0.56125301  0.56359129  1
  Zn  Zn135  1  0.81174516  0.06020505  0.05868650  1
  Zn  Zn136  1  0.81641493  0.05869428  0.55725796  1
  Zn  Zn137  1  0.80977065  0.56503168  0.05866172  1
  Zn  Zn138  1  0.80226956  0.53625099  0.52861920  1
  Zn  Zn139  1  0.43711731  0.43906419  0.18552908  1
  Zn  Zn140  1  0.43231095  0.43796311  0.68938317  1
  Zn  Zn141  1  0.44087118  0.93400881  0.18666282  1
  Zn  Zn142  1  0.43877044  0.93487262  0.68611351  1
  Zn  Zn143  1  0.93926969  0.43909760  0.18741533  1
  Zn  Zn144  1  0.94093493  0.44774552  0.69057083  1
  Zn  Zn145  1  0.93169579  0.93860048  0.18353546  1
  Zn  Zn146  1  0.93152487  0.95419799  0.68263574  1
  Zn  Zn147  1  0.06162273  0.06445696  0.31109992  1
  Zn  Zn148  1  0.06249424  0.06200068  0.81268498  1
  Zn  Zn149  1  0.06089328  0.56782036  0.30265175  1
  Zn  Zn150  1  0.06374987  0.56593408  0.80831627  1
  Zn  Zn151  1  0.56613804  0.06227376  0.31330002  1
  Zn  Zn152  1  0.56533558  0.06916636  0.81414905  1
  Zn  Zn153  1  0.55922920  0.56201923  0.31342349  1
  Zn  Zn154  1  0.55991621  0.56468640  0.81119561  1
  Zn  Zn155  1  0.50318044  0.18920292  0.44116002  1
  Zn  Zn156  1  0.43961628  0.18777294  0.93636535  1
  Zn  Zn157  1  0.43718462  0.68592861  0.43540201  1
  Zn  Zn158  1  0.47377046  0.70638752  0.95385339  1
  Zn  Zn159  1  0.94554591  0.18866168  0.44065304  1
  Zn  Zn160  1  0.93860713  0.19078856  0.93323064  1
  Zn  Zn161  1  0.94089303  0.68814678  0.44077193  1
  Zn  Zn162  1  0.93951003  0.69291446  0.93418563  1
  Zn  Zn163  1  0.06099640  0.31044798  0.05931601  1
  Zn  Zn164  1  -0.03549162  0.32534592  0.56685060  1
  Zn  Zn165  1  0.05662949  0.81112186  0.05843103  1
  Zn  Zn166  1  0.06072251  0.81595165  0.55892764  1
  Zn  Zn167  1  0.56468097  0.31905784  0.06376152  1
  Zn  Zn168  1  0.56380046  0.31906074  0.56573600  1
  Zn  Zn169  1  0.56558798  0.81555850  0.06327741  1
  Zn  Zn170  1  0.56385936  0.81754148  0.56913146  1
  O  O171  1  0.11637037  0.12300006  0.11559423  1
  O  O172  1  0.12559181  0.12194261  0.60806959  1
  O  O173  1  0.11599062  0.62033517  0.11670946  1
  O  O174  1  0.12238451  0.62160361  0.62486023  1
  O  O175  1  0.62067704  0.12079316  0.12068433  1
  O  O176  1  0.62117465  0.11162089  0.62118304  1
  O  O177  1  0.63025137  0.61260367  0.12412816  1
  O  O178  1  0.62221027  0.60661195  0.62754453  1
  O  O179  1  0.37599117  0.38381713  0.38175111  1
  O  O180  1  0.37557967  0.37487342  0.89127661  1
  O  O181  1  0.38032889  0.87776711  0.37811837  1
  O  O182  1  0.37993429  0.88406321  0.87968807  1
  O  O183  1  0.89589028  0.39010616  0.36893705  1
  O  O184  1  0.88262459  0.38375364  0.88094333  1
  O  O185  1  0.86859189  0.85784852  0.39322519  1
  O  O186  1  0.87973679  0.86222527  0.88448805  1
  O  O187  1  0.25596560  0.00274208  0.36628481  1
  O  O188  1  0.25565000  0.00375275  0.86702538  1
  O  O189  1  0.25299003  0.50956942  0.36194399  1
  O  O190  1  0.25509704  0.50104446  0.86288356  1
  O  O191  1  0.73935576  -0.00081704  0.36302778  1
  O  O192  1  0.74478334  0.01835547  0.87412727  1
  O  O193  1  0.75260314  0.52016582  0.42612325  1
  O  O194  1  0.75807593  0.50477681  0.86779852  1
  O  O195  1  0.24044981  0.49448476  0.12980835  1
  O  O196  1  0.24248105  0.50709859  0.64476400  1
  O  O197  1  0.24876646  0.98756178  0.12840554  1
  O  O198  1  0.25097309  0.99450207  0.63165527  1
  O  O199  1  0.73652830  0.49466401  0.11624633  1
  O  O200  1  0.74498579  0.48700032  0.62784129  1
  O  O201  1  0.73827878  1.00048817  0.13070036  1
  O  O202  1  0.73607641  0.99195062  0.62033900  1
  O  O203  1  0.00001399  0.35681554  0.23751438  1
  O  O204  1  -0.00256801  0.36630704  0.76295813  1
  O  O205  1  0.00489354  0.86487836  0.24032577  1
  O  O206  1  0.00577306  0.87561416  0.75296788  1
  O  O207  1  0.49896485  0.36983068  0.25639548  1
  O  O208  1  0.49823380  0.36518781  0.75438109  1
  O  O209  1  0.50667842  0.86675233  0.25733893  1
  O  O210  1  0.49675357  0.86298670  0.75441369  1
  O  O211  1  0.49514856  0.13330640  0.24276057  1
  O  O212  1  0.49717961  0.13988116  0.74972474  1
  O  O213  1  0.49129252  0.63521487  0.25241287  1
  O  O214  1  0.48762774  0.63632393  0.74679843  1
  O  O215  1  0.98912532  0.12682599  0.24132104  1
  O  O216  1  1.01085700  0.14164561  0.75023303  1
  O  O217  1  0.99248184  0.63762261  0.23702290  1
  O  O218  1  1.00136722  0.63474384  0.74108967  1
  O  O219  1  0.37085883  0.25492089  0.00646410  1
  O  O220  1  0.36759814  0.25770761  0.50778955  1
  O  O221  1  0.37827770  0.75729052  0.00823391  1
  O  O222  1  0.36986182  0.75394278  0.50496067  1
  O  O223  1  0.86847773  0.25768338  0.00346659  1
  O  O224  1  0.89290344  0.24730051  0.52193143  1
  O  O225  1  0.88032053  0.76153143  0.00816091  1
  O  O226  1  0.88540998  0.76161912  0.52075841  1
  O  O227  1  0.13667336  0.23609211  0.48588164  1
  O  O228  1  0.12863868  0.23881148  0.99227210  1
  O  O229  1  0.12991700  0.75485754  0.48537587  1
  O  O230  1  0.12612250  0.74450204  0.99183938  1
  O  O231  1  0.59713709  0.24147404  0.49280483  1
  O  O232  1  0.63155626  0.24677731  0.99689072  1
  O  O233  1  0.61382089  0.74890296  0.48985731  1
  O  O234  1  0.58077917  0.73537234  0.99134950  1
  O  O235  1  0.49576456  0.24853532  0.13134667  1
  O  O236  1  0.49100547  0.25128439  0.63466510  1
  O  O237  1  0.48858764  0.76038611  0.13900104  1
  O  O238  1  0.49147131  0.75055814  0.63350919  1
  O  O239  1  0.99662338  0.23812654  0.12791900  1
  O  O240  1  1.01383138  0.25349340  0.64574988  1
  O  O241  1  0.99078204  0.74358397  0.13002326  1
  O  O242  1  1.01742007  0.73884909  0.63062710  1
  O  O243  1  0.01517053  0.24184382  0.36377184  1
  O  O244  1  0.00806161  0.25701203  0.86540681  1
  O  O245  1  0.01136660  0.74562853  0.36386325  1
  O  O246  1  0.00964078  0.76236043  0.86831041  1
  O  O247  1  0.48343504  0.26762510  0.36158081  1
  O  O248  1  0.50655111  0.25488180  0.87013903  1
  O  O249  1  0.50514233  0.75346190  0.36740842  1
  O  O250  1  0.48875592  0.76324990  0.85587451  1
  O  O251  1  0.24790734  0.12761088  0.49159966  1
  O  O252  1  0.24332815  0.13065955  0.99634460  1
  O  O253  1  0.24754880  0.63331071  0.48794745  1
  O  O254  1  0.23521270  0.62995785  1.00529845  1
  O  O255  1  0.75881150  0.14390104  0.51276427  1
  O  O256  1  0.73880263  0.13664426  1.00906714  1
  O  O257  1  0.77655793  0.64966390  0.54554958  1
  O  O258  1  0.74916507  0.62680885  0.98270508  1
  O  O259  1  0.25643019  0.36925489  0.00674571  1
  O  O260  1  0.25622114  0.36195392  0.49425934  1
  O  O261  1  0.25667057  0.87444067  0.00659627  1
  O  O262  1  0.25443930  0.86844698  0.50229246  1
  O  O263  1  0.76071850  0.37090530  0.00628294  1
  O  O264  1  0.74817779  0.36360397  0.51884669  1
  O  O265  1  0.75988643  0.87228700  -0.00079524  1
  O  O266  1  0.76213547  0.87680506  0.50631851  1
  O  O267  1  0.13503381  0.50636828  0.23680891  1
  O  O268  1  0.14159132  0.50337368  0.74851199  1
  O  O269  1  0.12882622  0.99169033  0.24518059  1
  O  O270  1  0.13246788  0.98951934  0.74885963  1
  O  O271  1  0.62114764  0.49945825  0.23742038  1
  O  O272  1  0.63164458  0.49706926  0.74508773  1
  O  O273  1  0.62957535  0.99571054  0.24317305  1
  O  O274  1  0.61868611  1.00294919  0.73700682  1
  O  O275  1  0.37163585  0.00207074  0.25270298  1
  O  O276  1  0.36801634  0.00107680  0.75388751  1
  O  O277  1  0.36583153  0.50717518  0.24978953  1
  O  O278  1  0.36778580  0.51504614  0.75177547  1
  O  O279  1  0.86702831  0.01351746  0.24577676  1
  O  O280  1  0.87176566  -0.00301736  0.76711843  1
  O  O281  1  0.88407748  0.51847778  0.24781779  1
  O  O282  1  0.86828185  0.50415333  0.76196138  1
  O  O283  1  0.14130010  0.35586086  0.36824600  1
  O  O284  1  0.11496816  0.36631848  0.88677339  1
  O  O285  1  0.13060704  0.86670220  0.35645054  1
  O  O286  1  0.11725083  0.87096017  0.86831443  1
  O  O287  1  0.61278616  0.37403550  0.37220968  1
  O  O288  1  0.62365193  0.36488437  0.87742963  1
  O  O289  1  0.62020379  0.86114896  0.37163755  1
  O  O290  1  0.61310001  0.87937931  0.87893049  1
  O  O291  1  0.38148693  0.12954066  0.12878628  1
  O  O292  1  0.37564968  0.13961251  0.62880345  1
  O  O293  1  0.36623112  0.64017569  0.12913667  1
  O  O294  1  0.37336197  0.63697379  0.62689845  1
  O  O295  1  0.88168572  0.13121142  0.12293798  1
  O  O296  1  0.88685690  0.10552357  0.63279132  1
  O  O297  1  0.87970773  0.63094127  0.12764765  1
  O  O298  1  0.89761887  0.62544430  0.62650907  1
  O  O299  1  0.25347274  0.25454212  0.11983332  1
  O  O300  1  0.25419844  0.24446094  0.61205381  1
  O  O301  1  0.25669443  0.76181097  0.12406416  1
  O  O302  1  0.25564626  0.75552228  0.61781866  1
  O  O303  1  0.75437058  0.25995476  0.11452248  1
  O  O304  1  0.74836774  0.26772070  0.64304789  1
  O  O305  1  0.76028769  0.74973712  0.12788502  1
  O  O306  1  0.74541674  0.76690152  0.62881948  1
  O  O307  1  0.24995848  0.23845868  0.37897876  1
  O  O308  1  0.24474806  0.24523816  0.88155702  1
  O  O309  1  0.24079201  0.74486249  0.37416748  1
  O  O310  1  0.23471937  0.75981296  0.87601418  1
  O  O311  1  0.75424601  0.26477647  0.37088883  1
  O  O312  1  0.74381816  0.25838504  0.88787744  1
  O  O313  1  0.73291515  0.74115655  0.37763848  1
  O  O314  1  0.75287408  0.73511393  0.86338368  1
  O  O315  1  0.00658378  0.12458228  0.00494285  1
  O  O316  1  0.01096755  0.11088183  0.49719921  1
  O  O317  1  0.00708919  0.63209419  0.01083126  1
  O  O318  1  0.00738382  0.63264032  0.51657635  1
  O  O319  1  0.50977324  0.12145342  0.00629222  1
  O  O320  1  0.47851227  0.10297491  0.50895294  1
  O  O321  1  0.48622953  0.60582024  0.00633119  1
  O  O322  1  0.48845674  0.60853822  0.50222016  1
  O  O323  1  0.48305867  0.38284241  0.49226008  1
  O  O324  1  0.49157070  0.38391541  1.00149318  1
  O  O325  1  0.49389514  0.88252496  0.49590539  1
  O  O326  1  0.49375777  0.88598868  0.99208016  1
  O  O327  1  1.02136797  0.37946305  0.48550885  1
  O  O328  1  0.98677950  0.36773898  0.99004648  1
  O  O329  1  0.98994382  0.88322056  0.49957389  1
  O  O330  1  0.98997464  0.87794955  0.99061820  1
  O  O331  1  0.49058672  0.49211381  0.38003267  1
  O  O332  1  0.49531679  0.49903641  0.88460518  1
  O  O333  1  0.49590186  0.99018419  0.38119643  1
  O  O334  1  0.49583102  0.99644101  0.87723127  1
  O  O335  1  1.01328791  0.51153371  0.38596440  1
  O  O336  1  0.99264179  0.49380017  0.86876478  1
  O  O337  1  1.00677232  0.99787029  0.38751005  1
  O  O338  1  1.00679786  0.98564585  0.87679390  1
  O  O339  1  -0.00025513  0.01136184  0.12058261  1
  O  O340  1  0.00746597  -0.00222364  0.60846920  1
  O  O341  1  0.01044357  0.50922201  0.12755248  1
  O  O342  1  0.02127540  0.51353183  0.64055348  1
  O  O343  1  0.51164153  0.00430299  0.12056129  1
  O  O344  1  0.51087033  -0.00457739  0.61850750  1
  O  O345  1  0.51609506  0.49270632  0.11918879  1
  O  O346  1  0.50345839  0.49868148  0.61946248  1
  O  O347  1  0.25687013  0.38500272  0.23952493  1
  O  O348  1  0.25897127  0.38994191  0.75146235  1
  O  O349  1  0.24251290  0.87890941  0.24025645  1
  O  O350  1  0.24538657  0.88587359  0.74552281  1
  O  O351  1  0.75491941  0.37566728  0.23307233  1
  O  O352  1  0.75085220  0.38816674  0.74640080  1
  O  O353  1  0.74438479  0.88288809  0.24770957  1
  O  O354  1  0.75076560  0.88027898  0.73779055  1
  O  O355  1  0.25639869  0.11667379  0.25119275  1
  O  O356  1  0.24739460  0.11286977  0.75401589  1
  O  O357  1  0.25317433  0.61991749  0.25200374  1
  O  O358  1  0.26403174  0.62601514  0.75144827  1
  O  O359  1  0.76412670  0.11988960  0.24576075  1
  O  O360  1  0.76103237  0.12956953  0.75277245  1
  O  O361  1  0.76617060  0.62382904  0.25408835  1
  O  O362  1  0.75220937  0.61324505  0.75567582  1
  O  O363  1  0.36882858  0.11424536  0.36473855  1
  O  O364  1  0.36770921  0.11827534  0.87404726  1
  O  O365  1  0.36682416  0.62050877  0.36660563  1
  O  O366  1  0.37786171  0.63188013  0.86445560  1
  O  O367  1  0.88055333  0.12831667  0.36204249  1
  O  O368  1  0.87321690  0.11974165  0.87924558  1
  O  O369  1  0.87738788  0.63493151  0.36122444  1
  O  O370  1  0.87006990  0.62061776  0.87343629  1
  O  O371  1  0.13013697  0.38441747  0.11498885  1
  O  O372  1  0.12308919  0.39041474  0.62538541  1
  O  O373  1  0.13102389  0.87348561  0.13070652  1
  O  O374  1  0.13338644  0.87505105  0.63230020  1
  O  O375  1  0.63552132  0.38496215  0.12754530  1
  O  O376  1  0.63261168  0.38419447  0.63128123  1
  O  O377  1  0.62677060  0.88418493  0.13104708  1
  O  O378  1  0.63629186  0.88905986  0.62001893  1
  O  O379  1  0.11679499  0.23770227  0.25754942  1
  O  O380  1  0.12835856  0.25022050  0.76383117  1
  O  O381  1  0.11625837  0.75640511  0.25103736  1
  O  O382  1  0.12963224  0.76527684  0.75651257  1
  O  O383  1  0.61280214  0.25323724  0.24969396  1
  O  O384  1  0.61652854  0.25182689  0.76013243  1
  O  O385  1  0.61716677  0.75322485  0.25220977  1
  O  O386  1  0.60762331  0.74469141  0.74456194  1
  O  O387  1  0.38214340  0.24575483  0.24168094  1
  O  O388  1  0.37914151  0.25035884  0.74382761  1
  O  O389  1  0.38083686  0.74548867  0.24383631  1
  O  O390  1  0.37561766  0.74286165  0.74199952  1
  O  O391  1  0.88317653  0.23907857  0.24166473  1
  O  O392  1  0.88862431  0.25098328  0.74856662  1
  O  O393  1  0.88004724  0.74641064  0.24065107  1
  O  O394  1  0.86838162  0.74244504  0.71917850  1
  O  O395  1  0.37155173  0.49229595  0.49682442  1
  O  O396  1  0.37798089  0.49098929  1.00306558  1
  O  O397  1  0.37714460  0.98853328  0.49417129  1
  O  O398  1  0.38223789  0.99731266  0.99425321  1
  O  O399  1  0.90207622  0.48624719  0.50860980  1
  O  O400  1  0.87196892  0.49378490  0.98834338  1
  O  O401  1  0.88511950  0.98617601  0.49319079  1
  O  O402  1  0.87288513  0.98004468  1.00360297  1
  O  O403  1  0.12539076  0.01324536  -0.00025379  1
  O  O404  1  0.11856707  0.00246594  0.49720045  1
  O  O405  1  0.12821782  0.50991221  0.00744666  1
  O  O406  1  0.14450084  0.50331091  0.52384656  1
  O  O407  1  0.62365543  0.00952974  0.00657246  1
  O  O408  1  0.61619035  0.00401140  0.50317728  1
  O  O409  1  0.61692751  0.50475997  0.00840859  1
  O  O410  1  0.60635397  0.48680445  0.51023779  1
  O  O411  1  0.36811689  0.37006577  0.11612637  1
  O  O412  1  0.37488797  0.36435510  0.61672535  1
  O  O413  1  0.36777154  0.86805109  0.12052717  1
  O  O414  1  0.36945902  0.86342241  0.62009109  1
  O  O415  1  0.87143317  0.37319344  0.11619363  1
  O  O416  1  0.86910161  0.37773985  0.62966047  1
  O  O417  1  0.87164264  0.86595276  0.11391890  1
  O  O418  1  0.85854637  0.88538992  0.61793444  1
  O  O419  1  0.13629333  0.12440187  0.38088279  1
  O  O420  1  0.13109371  0.13155049  0.88177691  1
  O  O421  1  0.13204918  0.63504009  0.37144767  1
  O  O422  1  0.11690827  0.63610177  0.88462484  1
  O  O423  1  0.60078882  0.13704224  0.38675170  1
  O  O424  1  0.61895041  0.14118798  0.88745942  1
  O  O425  1  0.62068440  0.63728685  0.37349237  1
  O  O426  1  0.63960289  0.62056673  0.87412405  1
