# generated using pymatgen
data_V85Zn86O256
_symmetry_space_group_name_H-M   'P 1'
_cell_length_a   16.94299299
_cell_length_b   16.94450367
_cell_length_c   16.93599286
_cell_angle_alpha   90.03650502
_cell_angle_beta   89.97358347
_cell_angle_gamma   90.05611525
_symmetry_Int_Tables_number   1
_chemical_formula_structural   V85Zn86O256
_chemical_formula_sum   'V85 Zn86 O256'
_cell_volume   4862.16063316
_cell_formula_units_Z   1
loop_
 _symmetry_equiv_pos_site_id
 _symmetry_equiv_pos_as_xyz
  1  'x, y, z'
loop_
 _atom_site_type_symbol
 _atom_site_label
 _atom_site_symmetry_multiplicity
 _atom_site_fract_x
 _atom_site_fract_y
 _atom_site_fract_z
 _atom_site_occupancy
  V  V0  1  0.63643004  0.13284234  0.00523957  1
  V  V1  1  0.12339693  0.26659006  0.87280114  1
  V  V2  1  0.61772583  0.25494881  0.36617681  1
  V  V3  1  0.11883431  0.87647604  0.25224224  1
  V  V4  1  0.12433357  0.75517929  0.38082835  1
  V  V5  1  0.25116807  -0.00175666  0.74815440  1
  V  V6  1  0.75259952  0.12952997  0.85937314  1
  V  V7  1  0.75347155  0.63822439  0.86986538  1
  V  V8  1  0.24539972  0.49754361  0.75179163  1
  V  V9  1  -0.00158785  0.12028685  0.63472094  1
  V  V10  1  0.24955533  0.00078441  0.24927196  1
  V  V11  1  0.86997543  0.00375840  0.85822075  1
  V  V12  1  0.37422518  0.75051995  0.12588531  1
  V  V13  1  0.62468328  0.87642906  0.25247509  1
  V  V14  1  -0.00065511  -0.00019150  0.48389160  1
  V  V15  1  -0.00076569  0.87430365  0.87141518  1
  V  V16  1  0.87854968  0.87781534  0.48846794  1
  V  V17  1  0.12621329  0.87442781  0.74736029  1
  V  V18  1  0.87345888  0.62230429  0.25123530  1
  V  V19  1  0.24659290  0.37685436  0.62936366  1
  V  V20  1  0.87216379  0.12325485  0.26387665  1
  V  V21  1  0.12150233  -0.00182434  0.12316717  1
  V  V22  1  0.75572085  0.87992286  0.62697449  1
  V  V23  1  0.49922713  0.49696980  0.49694179  1
  V  V24  1  0.00580483  0.37481686  0.37712591  1
  V  V25  1  0.12724774  0.25283782  0.37322618  1
  V  V26  1  0.24786656  0.87372828  0.12509691  1
  V  V27  1  0.25020271  0.12467803  0.87470364  1
  V  V28  1  0.74850105  0.62197329  0.37271722  1
  V  V29  1  0.75287583  0.00267217  0.26412865  1
  V  V30  1  -0.00052851  0.61422358  0.12641181  1
  V  V31  1  0.49582740  -0.00559193  0.50366616  1
  V  V32  1  0.23160123  0.49781512  0.24630949  1
  V  V33  1  0.25176083  0.62104279  0.87643133  1
  V  V34  1  0.63391496  0.64041847  -0.00418131  1
  V  V35  1  0.50631121  0.87290843  0.87779695  1
  V  V36  1  0.25428342  0.87395704  0.61035152  1
  V  V37  1  0.74875563  0.24193480  0.49494662  1
  V  V38  1  0.50371065  0.62552731  0.12204366  1
  V  V39  1  0.38417260  0.12802580  0.23831590  1
  V  V40  1  0.87025239  0.74956943  0.12058701  1
  V  V41  1  -0.00465408  0.48755174  -0.00144750  1
  V  V42  1  0.62337621  0.75103138  0.37635132  1
  V  V43  1  -0.00049397  0.73385512  0.74643892  1
  V  V44  1  0.62528247  0.62479727  0.49969869  1
  V  V45  1  0.86693779  0.87347756  -0.00122738  1
  V  V46  1  0.62455035  0.00051768  0.12487109  1
  V  V47  1  0.12412860  0.75015037  0.87369447  1
  V  V48  1  -0.00153103  0.75418202  0.25426779  1
  V  V49  1  0.24846656  0.62760509  0.38129008  1
  V  V50  1  0.37360558  -0.00686826  0.37955039  1
  V  V51  1  0.37774567  0.37884512  0.00838587  1
  V  V52  1  0.50035647  0.62659837  0.62632936  1
  V  V53  1  0.62582876  0.12165076  0.49251906  1
  V  V54  1  0.63534597  0.49329871  0.12392157  1
  V  V55  1  0.37719465  0.00000340  0.87583013  1
  V  V56  1  0.87418886  0.23906554  0.63356388  1
  V  V57  1  -0.00011079  0.25334674  0.24705872  1
  V  V58  1  0.38040929  0.25043390  0.63099495  1
  V  V59  1  0.38517673  0.12979858  0.75505846  1
  V  V60  1  0.37671806  0.62768220  0.75113926  1
  V  V61  1  0.63195823  0.87607963  0.75359652  1
  V  V62  1  0.37450120  0.75567125  0.61274381  1
  V  V63  1  0.74981883  0.37389213  0.62693072  1
  V  V64  1  -0.00523139  -0.00050797  -0.00169080  1
  V  V65  1  0.12072078  0.62329429  0.00513582  1
  V  V66  1  0.37602618  0.87558985  0.00049018  1
  V  V67  1  0.24819679  0.74949467  -0.00021914  1
  V  V68  1  0.61517657  0.36815312  0.75067061  1
  V  V69  1  0.12273382  0.62847021  0.50686247  1
  V  V70  1  0.24889505  0.25150995  0.49997342  1
  V  V71  1  0.85483804  0.36824185  -0.00434705  1
  V  V72  1  0.87323771  0.49844341  0.86772500  1
  V  V73  1  0.62784648  0.00228500  0.63078048  1
  V  V74  1  0.87912668  0.74084463  0.62723555  1
  V  V75  1  0.12255477  0.12611326  -0.00312260  1
  V  V76  1  0.85800480  0.24835420  0.11921072  1
  V  V77  1  -0.00115379  0.50590301  0.50785534  1
  V  V78  1  0.62512037  0.50042269  0.62649127  1
  V  V79  1  0.25249104  0.12711642  0.37445489  1
  V  V80  1  0.25799613  0.24940819  0.00961403  1
  V  V81  1  0.87683696  0.37313510  0.50169105  1
  V  V82  1  0.37577921  0.37391447  0.49758146  1
  V  V83  1  0.37301267  0.62389552  0.24990321  1
  V  V84  1  0.50570253  0.75090029  0.75252836  1
  Zn  Zn85  1  -0.00029101  0.25847719  0.75997801  1
  Zn  Zn86  1  0.47891990  0.26682116  0.19712789  1
  Zn  Zn87  1  0.49892522  0.75187862  0.25116879  1
  Zn  Zn88  1  0.49439145  0.87165320  0.38029665  1
  Zn  Zn89  1  -0.00621672  0.12552908  0.12382923  1
  Zn  Zn90  1  0.38017574  0.49793476  0.87463956  1
  Zn  Zn91  1  0.72932327  0.47398463  0.25789754  1
  Zn  Zn92  1  0.50309104  0.12819283  0.62853484  1
  Zn  Zn93  1  0.74875625  0.87309692  0.12435961  1
  Zn  Zn94  1  0.62377130  0.24818006  0.87370837  1
  Zn  Zn95  1  0.75229572  0.75017548  0.50155705  1
  Zn  Zn96  1  0.50383172  0.50244202  -0.00627256  1
  Zn  Zn97  1  0.11857830  0.50360112  0.63208096  1
  Zn  Zn98  1  0.87102912  0.49586716  0.37480211  1
  Zn  Zn99  1  0.12490644  0.00054275  0.62180750  1
  Zn  Zn100  1  0.12302612  0.12638873  0.50234975  1
  Zn  Zn101  1  0.37308917  0.49828932  0.37233292  1
  Zn  Zn102  1  0.50306652  0.37664575  0.35669026  1
  Zn  Zn103  1  0.50244327  0.00246845  0.00819452  1
  Zn  Zn104  1  0.75228321  0.50551677  0.74860803  1
  Zn  Zn105  1  0.24018600  0.37035245  0.13636948  1
  Zn  Zn106  1  0.49402003  0.36770059  0.87360013  1
  Zn  Zn107  1  0.18404117  0.18460928  0.18876928  1
  Zn  Zn108  1  0.18769672  0.18691137  0.68821379  1
  Zn  Zn109  1  0.18501289  0.68523802  0.19036109  1
  Zn  Zn110  1  0.19126685  0.69052087  0.68724938  1
  Zn  Zn111  1  0.68782706  0.18465106  0.19064463  1
  Zn  Zn112  1  0.68878713  0.18653840  0.68620410  1
  Zn  Zn113  1  0.68797422  0.68692642  0.18827630  1
  Zn  Zn114  1  0.69038184  0.69165867  0.68826825  1
  Zn  Zn115  1  0.31875262  0.31487389  0.30756715  1
  Zn  Zn116  1  0.31141583  0.31288098  0.82080785  1
  Zn  Zn117  1  0.30711485  0.81147069  0.31385242  1
  Zn  Zn118  1  0.31572528  0.81170596  0.80993262  1
  Zn  Zn119  1  0.81169016  0.30349347  0.31713320  1
  Zn  Zn120  1  0.81101980  0.31488505  0.81203853  1
  Zn  Zn121  1  0.80752625  0.80905306  0.31098030  1
  Zn  Zn122  1  0.81631904  0.81403416  0.80860607  1
  Zn  Zn123  1  0.18691769  0.44156320  0.43827473  1
  Zn  Zn124  1  0.16596602  0.41971250  0.98335090  1
  Zn  Zn125  1  0.18376181  0.93933410  0.43585172  1
  Zn  Zn126  1  0.18672109  0.93750136  0.93624315  1
  Zn  Zn127  1  0.68670151  0.43343943  0.43895115  1
  Zn  Zn128  1  0.68493321  0.44727482  0.93450392  1
  Zn  Zn129  1  0.68830908  0.93592997  0.44164043  1
  Zn  Zn130  1  0.69148029  0.94172432  0.93520897  1
  Zn  Zn131  1  0.31098129  0.06026248  0.06073799  1
  Zn  Zn132  1  0.31318499  0.06478773  0.56401786  1
  Zn  Zn133  1  0.31125980  0.55916693  0.06469360  1
  Zn  Zn134  1  0.31250532  0.56413448  0.56371403  1
  Zn  Zn135  1  0.80725376  0.06161176  0.06618305  1
  Zn  Zn136  1  0.81384234  0.05962384  0.56033477  1
  Zn  Zn137  1  0.81139393  0.56167740  0.05811996  1
  Zn  Zn138  1  0.81140306  0.56059733  0.55961139  1
  Zn  Zn139  1  0.43533366  0.44486226  0.18217164  1
  Zn  Zn140  1  0.43399264  0.44072617  0.68745716  1
  Zn  Zn141  1  0.43980370  0.94012681  0.19143263  1
  Zn  Zn142  1  0.43903591  0.93724770  0.68791166  1
  Zn  Zn143  1  0.89768789  0.41731541  0.20108324  1
  Zn  Zn144  1  0.93970836  0.43356886  0.69075823  1
  Zn  Zn145  1  0.93438999  0.93923164  0.18835665  1
  Zn  Zn146  1  0.94241816  0.93266878  0.68180856  1
  Zn  Zn147  1  0.06273821  0.06837999  0.31051245  1
  Zn  Zn148  1  0.06172660  0.06369651  0.81104124  1
  Zn  Zn149  1  0.05716411  0.56527055  0.32007697  1
  Zn  Zn150  1  0.06478241  0.55698712  0.82082816  1
  Zn  Zn151  1  0.56042025  0.06231547  0.31399500  1
  Zn  Zn152  1  0.56436934  0.06169098  0.81793071  1
  Zn  Zn153  1  0.55899941  0.56210264  0.30919574  1
  Zn  Zn154  1  0.56705180  0.55875667  0.81574262  1
  Zn  Zn155  1  0.43861649  0.18278088  0.43864903  1
  Zn  Zn156  1  0.46894995  0.20960593  0.98744985  1
  Zn  Zn157  1  0.43835022  0.68480216  0.43618735  1
  Zn  Zn158  1  0.44049109  0.68927133  0.93833728  1
  Zn  Zn159  1  0.94075406  0.18861721  0.44380923  1
  Zn  Zn160  1  0.93600527  0.18880091  0.93485808  1
  Zn  Zn161  1  0.93781086  0.69039615  0.43821417  1
  Zn  Zn162  1  0.93475460  0.68585212  0.93549823  1
  Zn  Zn163  1  0.06052428  0.31070650  0.06874636  1
  Zn  Zn164  1  0.04700769  0.32639204  0.59489904  1
  Zn  Zn165  1  0.05533353  0.80979812  0.06434974  1
  Zn  Zn166  1  0.06022079  0.81508965  0.56322614  1
  Zn  Zn167  1  0.57559385  0.31517416  0.05708702  1
  Zn  Zn168  1  0.56268910  0.31095195  0.56133944  1
  Zn  Zn169  1  0.56318032  0.81369505  0.06536025  1
  Zn  Zn170  1  0.56384208  0.81437671  0.56427837  1
  O  O171  1  0.12200913  0.11714273  0.11206356  1
  O  O172  1  0.11652808  0.12341679  0.62153548  1
  O  O173  1  0.11363723  0.63274199  0.11596835  1
  O  O174  1  0.13384681  0.62748047  0.61014344  1
  O  O175  1  0.63809795  0.11568520  0.11290595  1
  O  O176  1  0.62376434  0.11729546  0.61861936  1
  O  O177  1  0.62024398  0.62680679  0.11512839  1
  O  O178  1  0.62139773  0.62152293  0.61933320  1
  O  O179  1  0.37771971  0.37461493  0.38891256  1
  O  O180  1  0.37539480  0.37874897  0.88787410  1
  O  O181  1  0.37267096  0.88850627  0.36966254  1
  O  O182  1  0.38149641  0.88028564  0.88046994  1
  O  O183  1  0.88640800  0.36894990  0.39092207  1
  O  O184  1  0.87060091  0.38114262  0.88584817  1
  O  O185  1  0.87148923  0.86513661  0.39029686  1
  O  O186  1  0.87929390  0.88511715  0.87932387  1
  O  O187  1  0.25422665  0.00847856  0.37150628  1
  O  O188  1  0.25671353  0.00232560  0.86816462  1
  O  O189  1  0.25112854  0.50943813  0.36619962  1
  O  O190  1  0.25168571  0.51555747  0.86970202  1
  O  O191  1  0.74579810  -0.00270455  0.36397435  1
  O  O192  1  0.76560482  0.00339732  0.87003643  1
  O  O193  1  0.74928583  0.50641497  0.37288139  1
  O  O194  1  0.75815920  0.51032297  0.87161320  1
  O  O195  1  0.24598332  0.50913373  0.14460117  1
  O  O196  1  0.25206725  0.49463588  0.63480265  1
  O  O197  1  0.24113030  0.99244722  0.12782538  1
  O  O198  1  0.25017548  0.99319530  0.63252608  1
  O  O199  1  0.73766662  0.50975384  0.12985522  1
  O  O200  1  0.74421455  0.49131103  0.62439412  1
  O  O201  1  0.74121741  0.99432615  0.13844544  1
  O  O202  1  0.74329444  0.98823452  0.62080012  1
  O  O203  1  -0.01174996  0.36098215  0.26230686  1
  O  O204  1  0.01605406  0.35541774  0.70497947  1
  O  O205  1  0.00584898  0.86672988  0.24445336  1
  O  O206  1  0.00880162  0.86832481  0.75414986  1
  O  O207  1  0.47989859  0.36628696  0.24661394  1
  O  O208  1  0.51270062  0.37743100  0.74534260  1
  O  O209  1  0.51205878  0.87364890  0.25647286  1
  O  O210  1  0.50888652  0.86914376  0.75610947  1
  O  O211  1  0.48458576  0.12367544  0.25306674  1
  O  O212  1  0.48815138  0.12022604  0.75069671  1
  O  O213  1  0.49036047  0.62965492  0.24201476  1
  O  O214  1  0.49965685  0.63328186  0.74801392  1
  O  O215  1  0.99005650  0.13371058  0.24837217  1
  O  O216  1  1.00438333  0.13275744  0.73789610  1
  O  O217  1  0.99552891  0.63336412  0.24449089  1
  O  O218  1  1.00872125  0.63513250  0.75353777  1
  O  O219  1  0.36609261  0.26108371  0.00070558  1
  O  O220  1  0.36972996  0.25557325  0.50666277  1
  O  O221  1  0.36865230  0.75614838  0.00611543  1
  O  O222  1  0.38279964  0.74808607  0.51336911  1
  O  O223  1  0.87431955  0.25971722  0.00163757  1
  O  O224  1  0.86531930  0.25454379  0.50460779  1
  O  O225  1  0.88499648  0.76111381  0.00893703  1
  O  O226  1  0.87823011  0.76107005  0.51023279  1
  O  O227  1  0.13262068  0.24795291  0.48504186  1
  O  O228  1  0.12968846  0.23949955  0.99090157  1
  O  O229  1  0.11522395  0.74562060  0.48938138  1
  O  O230  1  0.12681632  0.74330966  0.99451946  1
  O  O231  1  0.63116288  0.24092784  0.49782151  1
  O  O232  1  0.64227642  0.23490104  0.99720980  1
  O  O233  1  0.62621692  0.74351370  0.49424590  1
  O  O234  1  0.62601118  0.73941141  1.00240340  1
  O  O235  1  0.50919240  0.23502904  0.09747873  1
  O  O236  1  0.48421155  0.24922508  0.62068523  1
  O  O237  1  0.49340329  0.74172760  0.12719474  1
  O  O238  1  0.49565673  0.74622825  0.63219072  1
  O  O239  1  0.99453217  0.24686455  0.13447992  1
  O  O240  1  0.98519583  0.22976215  0.60590930  1
  O  O241  1  0.98967363  0.74247893  0.13554696  1
  O  O242  1  0.98829532  0.75283636  0.63160214  1
  O  O243  1  0.00857441  0.25459553  0.37254022  1
  O  O244  1  0.01767672  0.24564687  0.87522195  1
  O  O245  1  0.00768877  0.74523455  0.36186010  1
  O  O246  1  0.00293313  0.75460770  0.86661530  1
  O  O247  1  0.51446061  0.25259785  0.38539203  1
  O  O248  1  0.51131102  0.25638979  0.89031787  1
  O  O249  1  0.51083128  0.75040844  0.37437594  1
  O  O250  1  0.49641304  0.76394644  0.86721605  1
  O  O251  1  0.24992747  0.13262818  0.49150587  1
  O  O252  1  0.24390208  0.12916101  0.99535414  1
  O  O253  1  0.24361337  0.61989580  0.48790012  1
  O  O254  1  0.24217630  0.62939446  0.99579327  1
  O  O255  1  0.74144583  0.13190430  0.50470150  1
  O  O256  1  0.74084614  0.11046695  0.98520453  1
  O  O257  1  0.74389877  0.62601997  0.48864100  1
  O  O258  1  0.74053022  0.62690272  0.99128672  1
  O  O259  1  0.26408123  0.36251051  -0.00408659  1
  O  O260  1  0.25989916  0.37212954  0.50374200  1
  O  O261  1  0.25402375  0.86910173  0.00500848  1
  O  O262  1  0.24797287  0.88078462  0.51131337  1
  O  O263  1  0.75669821  0.37691296  -0.00353745  1
  O  O264  1  0.75525524  0.36748205  0.50888062  1
  O  O265  1  0.76392821  0.87789186  0.00028616  1
  O  O266  1  0.76239264  0.87347525  0.50751562  1
  O  O267  1  0.13311244  0.50588249  0.25640125  1
  O  O268  1  0.13995389  0.50834755  0.74876876  1
  O  O269  1  0.12850903  0.99664240  0.24452986  1
  O  O270  1  0.13373878  0.99340286  0.74885159  1
  O  O271  1  0.62290362  0.50724352  0.23206111  1
  O  O272  1  0.62839676  0.49015978  0.74033117  1
  O  O273  1  0.63110188  0.99529311  0.24853610  1
  O  O274  1  0.61919156  0.99150899  0.73780507  1
  O  O275  1  0.36811728  0.00671872  0.25838485  1
  O  O276  1  0.36858527  0.00492038  0.75519311  1
  O  O277  1  0.36933480  0.51585195  0.25116336  1
  O  O278  1  0.36611103  0.51096946  0.75129571  1
  O  O279  1  0.86996627  0.01392835  0.24758751  1
  O  O280  1  0.88256136  -0.00499050  0.76092492  1
  O  O281  1  0.88683974  0.51929981  0.25577281  1
  O  O282  1  0.87427792  0.49244922  0.76242289  1
  O  O283  1  0.11351497  0.36892173  0.38044332  1
  O  O284  1  0.13027586  0.36475331  0.88288502  1
  O  O285  1  0.12956278  0.86520974  0.36652432  1
  O  O286  1  0.12018523  0.86905508  0.86840212  1
  O  O287  1  0.62240117  0.36080025  0.37612620  1
  O  O288  1  0.63177224  0.37695091  0.85652208  1
  O  O289  1  0.62451634  0.86614359  0.37167627  1
  O  O290  1  0.61967381  0.88191029  0.86522747  1
  O  O291  1  0.37207325  0.11407691  0.13985068  1
  O  O292  1  0.37478386  0.13390833  0.63594969  1
  O  O293  1  0.38150495  0.63052276  0.12962980  1
  O  O294  1  0.38113381  0.63341613  0.63143509  1
  O  O295  1  0.87510108  0.13351944  0.12706048  1
  O  O296  1  0.88102328  0.12844300  0.62338503  1
  O  O297  1  0.87889405  0.63109630  0.13088560  1
  O  O298  1  0.86712556  0.64237229  0.61851816  1
  O  O299  1  0.24170736  0.24857450  0.11329401  1
  O  O300  1  0.25782018  0.25747167  0.62110318  1
  O  O301  1  0.25329854  0.75402630  0.11994457  1
  O  O302  1  0.26267195  0.76199883  0.63086608  1
  O  O303  1  0.75921805  0.25014934  0.12921808  1
  O  O304  1  0.75567356  0.25422658  0.61614741  1
  O  O305  1  0.76615245  0.75233606  0.13215712  1
  O  O306  1  0.76058527  0.76076186  0.62386995  1
  O  O307  1  0.24612038  0.24554112  0.37540105  1
  O  O308  1  0.24112852  0.24165188  0.88641896  1
  O  O309  1  0.23732303  0.74036365  0.37111603  1
  O  O310  1  0.24624740  0.74264919  0.87960543  1
  O  O311  1  0.73684882  0.25224563  0.38784130  1
  O  O312  1  0.74971754  0.23336231  0.86679456  1
  O  O313  1  0.73820649  0.74200378  0.37841099  1
  O  O314  1  0.75927731  0.73761633  0.87269040  1
  O  O315  1  0.00605895  0.11618130  -0.00170873  1
  O  O316  1  -0.00107197  0.10937766  0.50351233  1
  O  O317  1  0.00431870  0.62514842  0.00896786  1
  O  O318  1  0.00878371  0.61702675  0.49236686  1
  O  O319  1  0.53235468  0.11238334  -0.01264712  1
  O  O320  1  0.50786165  0.11356972  0.50480545  1
  O  O321  1  0.51171414  0.62719082  0.00467270  1
  O  O322  1  0.50471935  0.61388419  0.50384586  1
  O  O323  1  0.49435495  0.38661599  0.50383135  1
  O  O324  1  0.48639630  0.38146717  1.00597538  1
  O  O325  1  0.50555162  0.88937020  0.49900234  1
  O  O326  1  0.49606518  0.87612626  0.99288392  1
  O  O327  1  0.99280776  0.38010844  0.49942354  1
  O  O328  1  0.99683415  0.38684879  0.99806461  1
  O  O329  1  0.98865652  0.88681304  0.50339258  1
  O  O330  1  0.99420621  0.88229138  0.99136595  1
  O  O331  1  0.49709484  0.49690595  0.38295616  1
  O  O332  1  0.49933315  0.49139123  0.87665066  1
  O  O333  1  0.49011254  0.99884767  0.38382971  1
  O  O334  1  0.49316074  0.98688265  0.87365200  1
  O  O335  1  0.99673900  0.48991722  0.38585283  1
  O  O336  1  0.98510417  0.50991849  0.88689269  1
  O  O337  1  1.00240203  1.00210792  0.38493797  1
  O  O338  1  0.99029732  0.99737865  0.87984077  1
  O  O339  1  0.00405911  0.00096519  0.11478498  1
  O  O340  1  0.00156800  0.00778436  0.61759935  1
  O  O341  1  -0.01048407  0.51323253  0.11603684  1
  O  O342  1  -0.00030192  0.50090147  0.61246030  1
  O  O343  1  0.51817962  -0.00471186  0.12815273  1
  O  O344  1  0.50806520  0.00153913  0.61998046  1
  O  O345  1  0.50721766  0.51609851  0.12080130  1
  O  O346  1  0.50407722  0.50803570  0.61859580  1
  O  O347  1  0.25220316  0.39260623  0.25243598  1
  O  O348  1  0.25862203  0.38631571  0.74284578  1
  O  O349  1  0.24126213  0.88124001  0.24340694  1
  O  O350  1  0.24675719  0.88520017  0.74795400  1
  O  O351  1  0.79473390  0.38650626  0.24704545  1
  O  O352  1  0.74404483  0.37567716  0.73577947  1
  O  O353  1  0.74015859  0.88102051  0.25110823  1
  O  O354  1  0.73996065  0.87105985  0.74332805  1
  O  O355  1  0.25474161  0.11835821  0.25659166  1
  O  O356  1  0.25524473  0.11229442  0.75341563  1
  O  O357  1  0.25300468  0.61981989  0.25982518  1
  O  O358  1  0.25682639  0.62380230  0.75829867  1
  O  O359  1  0.76376376  0.11819964  0.25101149  1
  O  O360  1  0.74797682  0.11998498  0.75988839  1
  O  O361  1  0.75660989  0.62666406  0.26181307  1
  O  O362  1  0.74254841  0.62442294  0.76492186  1
  O  O363  1  0.36556476  0.11765913  0.36953387  1
  O  O364  1  0.36622211  0.11486000  0.86804344  1
  O  O365  1  0.36624768  0.62638371  0.36749166  1
  O  O366  1  0.36806959  0.62784938  0.87006494  1
  O  O367  1  0.87774512  0.13247622  0.36228354  1
  O  O368  1  0.86618652  0.11303753  0.87640088  1
  O  O369  1  0.86488019  0.62694454  0.37017981  1
  O  O370  1  0.86038982  0.61623032  0.88216393  1
  O  O371  1  0.13689776  0.38649492  0.09119229  1
  O  O372  1  0.14580478  0.38238301  0.61143866  1
  O  O373  1  0.12718166  0.87841388  0.12995655  1
  O  O374  1  0.13480983  0.87500546  0.63183505  1
  O  O375  1  0.62789142  0.39424590  0.11918399  1
  O  O376  1  0.63079058  0.37843783  0.63050952  1
  O  O377  1  0.62833516  0.87846647  0.13603625  1
  O  O378  1  0.63433518  0.88133207  0.63112387  1
  O  O379  1  0.11489003  0.24471571  0.26157278  1
  O  O380  1  0.13386712  0.24633713  0.77134423  1
  O  O381  1  0.11657938  0.75545203  0.25654898  1
  O  O382  1  0.12013882  0.75556828  0.75404700  1
  O  O383  1  0.62253466  0.24026998  0.26627355  1
  O  O384  1  0.62685354  0.26473954  0.74605317  1
  O  O385  1  0.62498041  0.75810672  0.25836329  1
  O  O386  1  0.61333725  0.76070886  0.74341284  1
  O  O387  1  0.37238994  0.23307289  0.24757921  1
  O  O388  1  0.36506291  0.23992439  0.74451100  1
  O  O389  1  0.37231759  0.74098394  0.24460430  1
  O  O390  1  0.38829509  0.74631792  0.74406158  1
  O  O391  1  0.87988981  0.23738334  0.24234462  1
  O  O392  1  0.87741306  0.25503024  0.73624354  1
  O  O393  1  0.88129363  0.74210547  0.24673910  1
  O  O394  1  0.88481252  0.75397043  0.73620775  1
  O  O395  1  0.38210408  0.49278092  0.49938832  1
  O  O396  1  0.37454912  0.49167531  0.99754679  1
  O  O397  1  0.38336504  1.00684202  0.49245760  1
  O  O398  1  0.37923366  0.99345634  0.99454683  1
  O  O399  1  0.87988557  0.49078181  0.49762957  1
  O  O400  1  0.87678849  0.48822886  0.99387456  1
  O  O401  1  0.88424418  0.98746984  0.49928671  1
  O  O402  1  0.88395859  0.99339838  0.99665669  1
  O  O403  1  0.11358731  0.00310561  0.00135453  1
  O  O404  1  0.11045330  0.00048587  0.50040666  1
  O  O405  1  0.10987824  0.51892052  -0.01308661  1
  O  O406  1  0.11642952  0.51073012  0.50123449  1
  O  O407  1  0.62872997  -0.00257683  0.01270957  1
  O  O408  1  0.62058341  0.00532311  0.50901874  1
  O  O409  1  0.62492658  0.51328269  0.01044431  1
  O  O410  1  0.61788656  0.50324063  0.50580909  1
  O  O411  1  0.36133437  0.38403369  0.11192056  1
  O  O412  1  0.36862303  0.37009639  0.61687935  1
  O  O413  1  0.37019139  0.87128118  0.12167947  1
  O  O414  1  0.36721726  0.86744211  0.63020910  1
  O  O415  1  0.88061857  0.36233345  0.10250851  1
  O  O416  1  0.86632356  0.36758207  0.61536423  1
  O  O417  1  0.87617421  0.86805565  0.11577894  1
  O  O418  1  0.86941646  0.86909519  0.61804093  1
  O  O419  1  0.13785047  0.13143010  0.37544035  1
  O  O420  1  0.13224205  0.11882023  0.88644028  1
  O  O421  1  0.13053385  0.63386007  0.38378751  1
  O  O422  1  0.13335224  0.63399572  0.88167688  1
  O  O423  1  0.62047658  0.13190539  0.38778126  1
  O  O424  1  0.64202657  0.12028575  0.87780514  1
  O  O425  1  0.62933711  0.63044693  0.37771039  1
  O  O426  1  0.63703521  0.62329126  0.88729302  1
