# generated using pymatgen
data_V85Zn86O256
_symmetry_space_group_name_H-M   'P 1'
_cell_length_a   16.93503059
_cell_length_b   16.93287256
_cell_length_c   16.92978189
_cell_angle_alpha   90.01175762
_cell_angle_beta   89.95967659
_cell_angle_gamma   90.01538695
_symmetry_Int_Tables_number   1
_chemical_formula_structural   V85Zn86O256
_chemical_formula_sum   'V85 Zn86 O256'
_cell_volume   4854.76101770
_cell_formula_units_Z   1
loop_
 _symmetry_equiv_pos_site_id
 _symmetry_equiv_pos_as_xyz
  1  'x, y, z'
loop_
 _atom_site_type_symbol
 _atom_site_label
 _atom_site_symmetry_multiplicity
 _atom_site_fract_x
 _atom_site_fract_y
 _atom_site_fract_z
 _atom_site_occupancy
  V  V0  1  0.25107251  0.13845716  0.87290405  1
  V  V1  1  0.24938372  0.87119545  0.11490325  1
  V  V2  1  0.12570212  0.37171041  0.75548055  1
  V  V3  1  0.87698830  -0.00254022  0.38747978  1
  V  V4  1  0.75311410  0.75247017  0.00353773  1
  V  V5  1  -0.00868927  0.74810511  0.75392977  1
  V  V6  1  0.12575419  0.00182308  0.11769902  1
  V  V7  1  0.49487008  0.12150245  0.62903644  1
  V  V8  1  0.63258104  0.49588643  0.62190223  1
  V  V9  1  0.74511111  0.75015966  0.49898411  1
  V  V10  1  0.49564503  0.24838141  0.74741984  1
  V  V11  1  0.87864135  0.12135414  0.75606342  1
  V  V12  1  0.62224612  0.00008256  0.62068055  1
  V  V13  1  0.37611683  0.62254982  0.24948542  1
  V  V14  1  0.49888164  0.75691506  0.25614051  1
  V  V15  1  0.12992770  0.14231367  -0.00510576  1
  V  V16  1  0.24798151  0.50247418  0.74768855  1
  V  V17  1  0.12398996  0.87755544  0.25016020  1
  V  V18  1  0.63471988  0.62140371  -0.00438544  1
  V  V19  1  0.00334409  0.12254791  0.61344422  1
  V  V20  1  0.12668224  0.87464531  0.75113256  1
  V  V21  1  0.25375079  0.00066695  0.25058037  1
  V  V22  1  0.74675148  0.13051078  0.37637318  1
  V  V23  1  0.50097368  0.75159665  0.75095812  1
  V  V24  1  -0.00074050  0.37577251  0.37546305  1
  V  V25  1  0.24742199  0.49510404  0.23867027  1
  V  V26  1  0.63521234  0.37111433  0.74501020  1
  V  V27  1  0.87520745  0.50224557  0.37633794  1
  V  V28  1  0.62100646  0.24267780  0.87630076  1
  V  V29  1  0.50529469  0.62325439  0.61904659  1
  V  V30  1  0.37734994  0.00411233  0.88076205  1
  V  V31  1  0.50123202  0.25140707  0.25901826  1
  V  V32  1  0.87256356  0.62616683  0.25051879  1
  V  V33  1  -0.00146834  0.75280956  0.25205494  1
  V  V34  1  0.75630695  -0.00466605  0.75181932  1
  V  V35  1  0.62524180  0.88112959  0.74810431  1
  V  V36  1  0.37315350  0.74866289  0.11469486  1
  V  V37  1  0.50384075  0.62571877  0.12437087  1
  V  V38  1  0.86848478  0.25113144  0.62726761  1
  V  V39  1  0.87853718  0.75456897  0.61795636  1
  V  V40  1  0.12359510  0.75084915  0.37562074  1
  V  V41  1  0.50327237  0.88035154  0.88523433  1
  V  V42  1  0.35641653  0.37680165  0.00225969  1
  V  V43  1  0.74522706  0.24690866  0.00128615  1
  V  V44  1  0.36511779  0.25814393  0.12283390  1
  V  V45  1  0.12212558  0.24827925  0.38570703  1
  V  V46  1  0.74028929  0.62669367  0.37820498  1
  V  V47  1  0.12382891  0.00181323  0.61431574  1
  V  V48  1  0.37965104  0.87932234  0.48244706  1
  V  V49  1  0.62345035  0.13370625  0.49813370  1
  V  V50  1  0.62661582  0.87707449  0.25195158  1
  V  V51  1  0.24451222  0.12207239  0.37958068  1
  V  V52  1  0.37179458  0.24531561  0.62439244  1
  V  V53  1  0.74967271  0.11991029  0.87964432  1
  V  V54  1  0.74914062  -0.00262741  0.24067027  1
  V  V55  1  0.37571639  0.75487173  0.62475324  1
  V  V56  1  0.00075922  0.12523104  0.12334255  1
  V  V57  1  -0.01081460  0.88109799  0.87700275  1
  V  V58  1  0.87224926  0.76011226  0.12745488  1
  V  V59  1  0.37627343  0.36706311  0.49841306  1
  V  V60  1  0.37649178  0.49075930  0.37404364  1
  V  V61  1  0.37821747  0.50087780  0.87288116  1
  V  V62  1  0.13223408  0.74999765  0.88536629  1
  V  V63  1  0.37681401  0.62484334  0.74933757  1
  V  V64  1  0.63666489  0.74588989  0.86994101  1
  V  V65  1  -0.00185258  0.87934196  0.38938980  1
  V  V66  1  0.25430796  0.00309672  0.75206723  1
  V  V67  1  0.75620549  0.87893179  0.61659408  1
  V  V68  1  0.25238800  0.74866828  0.50002114  1
  V  V69  1  0.37498667  0.12348923  0.24602569  1
  V  V70  1  0.00048253  0.25096468  0.25043860  1
  V  V71  1  0.50322763  0.49806565  0.49522832  1
  V  V72  1  0.74381534  0.37517297  0.12486049  1
  V  V73  1  0.87485380  0.12391719  0.24964087  1
  V  V74  1  0.12396722  0.62150229  0.50201604  1
  V  V75  1  0.86971941  0.37550832  0.50545026  1
  V  V76  1  0.62217530  0.37169692  0.26529685  1
  V  V77  1  0.24940050  0.62143048  0.37412693  1
  V  V78  1  0.00572010  0.62028005  0.12837557  1
  V  V79  1  -0.00412832  0.62252041  0.62968882  1
  V  V80  1  0.00671761  0.50059444  0.00097021  1
  V  V81  1  0.00448781  0.24827069  0.75914105  1
  V  V82  1  0.87293403  0.37886888  -0.00375553  1
  V  V83  1  0.50278182  0.49287939  -0.00040024  1
  V  V84  1  0.12688887  0.37786391  0.24021862  1
  Zn  Zn85  1  0.12367672  0.49839792  0.62761456  1
  Zn  Zn86  1  0.87073222  0.88585747  0.00190025  1
  Zn  Zn87  1  0.37745254  0.87791484  0.00146714  1
  Zn  Zn88  1  0.62587065  0.49781026  0.12644990  1
  Zn  Zn89  1  0.25575375  0.63245808  0.88175759  1
  Zn  Zn90  1  0.87331478  0.51746322  0.86915517  1
  Zn  Zn91  1  0.74772398  0.50001385  0.24912777  1
  Zn  Zn92  1  0.50486188  -0.01009271  0.47747936  1
  Zn  Zn93  1  0.61699152  0.75495232  0.38227703  1
  Zn  Zn94  1  0.00155597  0.37520759  0.87628744  1
  Zn  Zn95  1  0.24668197  0.37311806  0.62267013  1
  Zn  Zn96  1  -0.00655770  0.00832359  -0.01029585  1
  Zn  Zn97  1  0.50077627  0.37399382  0.87278630  1
  Zn  Zn98  1  0.50616659  0.12611965  0.11059816  1
  Zn  Zn99  1  0.61293736  -0.00093431  0.10861417  1
  Zn  Zn100  1  0.75179102  0.51242322  0.75768902  1
  Zn  Zn101  1  0.25245708  0.87918536  0.62345277  1
  Zn  Zn102  1  0.74491794  0.25552182  0.50175608  1
  Zn  Zn103  1  0.87344328  0.25101212  0.12571737  1
  Zn  Zn104  1  0.24703611  0.24584464  0.50157922  1
  Zn  Zn105  1  0.00011210  0.49848415  0.50366062  1
  Zn  Zn106  1  0.13493258  0.62362848  0.01200404  1
  Zn  Zn107  1  0.18538758  0.19020881  0.18923317  1
  Zn  Zn108  1  0.18565662  0.18629434  0.68791320  1
  Zn  Zn109  1  0.18971825  0.68839557  0.18977088  1
  Zn  Zn110  1  0.18680259  0.68826063  0.68990561  1
  Zn  Zn111  1  0.68339031  0.18555977  0.18515431  1
  Zn  Zn112  1  0.68603617  0.18242255  0.69097540  1
  Zn  Zn113  1  0.68707912  0.69054014  0.18851936  1
  Zn  Zn114  1  0.68263750  0.69181822  0.67703781  1
  Zn  Zn115  1  0.30954432  0.30886758  0.31185778  1
  Zn  Zn116  1  0.31527543  0.31778529  0.80960519  1
  Zn  Zn117  1  0.31064352  0.81005453  0.30540434  1
  Zn  Zn118  1  0.31430291  0.81768501  0.81258676  1
  Zn  Zn119  1  0.81129997  0.31272518  0.31290696  1
  Zn  Zn120  1  0.81337024  0.31203923  0.81370247  1
  Zn  Zn121  1  0.81069177  0.81632133  0.31512154  1
  Zn  Zn122  1  0.81447691  0.67404611  0.80808796  1
  Zn  Zn123  1  0.18977003  0.43446693  0.43435122  1
  Zn  Zn124  1  0.18554785  0.44484365  0.93088987  1
  Zn  Zn125  1  0.19289840  0.93511613  0.43659995  1
  Zn  Zn126  1  0.18571305  0.94092689  0.93585938  1
  Zn  Zn127  1  0.69020196  0.44020494  0.43989304  1
  Zn  Zn128  1  0.68955153  0.43502058  0.92980050  1
  Zn  Zn129  1  0.68782850  0.93899920  0.43209305  1
  Zn  Zn130  1  0.69601621  0.93161940  0.93249191  1
  Zn  Zn131  1  0.31416626  0.06635424  0.06138933  1
  Zn  Zn132  1  0.31292110  0.06049898  0.56150504  1
  Zn  Zn133  1  0.31342317  0.56305258  0.05914665  1
  Zn  Zn134  1  0.31590955  0.56148953  0.56260255  1
  Zn  Zn135  1  0.81164769  0.06072881  0.06177970  1
  Zn  Zn136  1  0.81273346  0.06739408  0.56474915  1
  Zn  Zn137  1  0.81592154  0.56178452  0.06283521  1
  Zn  Zn138  1  0.81430289  0.56700549  0.56333206  1
  Zn  Zn139  1  0.44002810  0.43451317  0.18673562  1
  Zn  Zn140  1  0.44000916  0.43269836  0.68417084  1
  Zn  Zn141  1  0.44137408  0.93841503  0.18468453  1
  Zn  Zn142  1  0.43752477  0.94010827  0.69199414  1
  Zn  Zn143  1  0.93418943  0.43735613  0.18591388  1
  Zn  Zn144  1  0.93409321  0.43796218  0.69220661  1
  Zn  Zn145  1  0.93992606  0.94118051  0.19072048  1
  Zn  Zn146  1  0.93950451  0.93750250  0.68748793  1
  Zn  Zn147  1  0.06263938  0.06137484  0.31329893  1
  Zn  Zn148  1  0.06821013  0.06270975  0.80984532  1
  Zn  Zn149  1  0.06214044  0.56105917  0.31169771  1
  Zn  Zn150  1  0.05743236  0.56397284  0.81694639  1
  Zn  Zn151  1  0.56213849  0.06358046  0.30444350  1
  Zn  Zn152  1  0.55981802  0.06196795  0.94524182  1
  Zn  Zn153  1  0.56194643  0.55974013  0.31118910  1
  Zn  Zn154  1  0.56841870  0.56127107  0.80894848  1
  Zn  Zn155  1  0.45123555  0.14977255  0.41760838  1
  Zn  Zn156  1  0.42708529  0.19437694  0.93553186  1
  Zn  Zn157  1  0.43555501  0.68330384  0.43740593  1
  Zn  Zn158  1  0.44594254  0.68648316  0.93609652  1
  Zn  Zn159  1  0.93367706  0.18882861  0.43740811  1
  Zn  Zn160  1  0.93388902  0.18776210  0.93931209  1
  Zn  Zn161  1  0.93558468  0.68899881  0.44038189  1
  Zn  Zn162  1  0.94628546  0.69337744  0.94552780  1
  Zn  Zn163  1  0.06057824  0.31413595  0.06354709  1
  Zn  Zn164  1  0.05693452  0.31409919  0.56907760  1
  Zn  Zn165  1  0.05818731  0.81403713  0.06288602  1
  Zn  Zn166  1  0.06656763  0.81189553  0.56546968  1
  Zn  Zn167  1  0.55837112  0.30314288  0.06495253  1
  Zn  Zn168  1  0.55799427  0.31428325  0.56066723  1
  Zn  Zn169  1  0.56909562  0.81427666  0.06618852  1
  Zn  Zn170  1  0.56053624  0.81439649  0.55956850  1
  O  O171  1  0.12430655  0.12119047  0.11362640  1
  O  O172  1  0.11134748  0.11823936  0.62776291  1
  O  O173  1  0.11036673  0.63163019  0.13091757  1
  O  O174  1  0.11779259  0.62587018  0.61655357  1
  O  O175  1  0.62030257  0.11279447  0.13410030  1
  O  O176  1  0.62108411  0.11557706  0.61929445  1
  O  O177  1  0.61800287  0.62391060  0.11796457  1
  O  O178  1  0.61000851  0.61727849  0.62338939  1
  O  O179  1  0.36988884  0.38413678  0.38040586  1
  O  O180  1  0.37891074  0.38190034  0.88396701  1
  O  O181  1  0.36996537  0.87106669  0.38383641  1
  O  O182  1  0.38531294  0.88220455  0.87729599  1
  O  O183  1  0.87908752  0.38382446  0.37940637  1
  O  O184  1  0.87661692  0.36966980  0.89076539  1
  O  O185  1  0.88209564  0.88945970  0.37242162  1
  O  O186  1  0.89210115  0.87178429  0.87366075  1
  O  O187  1  0.24074117  0.00786229  0.36144559  1
  O  O188  1  0.25466583  0.00620262  0.86863143  1
  O  O189  1  0.25886218  0.50570955  0.37007040  1
  O  O190  1  0.25970760  0.50390860  0.86120942  1
  O  O191  1  0.76238741  0.00803777  0.36921135  1
  O  O192  1  0.74766870  0.00696702  0.86066677  1
  O  O193  1  0.75950372  0.50901444  0.37513800  1
  O  O194  1  0.75739114  0.50170870  0.87497899  1
  O  O195  1  0.25798232  0.50221193  0.14026085  1
  O  O196  1  0.25024426  0.50154538  0.63688857  1
  O  O197  1  0.24335840  0.99401017  0.12927437  1
  O  O198  1  0.24312795  1.00276894  0.63452194  1
  O  O199  1  0.74776921  0.49079717  0.12774628  1
  O  O200  1  0.73387125  0.50743702  0.61948124  1
  O  O201  1  0.74941988  1.00269396  0.13965979  1
  O  O202  1  0.74403035  0.99655158  0.62858996  1
  O  O203  1  0.00276694  0.37112605  0.25630842  1
  O  O204  1  0.00726586  0.36447219  0.74956073  1
  O  O205  1  0.00721376  0.87080798  0.25782799  1
  O  O206  1  0.00700596  0.86898635  0.75755710  1
  O  O207  1  0.51278362  0.36684519  0.24912402  1
  O  O208  1  0.50927036  0.36304540  0.74850460  1
  O  O209  1  0.50547834  0.86555119  0.25107088  1
  O  O210  1  0.50873606  0.87161808  0.75595657  1
  O  O211  1  0.48914723  0.13900519  0.24586909  1
  O  O212  1  0.50520807  0.14020590  0.73332397  1
  O  O213  1  0.49767099  0.62774342  0.23832768  1
  O  O214  1  0.49552185  0.63026930  0.74126718  1
  O  O215  1  0.99367716  0.12958285  0.24480695  1
  O  O216  1  0.99445578  0.12928826  0.74790606  1
  O  O217  1  0.99206275  0.63124340  0.24819650  1
  O  O218  1  1.01221938  0.63686243  0.73830560  1
  O  O219  1  0.37300109  0.26337193  0.01258326  1
  O  O220  1  0.37449956  0.25627067  0.50754951  1
  O  O221  1  0.38221758  0.74990945  0.01198693  1
  O  O222  1  0.37292198  0.75702814  0.50589574  1
  O  O223  1  0.86241854  0.25603352  0.00307416  1
  O  O224  1  0.87401419  0.25690751  0.50929830  1
  O  O225  1  0.86999459  0.75124124  0.01183283  1
  O  O226  1  0.86660094  0.75150005  0.51108783  1
  O  O227  1  0.12275660  0.25552626  0.48918235  1
  O  O228  1  0.12594221  0.24077904  1.00212087  1
  O  O229  1  0.13151574  0.74044171  0.49593572  1
  O  O230  1  0.12168727  0.75067077  0.98755302  1
  O  O231  1  0.62739098  0.23878480  0.50724768  1
  O  O232  1  0.63729008  0.25774235  0.99074434  1
  O  O233  1  0.63828672  0.75347519  0.50028649  1
  O  O234  1  0.63268853  0.74344955  0.99390868  1
  O  O235  1  0.48669991  0.24939178  0.13573447  1
  O  O236  1  0.49045500  0.24512864  0.62830234  1
  O  O237  1  0.49480605  0.74293366  0.13278966  1
  O  O238  1  0.49574097  0.74292723  0.62869310  1
  O  O239  1  0.99700026  0.24278880  0.13241034  1
  O  O240  1  0.99288962  0.23665513  0.63381941  1
  O  O241  1  0.99307122  0.74473003  0.13295339  1
  O  O242  1  0.99435184  0.74754652  0.63068662  1
  O  O243  1  0.00390319  0.25366260  0.36954593  1
  O  O244  1  -0.00420211  0.25031154  0.86263866  1
  O  O245  1  0.00259824  0.75765246  0.37086796  1
  O  O246  1  0.01222064  0.76172947  0.86831267  1
  O  O247  1  0.49132775  0.24626172  0.35824067  1
  O  O248  1  0.50508414  0.25063442  0.86371193  1
  O  O249  1  0.50004858  0.73729672  0.35983182  1
  O  O250  1  0.50947907  0.75803345  0.86729020  1
  O  O251  1  0.25518315  0.12323439  0.48300651  1
  O  O252  1  0.23832473  0.12401444  0.98871281  1
  O  O253  1  0.24497312  0.62909819  0.49545789  1
  O  O254  1  0.24577140  0.62043208  0.99447796  1
  O  O255  1  0.74199850  0.12569317  0.49412895  1
  O  O256  1  0.75522663  0.13200437  0.98778778  1
  O  O257  1  0.75526744  0.63696717  0.49051648  1
  O  O258  1  0.73932554  0.63133064  1.00591065  1
  O  O259  1  0.25774142  0.38627398  -0.00206026  1
  O  O260  1  0.26123306  0.37262991  0.50154939  1
  O  O261  1  0.24963209  0.87787915  0.01226129  1
  O  O262  1  0.26156104  0.86616964  0.50230405  1
  O  O263  1  0.75393694  0.36821240  0.00700775  1
  O  O264  1  0.76442137  0.37271502  0.49611044  1
  O  O265  1  0.75522282  0.85664051  -0.00552287  1
  O  O266  1  0.74687204  0.87229455  0.51030264  1
  O  O267  1  0.13496105  0.49124964  0.25709844  1
  O  O268  1  0.13328609  0.49655379  0.75092637  1
  O  O269  1  0.13191886  0.99755137  0.23755476  1
  O  O270  1  0.13377627  0.99013224  0.74467512  1
  O  O271  1  0.62534791  0.48469166  0.24860616  1
  O  O272  1  0.62561350  0.48817890  0.74025889  1
  O  O273  1  0.63443768  0.98997843  0.25670744  1
  O  O274  1  0.63375935  0.98947201  0.73693766  1
  O  O275  1  0.36151686  0.00890818  0.24166357  1
  O  O276  1  0.36116665  -0.00429414  0.75974535  1
  O  O277  1  0.37204218  0.50151207  0.25732261  1
  O  O278  1  0.37216709  0.50377179  0.75214670  1
  O  O279  1  0.86851945  0.00709029  0.25636450  1
  O  O280  1  0.86599284  0.00786810  0.74348231  1
  O  O281  1  0.87175769  0.50632691  0.25949388  1
  O  O282  1  0.86584000  0.49632182  0.75396573  1
  O  O283  1  0.11602753  0.36818218  0.37043659  1
  O  O284  1  0.12261939  0.37782444  0.86059449  1
  O  O285  1  0.11886716  0.87111584  0.37074224  1
  O  O286  1  0.12283022  0.86704073  0.86852019  1
  O  O287  1  0.63205037  0.37332597  0.36365299  1
  O  O288  1  0.62239879  0.36091206  0.86573137  1
  O  O289  1  0.62380578  0.87246513  0.36219987  1
  O  O290  1  0.62167878  0.86702543  0.86363466  1
  O  O291  1  0.37079968  0.13821444  0.13238927  1
  O  O292  1  0.38207369  0.13262996  0.62029327  1
  O  O293  1  0.38383751  0.63007312  0.12995187  1
  O  O294  1  0.38306195  0.63562956  0.62868314  1
  O  O295  1  0.87888972  0.12627404  0.13762906  1
  O  O296  1  0.88533523  0.12820348  0.63515908  1
  O  O297  1  0.88342155  0.63303706  0.13373496  1
  O  O298  1  0.88822353  0.63571640  0.62017928  1
  O  O299  1  0.26567535  0.25278629  0.13502550  1
  O  O300  1  0.25798203  0.24657989  0.62187451  1
  O  O301  1  0.26012203  0.75905711  0.13226132  1
  O  O302  1  0.25974080  0.75024065  0.61906621  1
  O  O303  1  0.74982126  0.25502171  0.11761735  1
  O  O304  1  0.76544284  0.23904868  0.62570184  1
  O  O305  1  0.76039291  0.74507309  0.11746264  1
  O  O306  1  0.75775573  0.75928283  0.61794122  1
  O  O307  1  0.23729658  0.24244874  0.37574525  1
  O  O308  1  0.25474967  0.23717141  0.86809239  1
  O  O309  1  0.24427953  0.74226722  0.37823766  1
  O  O310  1  0.23591073  0.75314599  0.86874645  1
  O  O311  1  0.75974709  0.23405852  0.37926536  1
  O  O312  1  0.74366901  0.24117571  0.88066981  1
  O  O313  1  0.75111347  0.74438977  0.38369810  1
  O  O314  1  0.73937583  0.74511234  0.88086084  1
  O  O315  1  0.01176528  0.12780636  0.00371992  1
  O  O316  1  -0.00484167  0.12741701  0.51513878  1
  O  O317  1  0.00684752  0.61895464  0.01279052  1
  O  O318  1  0.00891995  0.62589290  0.50767724  1
  O  O319  1  0.50418724  0.14290099  -0.00442378  1
  O  O320  1  0.50984161  0.12680051  0.51619694  1
  O  O321  1  0.50828256  0.61672782  0.00923450  1
  O  O322  1  0.49180276  0.61283422  0.50837129  1
  O  O323  1  0.48611520  0.38350970  0.50136917  1
  O  O324  1  0.49980169  0.38616466  1.00096036  1
  O  O325  1  0.48635887  0.87426274  0.49601831  1
  O  O326  1  0.50119714  0.86621741  0.98739039  1
  O  O327  1  0.98962570  0.37638746  0.49304815  1
  O  O328  1  0.99115319  0.38190755  1.00260233  1
  O  O329  1  1.00467427  0.87077733  0.48851532  1
  O  O330  1  0.99968002  0.87626124  0.98591521  1
  O  O331  1  0.48981399  0.50579721  0.38343448  1
  O  O332  1  0.49618666  0.49856489  0.88196769  1
  O  O333  1  0.48441834  1.04300847  0.38143631  1
  O  O334  1  0.49040815  0.99254635  0.87206177  1
  O  O335  1  0.98807560  0.49751795  0.37785956  1
  O  O336  1  0.99582555  0.49610919  0.88602413  1
  O  O337  1  0.98746997  0.99400190  0.37093595  1
  O  O338  1  1.00827029  0.98527250  0.87141859  1
  O  O339  1  0.01105271  0.00871505  0.12706435  1
  O  O340  1  0.00781413  0.01329881  0.63086415  1
  O  O341  1  -0.00674274  0.51071552  0.11917831  1
  O  O342  1  0.00236430  0.51011736  0.62364046  1
  O  O343  1  0.49644723  0.01018416  0.12297384  1
  O  O344  1  0.50741226  0.00647239  0.62687417  1
  O  O345  1  0.50204672  0.50802323  0.11774435  1
  O  O346  1  0.50398136  0.50612140  0.61675639  1
  O  O347  1  0.23890785  0.38363492  0.25772509  1
  O  O348  1  0.24371171  0.38378424  0.74685080  1
  O  O349  1  0.24350176  0.88272477  0.24204826  1
  O  O350  1  0.24276876  0.88309582  0.74687865  1
  O  O351  1  0.73887940  0.37214052  0.24392720  1
  O  O352  1  0.73682173  0.36829058  0.74909171  1
  O  O353  1  0.73915322  0.88309552  0.25396882  1
  O  O354  1  0.74172751  0.88393578  0.73509132  1
  O  O355  1  0.25115248  0.11649125  0.25182689  1
  O  O356  1  0.23868443  0.11667051  0.76513314  1
  O  O357  1  0.25563519  0.61745021  0.25598898  1
  O  O358  1  0.25901047  0.62020937  0.75202744  1
  O  O359  1  0.75757873  0.12026803  0.25790554  1
  O  O360  1  0.75746338  0.11627421  0.75697550  1
  O  O361  1  0.75719927  0.62524743  0.25767328  1
  O  O362  1  0.73485164  0.62738576  0.74911842  1
  O  O363  1  0.35549939  0.13796461  0.35213708  1
  O  O364  1  0.35884033  0.11973913  0.87683436  1
  O  O365  1  0.36890260  0.61494213  0.36791291  1
  O  O366  1  0.37903075  0.62036066  0.86662682  1
  O  O367  1  0.87384127  0.11553895  0.36671476  1
  O  O368  1  0.86649190  0.12915266  0.86312971  1
  O  O369  1  0.87014275  0.61943331  0.37024408  1
  O  O370  1  0.89421418  0.63238761  0.86981440  1
  O  O371  1  0.12039154  0.37243497  0.14090872  1
  O  O372  1  0.12656248  0.37871535  0.63526001  1
  O  O373  1  0.12957951  0.88155188  0.12848360  1
  O  O374  1  0.12695204  0.88218395  0.63417397  1
  O  O375  1  0.63485277  0.37310926  0.12948997  1
  O  O376  1  0.62004900  0.38333329  0.63147880  1
  O  O377  1  0.62034589  0.87961809  0.14421747  1
  O  O378  1  0.62921373  0.88165544  0.62801906  1
  O  O379  1  0.11716112  0.25752441  0.25827348  1
  O  O380  1  0.11534867  0.25741618  0.74495627  1
  O  O381  1  0.11999241  0.75670749  0.25809672  1
  O  O382  1  0.11799523  0.76200516  0.75214738  1
  O  O383  1  0.61248001  0.25975750  0.24862448  1
  O  O384  1  0.61882650  0.25320627  0.75420794  1
  O  O385  1  0.61760598  0.75983007  0.25162977  1
  O  O386  1  0.62089133  0.76139184  0.75306293  1
  O  O387  1  0.38237952  0.25113488  0.24106985  1
  O  O388  1  0.38341818  0.25659601  0.73788161  1
  O  O389  1  0.38231959  0.74277985  0.24158578  1
  O  O390  1  0.38051546  0.74677309  0.74305446  1
  O  O391  1  0.88204893  0.24147898  0.25122793  1
  O  O392  1  0.88166855  0.24285474  0.74449082  1
  O  O393  1  0.87823698  0.74619186  0.24677495  1
  O  O394  1  0.88827600  0.75047781  0.73856112  1
  O  O395  1  0.38076576  0.49250966  0.49283690  1
  O  O396  1  0.38482129  0.49376444  0.99490900  1
  O  O397  1  0.37433492  0.98022500  0.50472870  1
  O  O398  1  0.36795998  0.99755441  0.98569468  1
  O  O399  1  0.87631554  0.49411874  0.49423189  1
  O  O400  1  0.88475952  0.49303759  1.00028137  1
  O  O401  1  0.87246605  1.00540936  0.48601706  1
  O  O402  1  0.88143631  0.99837632  1.00328059  1
  O  O403  1  0.12171745  0.00638950  0.00960760  1
  O  O404  1  0.13213620  -0.00716085  0.51519025  1
  O  O405  1  0.11099189  0.50086293  -0.00160064  1
  O  O406  1  0.12553271  0.51170323  0.49928792  1
  O  O407  1  0.62706345  -0.01039868  -0.00517117  1
  O  O408  1  0.62249847  0.00428757  0.50822643  1
  O  O409  1  0.61896968  0.50595074  -0.00032920  1
  O  O410  1  0.61144990  0.49173739  0.50489739  1
  O  O411  1  0.37673603  0.36730938  0.11729948  1
  O  O412  1  0.37204123  0.36494240  0.61630711  1
  O  O413  1  0.36678058  0.86590795  0.12445971  1
  O  O414  1  0.37697691  0.86290118  0.62441132  1
  O  O415  1  0.86197526  0.37302520  0.11778189  1
  O  O416  1  0.88456364  0.36271416  0.61648613  1
  O  O417  1  0.88218904  0.86307216  0.12734269  1
  O  O418  1  0.86771319  0.86865571  0.62795568  1
  O  O419  1  0.13105097  0.13548874  0.36817635  1
  O  O420  1  0.13379745  0.12247645  0.88775231  1
  O  O421  1  0.12765940  0.63044899  0.38248331  1
  O  O422  1  0.12429582  0.64444261  0.87236681  1
  O  O423  1  0.63631237  0.12030004  0.38533474  1
  O  O424  1  0.63552496  0.13659005  0.87169866  1
  O  O425  1  0.63778341  0.62731593  0.36920441  1
  O  O426  1  0.61311781  0.63572266  0.88578866  1
