# generated using pymatgen
data_V85Zn86O256
_symmetry_space_group_name_H-M   'P 1'
_cell_length_a   16.94635278
_cell_length_b   16.93483776
_cell_length_c   16.94383757
_cell_angle_alpha   90.00019827
_cell_angle_beta   89.94138108
_cell_angle_gamma   90.02784035
_symmetry_Int_Tables_number   1
_chemical_formula_structural   V85Zn86O256
_chemical_formula_sum   'V85 Zn86 O256'
_cell_volume   4862.60267020
_cell_formula_units_Z   1
loop_
 _symmetry_equiv_pos_site_id
 _symmetry_equiv_pos_as_xyz
  1  'x, y, z'
loop_
 _atom_site_type_symbol
 _atom_site_label
 _atom_site_symmetry_multiplicity
 _atom_site_fract_x
 _atom_site_fract_y
 _atom_site_fract_z
 _atom_site_occupancy
  V  V0  1  0.49523840  0.24721329  0.24758530  1
  V  V1  1  0.49921496  0.87530579  0.37488582  1
  V  V2  1  -0.01782731  0.13112531  0.13136651  1
  V  V3  1  0.87610071  0.62959830  0.75764117  1
  V  V4  1  0.36888171  0.36559880  0.00779813  1
  V  V5  1  0.00867001  0.00939783  0.00012561  1
  V  V6  1  0.49669762  0.38457897  0.37742075  1
  V  V7  1  0.36753140  0.12605155  0.25119011  1
  V  V8  1  0.62558774  0.75322424  0.87680876  1
  V  V9  1  0.12760166  0.00141898  0.63155727  1
  V  V10  1  0.74522261  0.49653259  0.75683919  1
  V  V11  1  0.49746788  0.36881907  0.87247567  1
  V  V12  1  0.62703145  0.24679983  0.37301940  1
  V  V13  1  0.12393500  0.00909671  0.13484233  1
  V  V14  1  0.13193209  0.25665374  0.87235756  1
  V  V15  1  0.50032821  0.74525381  0.24467096  1
  V  V16  1  0.25385782  0.24470984  0.49823655  1
  V  V17  1  0.63570882  0.12616991  0.49732871  1
  V  V18  1  0.00797518  0.76430630  0.74970806  1
  V  V19  1  0.37982430  0.25069316  0.62888486  1
  V  V20  1  0.49606427  0.12767986  0.11393910  1
  V  V21  1  0.75152172  0.50267759  0.24497108  1
  V  V22  1  0.49819754  0.61960534  0.62142937  1
  V  V23  1  0.50095048  0.00124030  0.49979441  1
  V  V24  1  0.01406010  0.88200909  0.87613471  1
  V  V25  1  0.37348955  0.49821263  0.87699510  1
  V  V26  1  0.12592606  0.12438459  0.50230895  1
  V  V27  1  0.00292596  0.87226035  0.36452317  1
  V  V28  1  0.62586898  -0.00178305  0.62687775  1
  V  V29  1  0.37692135  0.38639625  0.49737009  1
  V  V30  1  0.74636350  0.36711090  0.12468205  1
  V  V31  1  -0.00661264  0.37420295  0.37879260  1
  V  V32  1  -0.00596876  0.50027707  0.49713798  1
  V  V33  1  0.24200888  0.87571979  0.13676871  1
  V  V34  1  0.87320361  -0.00188278  0.87953061  1
  V  V35  1  0.61965151  0.36254291  0.74903594  1
  V  V36  1  0.36843493  0.00612338  0.37643802  1
  V  V37  1  0.24620407  0.87387543  0.62678620  1
  V  V38  1  0.88274351  0.24552944  0.61951138  1
  V  V39  1  0.75146122  0.62563490  0.37478870  1
  V  V40  1  0.88454970  0.37464983  0.01415017  1
  V  V41  1  0.75282516  0.87417858  0.63227726  1
  V  V42  1  0.24784782  0.37316792  0.63008749  1
  V  V43  1  0.25322300  0.76492411  0.00001023  1
  V  V44  1  0.62250772  0.62416667  0.00478130  1
  V  V45  1  0.62086710  0.62024624  0.49878091  1
  V  V46  1  0.12133796  0.37225706  0.25076041  1
  V  V47  1  0.62459475  0.74989319  0.37554557  1
  V  V48  1  0.00020866  0.63016931  0.62441420  1
  V  V49  1  0.12065352  0.49716248  0.12342381  1
  V  V50  1  0.37756744  0.62038354  0.24434992  1
  V  V51  1  0.87758194  0.64028933  0.24542446  1
  V  V52  1  0.25146971  0.49637665  0.25361515  1
  V  V53  1  0.37504861  0.74913517  0.62388128  1
  V  V54  1  0.87182191  0.00604273  0.37413958  1
  V  V55  1  0.50029518  0.75401458  0.75523337  1
  V  V56  1  0.62134152  0.24437259  0.88670495  1
  V  V57  1  0.74669853  0.12345569  0.88473314  1
  V  V58  1  0.12780588  0.24553658  0.37436398  1
  V  V59  1  0.37526145  0.87484897  0.49994199  1
  V  V60  1  0.37642623  0.75601067  0.12236064  1
  V  V61  1  0.62145631  0.49852844  0.62466360  1
  V  V62  1  0.50266074  -0.02034951  -0.00561321  1
  V  V63  1  0.75034826  0.37133167  0.61482423  1
  V  V64  1  0.49797948  0.50291359  0.00776115  1
  V  V65  1  -0.00186088  0.64047823  0.12726325  1
  V  V66  1  0.12710828  0.62736986  0.00047810  1
  V  V67  1  0.87623475  0.87474157  0.50305367  1
  V  V68  1  0.37470118  0.62398857  0.75125301  1
  V  V69  1  0.76008700  0.74824075  0.00612999  1
  V  V70  1  0.25520334  0.62302830  0.37371544  1
  V  V71  1  0.62469662  0.00213772  0.12074843  1
  V  V72  1  0.87510166  0.75182381  0.62681849  1
  V  V73  1  0.00207024  0.00255911  0.50381454  1
  V  V74  1  0.75062557  0.00492359  0.25268210  1
  V  V75  1  0.50358568  0.13017968  0.62874685  1
  V  V76  1  0.37372948  -0.01484868  0.88193529  1
  V  V77  1  0.12288135  0.75177506  0.35912659  1
  V  V78  1  0.37746472  0.12585173  0.75725274  1
  V  V79  1  0.93219156  0.44316725  0.82299188  1
  V  V80  1  0.62418194  0.87641843  0.24987762  1
  V  V81  1  0.12654404  0.49821126  0.62935769  1
  V  V82  1  0.25218470  0.00072758  0.75281689  1
  V  V83  1  0.12446069  0.62817273  0.49648538  1
  V  V84  1  0.25147410  0.62655668  0.87777846  1
  Zn  Zn85  1  0.62123401  0.37760711  0.24852872  1
  Zn  Zn86  1  0.75934309  0.25050872  0.48910601  1
  Zn  Zn87  1  0.24374194  -0.00035437  0.25908391  1
  Zn  Zn88  1  0.24920154  0.75086760  0.49761538  1
  Zn  Zn89  1  0.75809272  0.87163038  0.12839997  1
  Zn  Zn90  1  -0.01149552  0.24744009  0.24817595  1
  Zn  Zn91  1  0.75242276  0.62095114  0.87853637  1
  Zn  Zn92  1  0.88416079  0.87094661  0.00818947  1
  Zn  Zn93  1  0.74746371  0.00356944  0.75466220  1
  Zn  Zn94  1  0.81926775  0.16746156  0.30396934  1
  Zn  Zn95  1  0.87358501  0.50335228  0.37778350  1
  Zn  Zn96  1  0.87665374  0.13206838  0.75545493  1
  Zn  Zn97  1  -0.00277403  0.50059058  -0.00356054  1
  Zn  Zn98  1  0.23870631  0.22247292  0.00461101  1
  Zn  Zn99  1  0.62258302  0.50180838  0.12519898  1
  Zn  Zn100  1  0.00364616  0.26447264  0.75075632  1
  Zn  Zn101  1  0.74880453  0.74923842  0.50115454  1
  Zn  Zn102  1  0.25072716  0.36549580  0.12619910  1
  Zn  Zn103  1  0.75511761  0.24725596  0.00445106  1
  Zn  Zn104  1  0.13066131  0.75728894  0.87108449  1
  Zn  Zn105  1  0.62123086  0.87636970  0.75543520  1
  Zn  Zn106  1  0.24417960  0.49639553  0.75478140  1
  Zn  Zn107  1  0.18843222  0.18855308  0.18620622  1
  Zn  Zn108  1  0.18655995  0.18570794  0.69393676  1
  Zn  Zn109  1  0.18943929  0.68454655  0.18443756  1
  Zn  Zn110  1  0.18847501  0.68600195  0.68763137  1
  Zn  Zn111  1  0.67785038  0.18622763  0.18368442  1
  Zn  Zn112  1  0.69330950  0.18572878  0.69206146  1
  Zn  Zn113  1  0.68662097  0.68461448  0.18522365  1
  Zn  Zn114  1  0.68756061  0.68660446  0.68912974  1
  Zn  Zn115  1  0.31282075  0.31133214  0.31306783  1
  Zn  Zn116  1  0.30939588  0.30980527  0.81307521  1
  Zn  Zn117  1  0.31335158  0.81046403  0.31315427  1
  Zn  Zn118  1  0.31096982  0.81454863  0.80987603  1
  Zn  Zn119  1  0.81213075  0.32789330  0.31331581  1
  Zn  Zn120  1  0.80707876  0.30450520  0.80800262  1
  Zn  Zn121  1  0.81146786  0.81789827  0.31341875  1
  Zn  Zn122  1  0.81555856  0.81586314  0.82018634  1
  Zn  Zn123  1  0.18582067  0.43642665  0.43931738  1
  Zn  Zn124  1  0.18318047  0.43237001  0.93496277  1
  Zn  Zn125  1  0.18673806  0.93445592  0.43874834  1
  Zn  Zn126  1  0.19045768  1.06067014  0.93722531  1
  Zn  Zn127  1  0.68176177  0.44071215  0.43337871  1
  Zn  Zn128  1  0.68745862  0.43313526  0.93998977  1
  Zn  Zn129  1  0.69003399  0.93727490  0.43935841  1
  Zn  Zn130  1  0.68682786  0.93251737  0.94094626  1
  Zn  Zn131  1  0.31812514  0.05461591  0.06945721  1
  Zn  Zn132  1  0.31347064  0.06512842  0.56356724  1
  Zn  Zn133  1  0.30931206  0.56146198  0.06596814  1
  Zn  Zn134  1  0.31045160  0.56218561  0.56157476  1
  Zn  Zn135  1  0.81269709  0.05854255  0.06099335  1
  Zn  Zn136  1  0.81390193  0.06172521  0.56492127  1
  Zn  Zn137  1  0.81600903  0.55855132  0.06190930  1
  Zn  Zn138  1  0.80887215  0.56440265  0.56633624  1
  Zn  Zn139  1  0.43712718  0.43633828  0.18937543  1
  Zn  Zn140  1  0.43601301  0.43698176  0.68928497  1
  Zn  Zn141  1  0.43607105  0.93798559  0.18694160  1
  Zn  Zn142  1  0.43696766  0.93767165  0.68773098  1
  Zn  Zn143  1  0.93706813  0.44190355  0.18922173  1
  Zn  Zn144  1  0.93136626  0.43970821  0.66081408  1
  Zn  Zn145  1  0.93423534  0.93956729  0.18505565  1
  Zn  Zn146  1  0.96286584  0.97682781  0.71284522  1
  Zn  Zn147  1  0.05916804  0.06423972  0.31370505  1
  Zn  Zn148  1  0.05084967  0.10176606  0.81762530  1
  Zn  Zn149  1  0.06151245  0.56432816  0.30925051  1
  Zn  Zn150  1  0.06658889  0.57310712  0.80968951  1
  Zn  Zn151  1  0.55987152  0.06461294  0.31119686  1
  Zn  Zn152  1  0.56047621  0.06268013  0.81415476  1
  Zn  Zn153  1  0.56338639  0.56282157  0.31029372  1
  Zn  Zn154  1  0.56187568  0.56344975  0.81719154  1
  Zn  Zn155  1  0.44216064  0.18951277  0.43849645  1
  Zn  Zn156  1  0.43139779  0.18523003  0.93863959  1
  Zn  Zn157  1  0.43706746  0.68536696  0.43554837  1
  Zn  Zn158  1  0.43870898  0.68908865  0.93962167  1
  Zn  Zn159  1  0.94444575  0.18865838  0.44495216  1
  Zn  Zn160  1  0.94019477  0.19248883  0.93881387  1
  Zn  Zn161  1  0.93679712  0.69051189  0.43355766  1
  Zn  Zn162  1  0.94407397  0.68845225  0.93520126  1
  Zn  Zn163  1  0.06692067  0.30441072  0.05944895  1
  Zn  Zn164  1  0.06417391  0.31386616  0.56136659  1
  Zn  Zn165  1  0.06882090  0.81951050  0.06032712  1
  Zn  Zn166  1  0.06298210  0.81518268  0.55873353  1
  Zn  Zn167  1  0.55834429  0.31573569  0.06403863  1
  Zn  Zn168  1  0.56282433  0.31182178  0.55742064  1
  Zn  Zn169  1  0.56842949  0.80983530  0.06601210  1
  Zn  Zn170  1  0.56241030  0.80938695  0.56439653  1
  O  O171  1  0.12156955  0.11139227  0.12803496  1
  O  O172  1  0.13485840  0.11553504  0.61180950  1
  O  O173  1  0.12099069  0.61765412  0.11822043  1
  O  O174  1  0.12060596  0.62170462  0.61507680  1
  O  O175  1  0.61113912  0.10947618  0.12880471  1
  O  O176  1  0.62178496  0.11928562  0.62142182  1
  O  O177  1  0.62476763  0.62227284  0.10997880  1
  O  O178  1  0.61779522  0.62089318  0.61852093  1
  O  O179  1  0.38759248  0.36879189  0.38288633  1
  O  O180  1  0.37958273  0.38122777  0.88026325  1
  O  O181  1  0.38128047  0.88010104  0.38076976  1
  O  O182  1  0.37986466  0.88733268  0.86891312  1
  O  O183  1  0.88950366  0.38371096  0.37868976  1
  O  O184  1  0.87358287  0.37930473  0.87583313  1
  O  O185  1  0.88343566  0.88199350  0.38360334  1
  O  O186  1  0.88386191  0.88148095  0.88642323  1
  O  O187  1  0.26397365  -0.00582907  0.37715779  1
  O  O188  1  0.26583481  -0.00367555  0.86566727  1
  O  O189  1  0.24159961  0.50801367  0.36325861  1
  O  O190  1  0.25667294  0.50541611  0.87457297  1
  O  O191  1  0.75987187  -0.00468600  0.36853202  1
  O  O192  1  0.75348455  0.00497165  0.88076189  1
  O  O193  1  0.75055544  0.50779522  0.36767191  1
  O  O194  1  0.74303679  0.49996041  0.86084802  1
  O  O195  1  0.23757252  0.49773054  0.13637942  1
  O  O196  1  0.24218151  0.49310603  0.62482391  1
  O  O197  1  0.23974314  0.99263760  0.13052458  1
  O  O198  1  0.24797601  0.99196776  0.62752258  1
  O  O199  1  0.74805778  0.49229198  0.13103661  1
  O  O200  1  0.74528021  0.48848319  0.63342514  1
  O  O201  1  0.73952431  0.99939009  0.13135430  1
  O  O202  1  0.74326358  0.99224079  0.62804055  1
  O  O203  1  0.00747229  0.37527691  0.25861084  1
  O  O204  1  -0.01380550  0.39025355  0.75485486  1
  O  O205  1  -0.00372211  0.88275363  0.26696286  1
  O  O206  1  -0.00486885  0.87234994  0.75899893  1
  O  O207  1  0.49795259  0.36691995  0.25924881  1
  O  O208  1  0.50771700  0.37954500  0.75963215  1
  O  O209  1  0.50508728  0.86796937  0.25533752  1
  O  O210  1  0.50289936  0.85785705  0.73864067  1
  O  O211  1  0.49299773  0.13135535  0.24306445  1
  O  O212  1  0.49420246  0.11896647  0.73520071  1
  O  O213  1  0.49017923  0.63266166  0.25514949  1
  O  O214  1  0.49427667  0.63144532  0.74355904  1
  O  O215  1  0.99971440  0.12476241  0.23675687  1
  O  O216  1  0.98202725  0.08981090  0.73553170  1
  O  O217  1  0.98992400  0.62330696  0.24110649  1
  O  O218  1  0.99330575  0.63605234  0.74297320  1
  O  O219  1  0.37183897  0.26519502  -0.00532081  1
  O  O220  1  0.36950475  0.25412280  0.50842220  1
  O  O221  1  0.36687347  0.74141131  0.01206276  1
  O  O222  1  0.37438583  0.75481494  0.50666680  1
  O  O223  1  0.87219830  0.27097460  -0.00847298  1
  O  O224  1  0.87436811  0.25139922  0.51233878  1
  O  O225  1  0.86209352  0.74453011  -0.00455505  1
  O  O226  1  0.87418633  0.75793777  0.50678483  1
  O  O227  1  0.13270294  0.24315879  0.49719364  1
  O  O228  1  0.12452081  0.24789788  0.98201141  1
  O  O229  1  0.12528719  0.73830047  0.49392275  1
  O  O230  1  0.13580534  0.74332291  0.99766803  1
  O  O231  1  0.62832193  0.24186465  0.49160799  1
  O  O232  1  0.62582969  0.25679562  0.98869065  1
  O  O233  1  0.62511112  0.73900297  0.49484004  1
  O  O234  1  0.62953524  0.74186231  0.99421171  1
  O  O235  1  0.50429694  0.23978297  0.13338276  1
  O  O236  1  0.49248700  0.24238263  0.61978940  1
  O  O237  1  0.49361973  0.75396659  0.13665044  1
  O  O238  1  0.49534127  0.73778336  0.63103856  1
  O  O239  1  1.00270949  0.23374583  0.12655927  1
  O  O240  1  0.98639876  0.26058911  0.62756882  1
  O  O241  1  1.00968817  0.73904558  0.11932959  1
  O  O242  1  0.99511526  0.75074976  0.63094551  1
  O  O243  1  0.01217249  0.25903378  0.38029315  1
  O  O244  1  0.01417265  0.22815122  0.86103550  1
  O  O245  1  0.00650434  0.76367579  0.37685341  1
  O  O246  1  0.00266592  0.76184977  0.86652984  1
  O  O247  1  0.50935370  0.25615688  0.36885999  1
  O  O248  1  0.50371270  0.26104444  0.87953281  1
  O  O249  1  0.50424689  0.75451253  0.36484331  1
  O  O250  1  0.50811655  0.74352937  0.86520245  1
  O  O251  1  0.24770442  0.13832161  0.50121451  1
  O  O252  1  0.27234348  0.11556475  0.99116131  1
  O  O253  1  0.24318172  0.62542978  0.49042469  1
  O  O254  1  0.24073965  0.63057608  0.99828727  1
  O  O255  1  0.73851432  0.12636120  0.50334984  1
  O  O256  1  0.75111894  0.12833438  0.99053837  1
  O  O257  1  0.74181263  0.62628180  0.49434043  1
  O  O258  1  0.74446750  0.63119128  0.99871548  1
  O  O259  1  0.26612724  0.38541817  0.00189434  1
  O  O260  1  0.25732827  0.36661641  0.50662606  1
  O  O261  1  0.25108344  0.86373118  0.01497395  1
  O  O262  1  0.25863798  0.87218703  0.50697101  1
  O  O263  1  0.75744669  0.37490479  0.01038081  1
  O  O264  1  0.73994065  0.37480956  0.51246943  1
  O  O265  1  0.74920289  0.85650884  0.00172636  1
  O  O266  1  0.76160474  0.87463369  0.50836419  1
  O  O267  1  0.12990090  0.49187471  0.24475740  1
  O  O268  1  0.12563806  0.50961504  0.73348963  1
  O  O269  1  0.12580564  1.00239912  0.24063117  1
  O  O270  1  0.13703652  1.00372533  0.73431440  1
  O  O271  1  0.63714499  0.50300741  0.24682491  1
  O  O272  1  0.62980390  0.49373659  0.74357981  1
  O  O273  1  0.62633428  0.99352609  0.24482819  1
  O  O274  1  0.62455536  0.99623616  0.73924676  1
  O  O275  1  0.37545622  0.00678356  0.26079361  1
  O  O276  1  0.37336186  0.00450018  0.75763279  1
  O  O277  1  0.36488427  0.50744525  0.24488512  1
  O  O278  1  0.37484765  0.50491421  0.76352693  1
  O  O279  1  0.86388524  -0.00133308  0.26164558  1
  O  O280  1  0.86390149  -0.01079023  0.77203346  1
  O  O281  1  0.86304078  0.50812274  0.25217751  1
  O  O282  1  0.87220524  0.50211952  0.75272188  1
  O  O283  1  0.11791010  0.37052549  0.36749082  1
  O  O284  1  0.12305614  0.36000808  0.87253046  1
  O  O285  1  0.11195446  0.86695369  0.38128363  1
  O  O286  1  0.11321018  0.87637915  0.87444515  1
  O  O287  1  0.61321620  0.36730593  0.37379957  1
  O  O288  1  0.61629122  0.36833871  0.86834775  1
  O  O289  1  0.61913368  0.87012033  0.37152200  1
  O  O290  1  0.62775915  0.85878334  0.87316960  1
  O  O291  1  0.38734302  0.11395225  0.14002568  1
  O  O292  1  0.38513405  0.13179917  0.62935590  1
  O  O293  1  0.36704212  0.63546419  0.13848826  1
  O  O294  1  0.38016478  0.62787194  0.62861761  1
  O  O295  1  0.88298033  0.12154199  0.12908371  1
  O  O296  1  0.86576741  0.14365857  0.62625366  1
  O  O297  1  0.88627209  0.62185677  0.13192700  1
  O  O298  1  0.88039158  0.63027230  0.63538826  1
  O  O299  1  0.24154634  0.25393641  0.11504647  1
  O  O300  1  0.25700184  0.25619314  0.61804976  1
  O  O301  1  0.25547974  0.75623486  0.12182369  1
  O  O302  1  0.25617921  0.75683580  0.62442754  1
  O  O303  1  0.74132834  0.26223597  0.12554757  1
  O  O304  1  0.75480590  0.26091097  0.62429197  1
  O  O305  1  0.74344372  0.74978852  0.10952546  1
  O  O306  1  0.75523149  0.75667171  0.62364819  1
  O  O307  1  0.23688047  0.25765177  0.38425960  1
  O  O308  1  0.23948971  0.25282787  0.87911744  1
  O  O309  1  0.24141814  0.74245328  0.37585616  1
  O  O310  1  0.25253199  0.74688677  0.88291122  1
  O  O311  1  0.73818118  0.25271379  0.37183246  1
  O  O312  1  0.73889696  0.24277450  0.87766449  1
  O  O313  1  0.74159355  0.74495494  0.37695741  1
  O  O314  1  0.74328837  0.74451913  0.88439913  1
  O  O315  1  -0.00788208  0.11690730  0.01480544  1
  O  O316  1  0.01135694  0.11396517  0.50287611  1
  O  O317  1  0.01179621  0.62351756  0.00427880  1
  O  O318  1  0.00710717  0.62286405  0.50305590  1
  O  O319  1  0.49152436  0.11830926  0.01160834  1
  O  O320  1  0.50869261  0.11999239  0.51119101  1
  O  O321  1  0.50855887  0.61422134  -0.00686013  1
  O  O322  1  0.50697454  0.62798770  0.50840996  1
  O  O323  1  0.49262129  0.37134577  0.48661195  1
  O  O324  1  0.48751401  0.38203200  0.99321118  1
  O  O325  1  0.49529975  0.88010243  0.49671163  1
  O  O326  1  0.50140728  0.88128011  1.00176946  1
  O  O327  1  1.00951865  0.38873293  0.49155701  1
  O  O328  1  0.98844308  0.37822635  1.00984091  1
  O  O329  1  0.98953932  0.87909126  0.49299168  1
  O  O330  1  1.00336711  0.88697688  0.99290292  1
  O  O331  1  0.50341274  0.48348724  0.36981883  1
  O  O332  1  0.49253352  0.48993492  0.88244906  1
  O  O333  1  0.49318045  0.99390772  0.38156997  1
  O  O334  1  0.49490067  0.99966101  0.88794251  1
  O  O335  1  1.00162177  0.49550781  0.38236838  1
  O  O336  1  0.99880600  0.50253677  0.87439088  1
  O  O337  1  0.99644869  0.99082623  0.38567936  1
  O  O338  1  0.99418103  0.99894127  0.88490123  1
  O  O339  1  0.00884808  0.00819278  0.12193442  1
  O  O340  1  0.01542763  -0.01630137  0.60974248  1
  O  O341  1  0.01233227  0.50787309  0.12595071  1
  O  O342  1  0.00814554  0.50877424  0.61575132  1
  O  O343  1  0.50313592  0.00092126  0.11198065  1
  O  O344  1  0.50826097  0.00475397  0.61903855  1
  O  O345  1  0.49941466  0.49666737  0.11156099  1
  O  O346  1  0.50355138  0.51219163  0.63030519  1
  O  O347  1  0.24228695  0.38072171  0.25063596  1
  O  O348  1  0.25965422  0.37878430  0.73353387  1
  O  O349  1  0.25278653  0.87625710  0.24093793  1
  O  O350  1  0.25587372  0.88738472  0.73902141  1
  O  O351  1  0.74499306  0.38632145  0.24211737  1
  O  O352  1  0.73952075  0.37972430  0.74162907  1
  O  O353  1  0.74035905  0.88546049  0.25057684  1
  O  O354  1  0.74649016  0.87187943  0.73994584  1
  O  O355  1  0.26395413  0.12355213  0.25044691  1
  O  O356  1  0.26506115  0.10920829  0.73728677  1
  O  O357  1  0.25550687  0.61726601  0.25583797  1
  O  O358  1  0.25772946  0.62353000  0.75766010  1
  O  O359  1  0.73772575  0.11067754  0.25008454  1
  O  O360  1  0.75503691  0.12270652  0.76494822  1
  O  O361  1  0.75548483  0.62115969  0.25365283  1
  O  O362  1  0.75923607  0.61431097  0.74778750  1
  O  O363  1  0.38489294  0.11521799  0.36856791  1
  O  O364  1  0.38667154  0.11513093  0.85941906  1
  O  O365  1  0.36164319  0.63039538  0.36514716  1
  O  O366  1  0.36998369  0.61730830  0.87285073  1
  O  O367  1  0.87928227  0.11098067  0.38623859  1
  O  O368  1  0.86589003  0.11647169  0.87779568  1
  O  O369  1  0.86850345  0.62481570  0.36749533  1
  O  O370  1  0.87534989  0.62747740  0.86144884  1
  O  O371  1  0.12187136  0.38054720  0.13523402  1
  O  O372  1  0.13553682  0.38597346  0.61724691  1
  O  O373  1  0.13237690  0.89004332  0.12408290  1
  O  O374  1  0.14006981  0.88190342  0.61542917  1
  O  O375  1  0.63080420  0.38090367  0.12695865  1
  O  O376  1  0.62931796  0.37675534  0.63055073  1
  O  O377  1  0.62686862  0.88503753  0.13322335  1
  O  O378  1  0.63423378  0.88222399  0.62212450  1
  O  O379  1  0.12135918  0.25647334  0.25961673  1
  O  O380  1  0.12112407  0.24961004  0.75720157  1
  O  O381  1  0.12691218  0.74442910  0.26005940  1
  O  O382  1  0.11174267  0.74651631  0.74971617  1
  O  O383  1  0.61254664  0.25051500  0.25706846  1
  O  O384  1  0.62666888  0.25994257  0.75622269  1
  O  O385  1  0.61766487  0.75339337  0.25334275  1
  O  O386  1  0.61740381  0.74669672  0.75843280  1
  O  O387  1  0.38601484  0.24130905  0.25777620  1
  O  O388  1  0.37042837  0.24144684  0.73753774  1
  O  O389  1  0.38248300  0.74269395  0.24480352  1
  O  O390  1  0.38133810  0.74365012  0.74480327  1
  O  O391  1  0.87658956  0.25151466  0.26350212  1
  O  O392  1  0.88170903  0.25134748  0.73855724  1
  O  O393  1  0.86872818  0.73946652  0.25278551  1
  O  O394  1  0.88181876  0.74568415  0.74589711  1
  O  O395  1  0.37088055  0.48592712  0.50169594  1
  O  O396  1  0.38004842  0.49896161  0.99170201  1
  O  O397  1  0.38140897  0.99715010  0.49496677  1
  O  O398  1  0.38712256  0.99367545  0.98797018  1
  O  O399  1  0.88973877  0.50869742  0.50285065  1
  O  O400  1  0.87742755  0.48312725  0.99803887  1
  O  O401  1  0.88295893  0.99368000  0.49883287  1
  O  O402  1  0.88451666  0.99788046  0.99341533  1
  O  O403  1  0.11404861  0.00501756  0.01040887  1
  O  O404  1  0.12190829  0.00692277  0.50350288  1
  O  O405  1  0.12435516  0.50664895  0.00740990  1
  O  O406  1  0.11920130  0.51218990  0.50575837  1
  O  O407  1  0.61222559  -0.00540866  0.00626364  1
  O  O408  1  0.62275677  0.00597791  0.50899085  1
  O  O409  1  0.61536407  0.50609597  -0.00290766  1
  O  O410  1  0.62700176  0.51250273  0.50726471  1
  O  O411  1  0.37448448  0.37824981  0.11090600  1
  O  O412  1  0.37282024  0.36791126  0.61776900  1
  O  O413  1  0.36720455  0.86199993  0.13107155  1
  O  O414  1  0.36741519  0.87043081  0.61925481  1
  O  O415  1  0.86727481  0.37711356  0.11931969  1
  O  O416  1  0.85732267  0.36505489  0.62348120  1
  O  O417  1  0.87112003  0.87695045  0.12048039  1
  O  O418  1  0.86659313  0.87126947  0.61799609  1
  O  O419  1  0.12118026  0.13331923  0.38706600  1
  O  O420  1  0.13986979  0.13392519  0.86864062  1
  O  O421  1  0.13166185  0.63136244  0.37890631  1
  O  O422  1  0.13338583  0.63028421  0.88324707  1
  O  O423  1  0.61680469  0.13318272  0.38600413  1
  O  O424  1  0.62948595  0.13472891  0.87023897  1
  O  O425  1  0.62884133  0.62924178  0.38192693  1
  O  O426  1  0.62832149  0.63312427  0.88424966  1
