# generated using pymatgen
data_V85Zn86O256
_symmetry_space_group_name_H-M   'P 1'
_cell_length_a   16.93499795
_cell_length_b   16.93243799
_cell_length_c   16.93198533
_cell_angle_alpha   89.99380713
_cell_angle_beta   90.01178874
_cell_angle_gamma   89.97510130
_symmetry_Int_Tables_number   1
_chemical_formula_structural   V85Zn86O256
_chemical_formula_sum   'V85 Zn86 O256'
_cell_volume   4855.25979338
_cell_formula_units_Z   1
loop_
 _symmetry_equiv_pos_site_id
 _symmetry_equiv_pos_as_xyz
  1  'x, y, z'
loop_
 _atom_site_type_symbol
 _atom_site_label
 _atom_site_symmetry_multiplicity
 _atom_site_fract_x
 _atom_site_fract_y
 _atom_site_fract_z
 _atom_site_occupancy
  V  V0  1  0.00995995  0.86769836  0.37172295  1
  V  V1  1  -0.00868230  0.62376628  0.62748289  1
  V  V2  1  0.25000532  -0.00069730  0.74958785  1
  V  V3  1  0.12494468  0.24804154  0.87730888  1
  V  V4  1  0.88276411  -0.01498371  0.88309162  1
  V  V5  1  0.74949102  0.38716545  0.12800826  1
  V  V6  1  0.23777265  -0.01041514  0.23705197  1
  V  V7  1  0.00025331  -0.00012971  0.49946050  1
  V  V8  1  -0.00820683  0.61242224  0.12319947  1
  V  V9  1  0.73763891  0.73971076  0.49810422  1
  V  V10  1  0.38459489  0.25180057  0.12955967  1
  V  V11  1  0.75468793  0.00040449  0.24902433  1
  V  V12  1  0.74714498  0.25028169  0.49994999  1
  V  V13  1  0.50319633  0.37655102  0.87437087  1
  V  V14  1  -0.00580131  0.24561303  0.25155629  1
  V  V15  1  0.48656167  0.75397962  0.24685964  1
  V  V16  1  0.86259026  0.50496782  0.36810237  1
  V  V17  1  0.24829697  0.37549616  0.12505083  1
  V  V18  1  0.24688065  0.63385229  0.37204756  1
  V  V19  1  0.37949549  -0.00132232  0.87829685  1
  V  V20  1  0.87658320  0.12334823  0.75268954  1
  V  V21  1  0.12551367  0.00146203  0.62441971  1
  V  V22  1  0.00057011  0.25070152  0.75365913  1
  V  V23  1  0.50348997  0.87224704  0.37426993  1
  V  V24  1  0.37352503  0.50199362  0.37374088  1
  V  V25  1  0.75365232  0.87048161  0.10997544  1
  V  V26  1  -0.00545759  0.11334107  0.12977565  1
  V  V27  1  0.37839257  0.12424533  0.74637645  1
  V  V28  1  0.12713519  0.37549205  0.75172921  1
  V  V29  1  0.00064704  0.49994586  0.49813474  1
  V  V30  1  0.07350168  0.80384376  0.92222096  1
  V  V31  1  0.38662223  0.74640960  0.62663721  1
  V  V32  1  0.50087938  0.00732345  0.50513447  1
  V  V33  1  0.24405900  0.75070625  0.49925609  1
  V  V34  1  0.24642076  0.13054134  0.37083699  1
  V  V35  1  0.00041727  0.12565079  0.62557559  1
  V  V36  1  0.24541113  0.50163842  0.24897145  1
  V  V37  1  0.87672991  0.00539059  0.37465641  1
  V  V38  1  0.87336721  0.25110304  0.62700689  1
  V  V39  1  0.24616951  0.63705342  0.87244737  1
  V  V40  1  0.74937297  -0.00252233  0.74980797  1
  V  V41  1  0.38301522  0.12727193  0.25033162  1
  V  V42  1  0.87126088  0.87227670  0.50079351  1
  V  V43  1  0.37670021  0.37713686  0.50143605  1
  V  V44  1  0.62118588  0.51696352  0.62193712  1
  V  V45  1  0.12506030  0.62457733  0.50100875  1
  V  V46  1  0.49849077  0.86572048  0.87714637  1
  V  V47  1  0.75174404  0.51235482  0.74941723  1
  V  V48  1  0.75223121  0.12669811  0.37127564  1
  V  V49  1  0.87274084  0.74967263  0.11490375  1
  V  V50  1  0.25043202  0.24954065  0.00211817  1
  V  V51  1  0.25788409  0.75157151  0.01298622  1
  V  V52  1  0.25037149  0.12497810  0.87569260  1
  V  V53  1  0.74523329  0.37787054  0.62746401  1
  V  V54  1  0.88435199  0.37664143  0.00185517  1
  V  V55  1  0.11868330  0.61677899  -0.00217052  1
  V  V56  1  0.00442912  0.37207745  0.37619636  1
  V  V57  1  0.37541734  0.38040411  0.00067882  1
  V  V58  1  0.61970942  0.86561762  0.74979825  1
  V  V59  1  -0.00390392  0.74876605  0.74930547  1
  V  V60  1  0.68478101  0.69400515  0.31535805  1
  V  V61  1  0.37225446  -0.00381359  0.37025306  1
  V  V62  1  0.01820757  0.74745621  0.24568604  1
  V  V63  1  0.39054941  0.62986133  0.74873364  1
  V  V64  1  0.12571908  0.13401272  0.49606961  1
  V  V65  1  0.75247019  0.12626959  0.87763051  1
  V  V66  1  0.12039362  0.87078263  0.74973261  1
  V  V67  1  0.87422385  0.37668356  0.49995494  1
  V  V68  1  0.50313743  0.24615310  0.74816853  1
  V  V69  1  0.12411042  0.11582637  0.00889707  1
  V  V70  1  0.37891932  0.24696601  0.62312395  1
  V  V71  1  0.74496295  0.62937243  0.89065361  1
  V  V72  1  0.12576842  0.36703137  0.25450789  1
  V  V73  1  0.24961762  0.87307797  0.62424668  1
  V  V74  1  0.62728050  0.38852383  0.24558510  1
  V  V75  1  0.62188798  0.24890639  0.36639463  1
  V  V76  1  0.88189201  0.50443149  0.87393889  1
  V  V77  1  0.25281392  0.50420623  0.75108366  1
  V  V78  1  0.51891582  0.50270467  0.00776836  1
  V  V79  1  0.75105774  0.25131937  0.00413240  1
  V  V80  1  0.50213544  0.51509882  0.50105381  1
  V  V81  1  0.37389811  0.87485012  0.49885267  1
  V  V82  1  0.50388934  0.63545910  0.11927909  1
  V  V83  1  0.49906667  0.37228069  0.36792809  1
  V  V84  1  0.63216690  0.87199779  0.25353091  1
  Zn  Zn85  1  0.00351846  -0.01792694  0.00284264  1
  Zn  Zn86  1  0.62793561  0.00494106  0.12363598  1
  Zn  Zn87  1  0.37486685  0.87521210  0.01286730  1
  Zn  Zn88  1  0.87024215  0.74741464  0.62575854  1
  Zn  Zn89  1  0.74645246  0.87502244  0.62261343  1
  Zn  Zn90  1  0.36945673  0.62871416  0.24017103  1
  Zn  Zn91  1  0.50717990  0.12806566  0.12477186  1
  Zn  Zn92  1  0.12441242  0.49927482  0.62878997  1
  Zn  Zn93  1  0.62309360  0.74618126  0.88736126  1
  Zn  Zn94  1  0.87336163  0.24719618  0.13041155  1
  Zn  Zn95  1  0.62743641  0.25042999  0.87431438  1
  Zn  Zn96  1  0.61732109  0.00678482  0.63266781  1
  Zn  Zn97  1  0.37820968  0.50578820  0.87649022  1
  Zn  Zn98  1  0.50605518  0.00381457  0.00327359  1
  Zn  Zn99  1  0.00313014  0.37939878  0.88050783  1
  Zn  Zn100  1  0.25237054  0.37630431  0.62570508  1
  Zn  Zn101  1  0.62529677  0.12502410  0.00376285  1
  Zn  Zn102  1  0.86258027  0.62953732  0.25093695  1
  Zn  Zn103  1  0.62072438  0.13038281  0.50515355  1
  Zn  Zn104  1  0.24857430  0.25428721  0.49713325  1
  Zn  Zn105  1  0.11737211  0.49526459  0.12050749  1
  Zn  Zn106  1  0.62535393  0.37666051  0.74893992  1
  Zn  Zn107  1  0.18758999  0.18522342  0.18851844  1
  Zn  Zn108  1  0.19191883  0.18972086  0.68526601  1
  Zn  Zn109  1  0.17095400  0.69164084  0.19211523  1
  Zn  Zn110  1  0.18476470  0.68863153  0.68531041  1
  Zn  Zn111  1  0.68952530  0.19150823  0.18945238  1
  Zn  Zn112  1  0.68451010  0.18482440  0.68727794  1
  Zn  Zn113  1  0.68002863  0.68819313  0.06992555  1
  Zn  Zn114  1  0.68912864  0.69073720  0.68639921  1
  Zn  Zn115  1  0.31276439  0.31154224  0.31255265  1
  Zn  Zn116  1  0.31577871  0.31337463  0.81371676  1
  Zn  Zn117  1  0.30622156  0.81901456  0.18772610  1
  Zn  Zn118  1  0.31308986  0.81144508  0.81239281  1
  Zn  Zn119  1  0.81187236  0.31773030  0.31259593  1
  Zn  Zn120  1  0.81304889  0.31631605  0.81357418  1
  Zn  Zn121  1  0.82571884  0.81379905  0.30974655  1
  Zn  Zn122  1  0.81144875  0.81025637  0.81177891  1
  Zn  Zn123  1  0.18715102  0.44063239  0.43701485  1
  Zn  Zn124  1  0.19089675  0.44104306  0.93344627  1
  Zn  Zn125  1  0.18842338  0.94192857  0.43286220  1
  Zn  Zn126  1  0.19547265  0.93964751  0.94217998  1
  Zn  Zn127  1  0.68226210  0.43888039  0.43940812  1
  Zn  Zn128  1  0.69364096  0.43581521  0.93595614  1
  Zn  Zn129  1  0.68687404  0.93640905  0.43742942  1
  Zn  Zn130  1  0.68473751  0.93915877  0.93368890  1
  Zn  Zn131  1  0.31480966  0.06168815  0.06660542  1
  Zn  Zn132  1  0.31368646  0.06452302  0.56066631  1
  Zn  Zn133  1  0.31270402  0.56646630  0.06437133  1
  Zn  Zn134  1  0.31490170  0.56367631  0.56635391  1
  Zn  Zn135  1  0.81532162  0.05888532  0.06156068  1
  Zn  Zn136  1  0.80919652  0.06345253  0.56258449  1
  Zn  Zn137  1  0.81627166  0.55714937  0.06079457  1
  Zn  Zn138  1  0.81096456  0.56262870  0.55736449  1
  Zn  Zn139  1  0.43784182  0.44125299  0.18708458  1
  Zn  Zn140  1  0.43930360  0.44050153  0.68659722  1
  Zn  Zn141  1  0.44097714  0.94437212  0.18552086  1
  Zn  Zn142  1  0.43716171  0.93377618  0.68856160  1
  Zn  Zn143  1  0.93404498  0.43600895  0.19138642  1
  Zn  Zn144  1  0.93671575  0.43882371  0.69058035  1
  Zn  Zn145  1  0.93516561  0.93377313  0.19043656  1
  Zn  Zn146  1  0.93612679  0.93618821  0.68823899  1
  Zn  Zn147  1  0.06385813  0.06126990  0.31252225  1
  Zn  Zn148  1  0.06238719  0.05962586  0.81598507  1
  Zn  Zn149  1  0.06120580  0.57066508  0.30959832  1
  Zn  Zn150  1  0.06418827  0.56711380  0.81202318  1
  Zn  Zn151  1  0.56558065  0.05981190  0.31314153  1
  Zn  Zn152  1  0.56460884  0.06253676  0.81615726  1
  Zn  Zn153  1  0.55610506  0.56401650  0.30747111  1
  Zn  Zn154  1  0.56704049  0.55872343  0.81476021  1
  Zn  Zn155  1  0.43540548  0.18902249  0.43325830  1
  Zn  Zn156  1  0.43915789  0.18883790  0.93789579  1
  Zn  Zn157  1  0.43107973  0.69158804  0.43176829  1
  Zn  Zn158  1  0.43696228  0.68480784  0.93781922  1
  Zn  Zn159  1  0.93752380  0.18982103  0.43731547  1
  Zn  Zn160  1  0.93751353  0.18492207  0.94210984  1
  Zn  Zn161  1  0.93300817  0.68761507  0.43739321  1
  Zn  Zn162  1  0.93163577  0.68195364  0.93959809  1
  Zn  Zn163  1  0.06246483  0.30524130  0.06782480  1
  Zn  Zn164  1  0.06291577  0.31413439  0.56639549  1
  Zn  Zn165  1  0.07059643  0.80644813  0.08689240  1
  Zn  Zn166  1  0.06028025  0.81114677  0.56163380  1
  Zn  Zn167  1  0.56634132  0.31332548  0.06202487  1
  Zn  Zn168  1  0.56082121  0.31611591  0.55939932  1
  Zn  Zn169  1  0.56031659  0.82213418  0.06292778  1
  Zn  Zn170  1  0.56479775  0.81776888  0.56163424  1
  O  O171  1  0.11322147  0.13056932  0.11757392  1
  O  O172  1  0.12066703  0.12037872  0.62061805  1
  O  O173  1  0.11112538  0.62013551  0.11663693  1
  O  O174  1  0.11709691  0.62191786  0.61509319  1
  O  O175  1  0.62622545  0.12620201  0.12494844  1
  O  O176  1  0.63027302  0.11833815  0.61769621  1
  O  O177  1  0.60413078  0.61983946  0.12568351  1
  O  O178  1  0.62576756  0.61620983  0.62700625  1
  O  O179  1  0.38202067  0.37943776  0.37911673  1
  O  O180  1  0.38660856  0.37684408  0.88335344  1
  O  O181  1  0.38167289  0.88895206  0.38190317  1
  O  O182  1  0.38146485  0.88312283  0.87329182  1
  O  O183  1  0.88237908  0.38290176  0.38180556  1
  O  O184  1  0.87718155  0.38507183  0.88299596  1
  O  O185  1  0.88102941  0.88711237  0.38621120  1
  O  O186  1  0.87271729  0.88703739  0.87274044  1
  O  O187  1  0.25789609  0.01040879  0.37079118  1
  O  O188  1  0.25738643  0.00472558  0.86750821  1
  O  O189  1  0.25609377  0.50523869  0.36774941  1
  O  O190  1  0.25470054  0.51060478  0.86449960  1
  O  O191  1  0.75715389  0.00765352  0.37250527  1
  O  O192  1  0.76106636  0.00559104  0.86708563  1
  O  O193  1  0.76478946  0.49440936  0.38378221  1
  O  O194  1  0.75516348  0.50895565  0.86820658  1
  O  O195  1  0.24740293  0.49396354  0.13351054  1
  O  O196  1  0.24884578  0.49925723  0.63923854  1
  O  O197  1  0.24914722  1.00148885  0.13672416  1
  O  O198  1  0.24618469  0.99418641  0.62972664  1
  O  O199  1  0.75074950  0.48659116  0.12250734  1
  O  O200  1  0.74523078  0.49602358  0.62937355  1
  O  O201  1  0.75523793  0.98948659  0.13432426  1
  O  O202  1  0.75488951  0.99755911  0.64094344  1
  O  O203  1  0.00672399  0.36885979  0.25715727  1
  O  O204  1  0.00967563  0.36897993  0.75273600  1
  O  O205  1  -0.00592430  0.86855698  0.26609686  1
  O  O206  1  0.01328272  0.87010666  0.74500403  1
  O  O207  1  0.50998419  0.37974013  0.25776412  1
  O  O208  1  0.49883598  0.36822331  0.75875015  1
  O  O209  1  0.50973024  0.87041239  0.25483348  1
  O  O210  1  0.51298668  0.88042460  0.75722309  1
  O  O211  1  0.48610318  0.12280667  0.25523542  1
  O  O212  1  0.49510696  0.13831111  0.75742486  1
  O  O213  1  0.49609868  0.63659225  0.24019390  1
  O  O214  1  0.48904869  0.62104374  0.75696905  1
  O  O215  1  1.00598234  0.13032745  0.23919016  1
  O  O216  1  0.99638664  0.13021631  0.74610757  1
  O  O217  1  0.98385147  0.62152871  0.23616419  1
  O  O218  1  1.00655436  0.63451411  0.73915097  1
  O  O219  1  0.37027144  0.26194420  0.00556480  1
  O  O220  1  0.37671443  0.25755033  0.50703603  1
  O  O221  1  0.35970827  0.74813004  -0.00069913  1
  O  O222  1  0.36233271  0.75460314  0.50498215  1
  O  O223  1  0.86599980  0.25834485  0.00014290  1
  O  O224  1  0.86871969  0.25668296  0.50690264  1
  O  O225  1  0.87861658  0.75020301  0.01466868  1
  O  O226  1  0.86430178  0.75845502  0.49841468  1
  O  O227  1  0.12751105  0.23809410  0.50830546  1
  O  O228  1  0.13055868  0.24144475  0.99503403  1
  O  O229  1  0.13558837  0.74137875  0.50443612  1
  O  O230  1  0.13138655  0.74363972  0.99659114  1
  O  O231  1  0.63061123  0.25346619  0.48822867  1
  O  O232  1  0.63993879  0.25173860  0.99632253  1
  O  O233  1  0.63887487  0.75715806  0.49887927  1
  O  O234  1  0.62408112  0.75493337  1.00007321  1
  O  O235  1  0.48742491  0.25260386  0.12150048  1
  O  O236  1  0.48928088  0.25732170  0.63301352  1
  O  O237  1  0.50215476  0.74296025  0.13090981  1
  O  O238  1  0.48533493  0.75656340  0.61656574  1
  O  O239  1  0.99564769  0.23947950  0.13556115  1
  O  O240  1  0.99354336  0.24525506  0.63256703  1
  O  O241  1  0.98703409  0.73387760  0.13064779  1
  O  O242  1  0.99771255  0.74163536  0.63048413  1
  O  O243  1  -0.00277701  0.26301786  0.37079298  1
  O  O244  1  0.00725797  0.24970688  0.87036910  1
  O  O245  1  -0.00774696  0.76416565  0.37223025  1
  O  O246  1  0.00108174  0.74708064  0.86973139  1
  O  O247  1  0.50684078  0.26279329  0.37944287  1
  O  O248  1  0.50136011  0.25980364  0.86711311  1
  O  O249  1  0.49177515  0.76584206  0.36762668  1
  O  O250  1  0.49774721  0.76189782  0.87733088  1
  O  O251  1  0.24188760  0.12562037  0.49212259  1
  O  O252  1  0.24349588  0.12993340  0.99729693  1
  O  O253  1  0.24482137  0.63118937  0.49871569  1
  O  O254  1  0.24331999  0.63502994  0.99492484  1
  O  O255  1  0.75015158  0.13206862  0.48838463  1
  O  O256  1  0.75522226  0.13357602  0.99358526  1
  O  O257  1  0.74999136  0.64052125  0.49962630  1
  O  O258  1  0.74646681  0.62211994  0.99410937  1
  O  O259  1  0.25683976  0.37088978  0.00284291  1
  O  O260  1  0.26325649  0.37566123  0.49892852  1
  O  O261  1  0.24926042  0.85576815  -0.00134467  1
  O  O262  1  0.25280855  0.86862794  0.50154277  1
  O  O263  1  0.75803831  0.36917889  0.00684645  1
  O  O264  1  0.75420317  0.36985671  0.50754163  1
  O  O265  1  0.74950784  0.87991966  0.01242916  1
  O  O266  1  0.75652331  0.86997320  0.50016472  1
  O  O267  1  0.13338797  0.49082110  0.24951946  1
  O  O268  1  0.13265153  0.49199009  0.75168961  1
  O  O269  1  0.13892275  1.00247465  0.25236300  1
  O  O270  1  0.12945460  0.99344665  0.74469648  1
  O  O271  1  0.62475544  0.48683483  0.25442692  1
  O  O272  1  0.63287579  0.49691397  0.74061145  1
  O  O273  1  0.64023914  0.99302133  0.25185334  1
  O  O274  1  0.63466539  0.99245474  0.75345537  1
  O  O275  1  0.36737360  0.00918741  0.25771125  1
  O  O276  1  0.37121304  0.00480277  0.75684866  1
  O  O277  1  0.36097776  0.49814890  0.25516823  1
  O  O278  1  0.36932032  0.51029843  0.75102456  1
  O  O279  1  0.86429049  -0.00451551  0.26105718  1
  O  O280  1  0.87151298  0.00410732  0.75930542  1
  O  O281  1  0.87064931  0.49796281  0.26506023  1
  O  O282  1  0.86568814  0.49365721  0.76417357  1
  O  O283  1  0.11714843  0.37832016  0.36753056  1
  O  O284  1  0.12412530  0.37008154  0.86743515  1
  O  O285  1  0.10825520  0.87788015  0.38206268  1
  O  O286  1  0.13027756  0.87392189  0.86674213  1
  O  O287  1  0.61845279  0.37103617  0.36642729  1
  O  O288  1  0.61427512  0.37493242  0.87386174  1
  O  O289  1  0.61632860  0.88167398  0.36377427  1
  O  O290  1  0.61736113  0.87283234  0.86545446  1
  O  O291  1  0.37601981  0.13534309  0.13378163  1
  O  O292  1  0.37235069  0.13344474  0.63381706  1
  O  O293  1  0.39380015  0.61615909  0.12682120  1
  O  O294  1  0.37189752  0.63379716  0.63709671  1
  O  O295  1  0.89074172  0.12599843  0.12232317  1
  O  O296  1  0.88075057  0.13008973  0.63136495  1
  O  O297  1  0.87511672  0.63012143  0.12467769  1
  O  O298  1  0.88755177  0.62574523  0.61863731  1
  O  O299  1  0.25732001  0.25635205  0.11965277  1
  O  O300  1  0.26507738  0.25450103  0.62272201  1
  O  O301  1  0.24961777  0.74152356  0.11716821  1
  O  O302  1  0.25476667  0.75570702  0.61700373  1
  O  O303  1  0.75549369  0.25789894  0.11872794  1
  O  O304  1  0.75530335  0.25880741  0.62306271  1
  O  O305  1  0.75587546  0.76278510  0.12510097  1
  O  O306  1  0.75182776  0.75408452  0.61303987  1
  O  O307  1  0.25483329  0.23584656  0.37787206  1
  O  O308  1  0.24635359  0.24470852  0.88138521  1
  O  O309  1  0.24931767  0.73489775  0.38466289  1
  O  O310  1  0.25041388  0.74068834  0.88222037  1
  O  O311  1  0.74554668  0.24426323  0.37826666  1
  O  O312  1  0.75246820  0.24311774  0.88172735  1
  O  O313  1  0.74884593  0.75146418  0.37946557  1
  O  O314  1  0.75508458  0.73023717  0.87162098  1
  O  O315  1  0.00803488  0.12430494  0.01389066  1
  O  O316  1  0.00691518  0.12148494  0.50429225  1
  O  O317  1  0.00856353  0.62747609  0.00633943  1
  O  O318  1  0.00707023  0.62053336  0.50388695  1
  O  O319  1  0.50435875  0.12447047  0.00111555  1
  O  O320  1  0.49817601  0.10993563  0.49113610  1
  O  O321  1  0.49641951  0.61212743  0.00579479  1
  O  O322  1  0.49076376  0.61370836  0.49164585  1
  O  O323  1  0.48954525  0.38278536  0.49073049  1
  O  O324  1  0.49565968  0.38434678  0.99601407  1
  O  O325  1  0.49418914  0.88283490  0.49153699  1
  O  O326  1  0.49360520  0.88300092  0.99017310  1
  O  O327  1  0.99682175  0.37912746  0.49500395  1
  O  O328  1  0.98841671  0.36775205  1.00136290  1
  O  O329  1  0.99332512  0.87907398  0.49221228  1
  O  O330  1  1.02873865  0.86520233  0.99951568  1
  O  O331  1  0.49250690  0.49270616  0.37904412  1
  O  O332  1  0.49923085  0.49480209  0.88756810  1
  O  O333  1  0.49270767  0.99190859  0.37947571  1
  O  O334  1  0.49159246  0.99269347  0.87423930  1
  O  O335  1  0.99535781  0.48995369  0.38016703  1
  O  O336  1  0.98541814  0.50108205  0.86823580  1
  O  O337  1  0.99310304  0.99430146  0.37946052  1
  O  O338  1  0.98724071  1.00012220  0.87839861  1
  O  O339  1  -0.00314170  0.00829969  0.12431573  1
  O  O340  1  0.00456961  0.00672299  0.61947151  1
  O  O341  1  -0.00426772  0.50729778  0.12465838  1
  O  O342  1  -0.00008005  0.50582137  0.61898134  1
  O  O343  1  0.50835839  0.00879653  0.12415210  1
  O  O344  1  0.49450631  -0.00394456  0.60805119  1
  O  O345  1  0.49987340  0.50137041  0.11056444  1
  O  O346  1  0.50982207  0.49560654  0.61432950  1
  O  O347  1  0.24223500  0.37975593  0.24766993  1
  O  O348  1  0.24526867  0.38420828  0.75328188  1
  O  O349  1  0.25032100  0.89093707  0.25624435  1
  O  O350  1  0.24009855  0.87866669  0.74518967  1
  O  O351  1  0.73741138  0.37217511  0.24338693  1
  O  O352  1  0.74892577  0.38434599  0.74204633  1
  O  O353  1  0.74603703  0.88145161  0.25253459  1
  O  O354  1  0.73954180  0.88086007  0.75072320  1
  O  O355  1  0.25685894  0.11982910  0.25641967  1
  O  O356  1  0.25591533  0.11920556  0.75539849  1
  O  O357  1  0.24687778  0.61799519  0.25560546  1
  O  O358  1  0.24985789  0.62088840  0.75659296  1
  O  O359  1  0.74935189  0.11851034  0.26349663  1
  O  O360  1  0.75799341  0.11883696  0.75761156  1
  O  O361  1  0.74431122  0.64154858  0.25543177  1
  O  O362  1  0.75161274  0.61467053  0.75052371  1
  O  O363  1  0.36799773  0.11762741  0.36936316  1
  O  O364  1  0.36909453  0.11975997  0.86723885  1
  O  O365  1  0.36388051  0.61857453  0.36822860  1
  O  O366  1  0.36629583  0.62604147  0.86518397  1
  O  O367  1  0.86991096  0.11356418  0.38081991  1
  O  O368  1  0.86807754  0.11919708  0.87126030  1
  O  O369  1  0.87844356  0.60862408  0.37435762  1
  O  O370  1  0.86301110  0.61121723  0.87973991  1
  O  O371  1  0.13027656  0.37588013  0.13262128  1
  O  O372  1  0.12993499  0.37404610  0.63991787  1
  O  O373  1  0.10624692  0.79542343  0.19054196  1
  O  O374  1  0.12971801  0.88107273  0.62982451  1
  O  O375  1  0.63088131  0.37015003  0.13931665  1
  O  O376  1  0.63704659  0.37955571  0.62335685  1
  O  O377  1  0.63932521  0.87704480  0.13811595  1
  O  O378  1  0.62454672  0.88330459  0.63807878  1
  O  O379  1  0.11611680  0.26115011  0.24711416  1
  O  O380  1  0.12342831  0.25611541  0.75663771  1
  O  O381  1  0.09767661  0.69109381  0.28649782  1
  O  O382  1  0.11501231  0.75954421  0.74676021  1
  O  O383  1  0.62758245  0.25968241  0.26340098  1
  O  O384  1  0.61651831  0.25485511  0.75156995  1
  O  O385  1  0.61791250  0.75799957  0.25886249  1
  O  O386  1  0.62948123  0.76373457  0.75465392  1
  O  O387  1  0.36992581  0.24214982  0.24064077  1
  O  O388  1  0.38173504  0.24534119  0.74354210  1
  O  O389  1  0.38414333  0.75104765  0.24907828  1
  O  O390  1  0.37007306  0.74053440  0.74020006  1
  O  O391  1  0.89000370  0.25528179  0.25290791  1
  O  O392  1  0.88024127  0.24536922  0.74617814  1
  O  O393  1  0.88957249  0.74808749  0.24167287  1
  O  O394  1  0.89117440  0.75948513  0.74559022  1
  O  O395  1  0.37907972  0.49428791  0.49538793  1
  O  O396  1  0.37366840  0.48789644  0.99872453  1
  O  O397  1  0.38238405  0.99691301  0.49263494  1
  O  O398  1  0.36964564  1.00017254  0.98537054  1
  O  O399  1  0.88330771  0.49465757  0.49388786  1
  O  O400  1  0.87121251  0.48981732  0.98479764  1
  O  O401  1  0.88075008  0.99520055  0.49511920  1
  O  O402  1  0.88111978  0.99812425  0.98748054  1
  O  O403  1  0.12325527  0.01212238  -0.00510781  1
  O  O404  1  0.11970532  0.00952715  0.50599992  1
  O  O405  1  0.13103619  0.51209571  0.00127697  1
  O  O406  1  0.11626658  0.50128144  0.50836024  1
  O  O407  1  0.62714839  0.00537278  0.00289200  1
  O  O408  1  0.60816348  -0.00155089  0.49844621  1
  O  O409  1  0.61670599  0.49594385  0.00032026  1
  O  O410  1  0.61392267  0.49787446  0.50834093  1
  O  O411  1  0.36926064  0.37025244  0.12016150  1
  O  O412  1  0.37501937  0.37028250  0.61631979  1
  O  O413  1  0.37738483  0.87675068  0.12530038  1
  O  O414  1  0.36728432  0.86954500  0.61953777  1
  O  O415  1  0.86813195  0.37343742  0.11876529  1
  O  O416  1  0.86486797  0.37325480  0.62053555  1
  O  O417  1  0.86155317  0.86704016  0.12933158  1
  O  O418  1  0.87532811  0.87497885  0.61074983  1
  O  O419  1  0.13238471  0.12162132  0.38502046  1
  O  O420  1  0.13160896  0.12928766  0.88169431  1
  O  O421  1  0.13715208  0.60256996  0.39668538  1
  O  O422  1  0.13344392  0.62323924  0.88382459  1
  O  O423  1  0.63210092  0.13306105  0.37827097  1
  O  O424  1  0.64269742  0.12715939  0.87468332  1
  O  O425  1  0.62778282  0.63068993  0.36734063  1
  O  O426  1  0.64161031  0.62547406  0.87143305  1
