# generated using pymatgen
data_V85Zn86O256
_symmetry_space_group_name_H-M   'P 1'
_cell_length_a   16.99937605
_cell_length_b   17.02031300
_cell_length_c   16.98202193
_cell_angle_alpha   89.92110060
_cell_angle_beta   90.02241948
_cell_angle_gamma   89.97459335
_symmetry_Int_Tables_number   1
_chemical_formula_structural   V85Zn86O256
_chemical_formula_sum   'V85 Zn86 O256'
_cell_volume   4913.48272072
_cell_formula_units_Z   1
loop_
 _symmetry_equiv_pos_site_id
 _symmetry_equiv_pos_as_xyz
  1  'x, y, z'
loop_
 _atom_site_type_symbol
 _atom_site_label
 _atom_site_symmetry_multiplicity
 _atom_site_fract_x
 _atom_site_fract_y
 _atom_site_fract_z
 _atom_site_occupancy
  V  V0  1  0.26844927  0.87116000  0.12382944  1
  V  V1  1  0.87293325  0.50187269  0.36587740  1
  V  V2  1  0.49440928  0.24812745  0.75105171  1
  V  V3  1  -0.00566278  0.74530362  0.75480403  1
  V  V4  1  0.62328521  0.35984381  0.25293313  1
  V  V5  1  0.37685738  0.37680623  0.00349570  1
  V  V6  1  0.00004556  0.00051877  0.00077031  1
  V  V7  1  0.75251652  0.62211971  0.36327606  1
  V  V8  1  0.25646055  0.26633710  0.49776785  1
  V  V9  1  0.74315526  0.25128923  0.48330503  1
  V  V10  1  0.00047844  0.24197658  0.24527081  1
  V  V11  1  0.13188782  -0.00081411  0.12407157  1
  V  V12  1  0.24389172  0.61910506  0.87374414  1
  V  V13  1  0.74907697  0.25143214  0.00202085  1
  V  V14  1  0.49475462  0.12314635  0.62887123  1
  V  V15  1  0.12802560  0.87026244  0.24633238  1
  V  V16  1  0.12468233  0.37217937  0.25356682  1
  V  V17  1  0.00051013  0.50238720  0.00625290  1
  V  V18  1  0.75322026  0.75006255  0.00652844  1
  V  V19  1  0.62322578  0.74849188  0.37089663  1
  V  V20  1  0.25030229  0.00299960  0.25158826  1
  V  V21  1  0.50275248  0.37554269  0.87467868  1
  V  V22  1  0.79885157  0.93452421  0.17957461  1
  V  V23  1  0.37826224  0.26329876  0.62081585  1
  V  V24  1  0.75131013  0.12660291  0.87348408  1
  V  V25  1  0.74170642  0.10706601  0.36393132  1
  V  V26  1  0.87549971  0.62146262  0.22516208  1
  V  V27  1  0.23115078  0.86830444  0.62908097  1
  V  V28  1  0.25323842  0.13040420  0.38793290  1
  V  V29  1  0.62835069  0.62004405  0.49548242  1
  V  V30  1  0.49929174  0.62144876  0.62446963  1
  V  V31  1  0.62422503  0.50446517  0.13567369  1
  V  V32  1  0.12070325  0.74702262  0.37135051  1
  V  V33  1  0.87030732  0.37411838  0.50114412  1
  V  V34  1  0.85857133  0.25267110  0.62700036  1
  V  V35  1  0.12809242  0.50238421  0.63918413  1
  V  V36  1  0.87410145  0.37782975  -0.00226227  1
  V  V37  1  0.63448168  0.37323820  0.73930998  1
  V  V38  1  0.12558385  0.12733670  0.00315988  1
  V  V39  1  0.50100114  0.49414320  0.50013233  1
  V  V40  1  0.74877413  0.38451874  0.12854914  1
  V  V41  1  0.08141499  0.20763986  0.42066322  1
  V  V42  1  -0.01078659  0.62314024  0.62830854  1
  V  V43  1  0.00119113  0.37970931  0.37066463  1
  V  V44  1  0.25159859  0.37667366  0.12785342  1
  V  V45  1  0.67605843  0.54098023  0.67105146  1
  V  V46  1  0.87677131  0.00188279  0.87632996  1
  V  V47  1  -0.01813166  0.87188974  0.37382655  1
  V  V48  1  0.37617971  0.87441520  -0.02262315  1
  V  V49  1  0.86848691  0.87311448  0.00298807  1
  V  V50  1  0.87662257  0.76348189  0.62555964  1
  V  V51  1  0.74976940  -0.00504761  0.74876004  1
  V  V52  1  0.49998780  0.50130666  0.00334304  1
  V  V53  1  0.88000372  0.12522665  0.74465757  1
  V  V54  1  0.49985441  0.00079882  0.50153956  1
  V  V55  1  0.49742322  0.63521710  0.12313670  1
  V  V56  1  0.37513622  0.62961125  0.24581222  1
  V  V57  1  0.00235323  0.25023913  0.74006358  1
  V  V58  1  0.24793937  0.74370013  0.49471770  1
  V  V59  1  -0.00132076  0.74054613  0.22876167  1
  V  V60  1  0.62507799  0.12249838  -0.00000629  1
  V  V61  1  0.37277727  -0.00032264  0.37641642  1
  V  V62  1  -0.00252279  0.37648405  0.87525723  1
  V  V63  1  0.37383639  0.87198698  0.50005739  1
  V  V64  1  0.00192012  0.50181282  0.49870579  1
  V  V65  1  0.49606101  0.75675894  0.75797333  1
  V  V66  1  0.36824364  0.61810065  0.74950225  1
  V  V67  1  0.37728914  0.49667394  0.37789547  1
  V  V68  1  0.75694337  0.75694108  0.49655242  1
  V  V69  1  0.50003704  0.87352476  0.37335990  1
  V  V70  1  0.50021470  0.12795807  0.12941049  1
  V  V71  1  0.61934563  -0.00879822  0.12884841  1
  V  V72  1  0.12808196  0.74994903  0.87159990  1
  V  V73  1  0.27358371  0.12724083  0.87649586  1
  V  V74  1  0.37735439  0.13351940  0.25175560  1
  V  V75  1  0.49553538  -0.00255641  -0.01426092  1
  V  V76  1  0.12514152  0.24956045  0.87727858  1
  V  V77  1  0.50269541  0.36456790  0.37307906  1
  V  V78  1  0.36993368  0.49847573  0.87359920  1
  V  V79  1  0.37465594  0.74556016  0.62087000  1
  V  V80  1  0.12429742  0.62475378  0.00716905  1
  V  V81  1  0.25101507  0.49968449  0.25051693  1
  V  V82  1  0.62820707  0.62620609  -0.01053703  1
  V  V83  1  0.00328187  0.87526655  0.87234344  1
  V  V84  1  0.25217322  0.25187836  0.00694487  1
  Zn  Zn85  1  0.12309596  0.62295690  0.49925181  1
  Zn  Zn86  1  0.74874717  0.88044650  0.61963682  1
  Zn  Zn87  1  0.12387225  0.02619476  0.60092032  1
  Zn  Zn88  1  0.62341998  -0.00116852  0.62421800  1
  Zn  Zn89  1  0.86456181  0.11610346  0.24888639  1
  Zn  Zn90  1  0.62024306  0.13247551  0.49572451  1
  Zn  Zn91  1  0.12256732  0.50453000  0.12959254  1
  Zn  Zn92  1  0.63023073  0.76125278  0.87539096  1
  Zn  Zn93  1  0.25631436  0.74818797  0.00200940  1
  Zn  Zn94  1  0.61172535  0.88371603  0.75264077  1
  Zn  Zn95  1  0.24889025  0.62243560  0.37178521  1
  Zn  Zn96  1  0.49544641  0.75370319  0.24486090  1
  Zn  Zn97  1  0.13277921  0.38046917  0.75607553  1
  Zn  Zn98  1  0.38417472  0.25494757  0.13198255  1
  Zn  Zn99  1  0.80061116  0.55025652  0.80203284  1
  Zn  Zn100  1  0.62862000  0.87338303  0.24663206  1
  Zn  Zn101  1  -0.01667450  -0.02108136  0.52622602  1
  Zn  Zn102  1  -0.00346323  0.12412570  0.12503025  1
  Zn  Zn103  1  0.87305727  0.24885643  0.12740114  1
  Zn  Zn104  1  0.62627942  0.25077092  0.87344040  1
  Zn  Zn105  1  0.25109279  -0.00818475  0.76745891  1
  Zn  Zn106  1  0.25912263  0.38628275  0.63330424  1
  Zn  Zn107  1  0.18735966  0.18695818  0.19265481  1
  Zn  Zn108  1  0.19557765  0.20209267  0.69295903  1
  Zn  Zn109  1  0.19266166  0.68931350  0.18515817  1
  Zn  Zn110  1  0.18166625  0.68429397  0.68830188  1
  Zn  Zn111  1  0.68453346  0.18625084  0.18410218  1
  Zn  Zn112  1  0.68142217  0.18320225  0.68590494  1
  Zn  Zn113  1  0.68833445  0.69097308  0.18083074  1
  Zn  Zn114  1  0.68447745  0.70894545  0.68507658  1
  Zn  Zn115  1  0.31538517  0.31398989  0.31645352  1
  Zn  Zn116  1  0.31237153  0.31356626  0.81304005  1
  Zn  Zn117  1  0.31093910  0.81044643  0.31188617  1
  Zn  Zn118  1  0.30979320  0.80472022  0.80796616  1
  Zn  Zn119  1  0.81360125  0.31445487  0.30969765  1
  Zn  Zn120  1  0.81284663  0.31478381  0.81465296  1
  Zn  Zn121  1  0.81467242  0.79568382  0.30378905  1
  Zn  Zn122  1  0.81352387  0.80883803  0.81873696  1
  Zn  Zn123  1  0.18619046  0.43902960  0.43579679  1
  Zn  Zn124  1  0.18536690  0.43857170  0.93803763  1
  Zn  Zn125  1  0.18622032  0.93200024  0.44135323  1
  Zn  Zn126  1  0.16933832  0.95947572  0.90698561  1
  Zn  Zn127  1  0.68873194  0.43754682  0.43414468  1
  Zn  Zn128  1  0.68228709  0.43767956  0.93880338  1
  Zn  Zn129  1  0.68296297  0.93595450  0.43660198  1
  Zn  Zn130  1  0.68456539  0.93502675  0.93229068  1
  Zn  Zn131  1  0.31658957  0.06154791  0.05998363  1
  Zn  Zn132  1  0.29776726  0.07289617  0.62885259  1
  Zn  Zn133  1  0.31160525  0.56278427  0.06305943  1
  Zn  Zn134  1  0.31259196  0.55983241  0.55903474  1
  Zn  Zn135  1  0.81577041  0.06900842  0.06101764  1
  Zn  Zn136  1  0.80990702  0.06211928  0.56323457  1
  Zn  Zn137  1  0.81398490  0.56582543  -0.03509030  1
  Zn  Zn138  1  0.81804439  0.56825767  0.55394476  1
  Zn  Zn139  1  0.44040407  0.44067391  0.19149418  1
  Zn  Zn140  1  0.44410688  0.43922654  0.68934880  1
  Zn  Zn141  1  0.44158439  0.94568527  0.19132128  1
  Zn  Zn142  1  0.42294067  0.93989769  0.68673988  1
  Zn  Zn143  1  0.93533425  0.43685987  0.18372461  1
  Zn  Zn144  1  0.93620960  0.43273545  0.68592986  1
  Zn  Zn145  1  0.96217573  0.94539639  0.20241758  1
  Zn  Zn146  1  0.94742605  0.93907849  0.69275054  1
  Zn  Zn147  1  0.06636640  0.04539537  0.39085543  1
  Zn  Zn148  1  0.06860675  0.06643409  0.80275728  1
  Zn  Zn149  1  0.06134849  0.56466557  0.30839212  1
  Zn  Zn150  1  -0.03958749  0.56130837  0.81882352  1
  Zn  Zn151  1  0.56452341  0.06384479  0.31260469  1
  Zn  Zn152  1  0.56538967  0.06572244  0.81115160  1
  Zn  Zn153  1  0.55963931  0.56125382  0.31104018  1
  Zn  Zn154  1  0.55680539  0.56304489  0.81415773  1
  Zn  Zn155  1  0.43313630  0.18705359  0.44344178  1
  Zn  Zn156  1  0.44498393  0.19501520  0.94728063  1
  Zn  Zn157  1  0.43822822  0.68256654  0.43400779  1
  Zn  Zn158  1  0.43341889  0.68699505  0.93850338  1
  Zn  Zn159  1  0.90383705  0.14585855  0.45778960  1
  Zn  Zn160  1  0.93818373  0.19014184  0.93764054  1
  Zn  Zn161  1  0.93631510  0.68781243  0.43529395  1
  Zn  Zn162  1  0.93732867  0.69064830  0.94617532  1
  Zn  Zn163  1  0.06405795  0.31601562  0.06692792  1
  Zn  Zn164  1  0.05833966  0.32170008  0.56724458  1
  Zn  Zn165  1  0.06942377  0.81727460  0.05382373  1
  Zn  Zn166  1  0.05606011  0.80684701  0.55461631  1
  Zn  Zn167  1  0.56586299  0.31190891  0.06450350  1
  Zn  Zn168  1  0.56451226  0.31527954  0.56471899  1
  Zn  Zn169  1  0.55968613  0.81343546  0.05382048  1
  Zn  Zn170  1  0.56617566  0.81233814  0.56470899  1
  O  O171  1  0.12819210  0.11615988  0.11970175  1
  O  O172  1  0.18872707  0.10689283  0.63755941  1
  O  O173  1  0.13503576  0.62331112  0.11107148  1
  O  O174  1  0.11319728  0.61654658  0.62121549  1
  O  O175  1  0.61876776  0.11440101  0.11867859  1
  O  O176  1  0.60957469  0.12361137  0.61733575  1
  O  O177  1  0.61637098  0.61853736  0.12008465  1
  O  O178  1  0.61995523  0.62213742  0.61695869  1
  O  O179  1  0.38692075  0.38964526  0.36577578  1
  O  O180  1  0.38586791  0.37803149  0.88147836  1
  O  O181  1  0.37899538  0.87539265  0.38297054  1
  O  O182  1  0.36653801  0.87821490  0.87943939  1
  O  O183  1  0.88042307  0.38406351  0.37802839  1
  O  O184  1  0.88532592  0.36796151  0.88536563  1
  O  O185  1  0.88423673  0.86246459  0.36674281  1
  O  O186  1  0.88432037  0.88075599  0.88503171  1
  O  O187  1  0.25455599  0.00771269  0.37298745  1
  O  O188  1  0.26397899  0.02351803  0.88852094  1
  O  O189  1  0.25907778  0.50076875  0.36925526  1
  O  O190  1  0.25720703  0.50761633  0.87968930  1
  O  O191  1  0.74588221  0.00866983  0.37613254  1
  O  O192  1  0.75840333  0.00840560  0.86935432  1
  O  O193  1  0.76056067  0.51129824  0.37891086  1
  O  O194  1  0.74743095  0.51016587  0.88979521  1
  O  O195  1  0.25050766  0.49111261  0.13309881  1
  O  O196  1  0.23243654  0.50304316  0.61756167  1
  O  O197  1  0.24890339  0.99140188  0.12780981  1
  O  O198  1  0.23613405  0.96593528  0.59922125  1
  O  O199  1  0.73653683  0.48490430  0.11861491  1
  O  O200  1  0.74375600  0.50019921  0.61065843  1
  O  O201  1  0.73957493  0.99738318  0.12098340  1
  O  O202  1  0.74778069  0.99983279  0.63262206  1
  O  O203  1  0.00790164  0.37142528  0.25156521  1
  O  O204  1  0.00433965  0.36620838  0.75978317  1
  O  O205  1  0.00818136  0.85402550  0.25292526  1
  O  O206  1  -0.00364531  0.86337303  0.76670642  1
  O  O207  1  0.51307529  0.37898023  0.25794043  1
  O  O208  1  0.50895788  0.37015040  0.75885059  1
  O  O209  1  0.49678816  0.87258726  0.26339679  1
  O  O210  1  0.48815481  0.85853724  0.73907351  1
  O  O211  1  0.49010861  0.11785830  0.24193726  1
  O  O212  1  0.50650440  0.13683396  0.74207857  1
  O  O213  1  0.49264260  0.62588844  0.24066970  1
  O  O214  1  0.49245694  0.63119725  0.74114179  1
  O  O215  1  0.99874317  0.14159421  0.25229883  1
  O  O216  1  0.99117960  0.13786419  0.76048698  1
  O  O217  1  0.99328036  0.63342992  0.24477952  1
  O  O218  1  1.00340108  0.63860023  0.74220563  1
  O  O219  1  0.36835846  0.26003188  0.00779075  1
  O  O220  1  0.36722487  0.25575441  0.50753531  1
  O  O221  1  0.37622820  0.76959316  -0.00572125  1
  O  O222  1  0.36799995  0.75093019  0.49942872  1
  O  O223  1  0.86749857  0.25899449  0.00357239  1
  O  O224  1  0.86317697  0.25199508  0.50723051  1
  O  O225  1  0.86818173  0.76124164  0.00514422  1
  O  O226  1  0.86600925  0.74483635  0.50778188  1
  O  O227  1  0.12972817  0.25782155  0.49690294  1
  O  O228  1  0.13278549  0.24818011  0.99831983  1
  O  O229  1  0.13062010  0.74552111  0.48828946  1
  O  O230  1  0.12763068  0.73961541  0.99142751  1
  O  O231  1  0.64201871  0.25498175  0.50558177  1
  O  O232  1  0.63297353  0.24349529  0.99799213  1
  O  O233  1  0.62940975  0.73878745  0.48911404  1
  O  O234  1  0.62661850  0.74199300  0.99536091  1
  O  O235  1  0.50095569  0.23265217  0.11728277  1
  O  O236  1  0.49706637  0.24789183  0.63109159  1
  O  O237  1  0.50450224  0.73842579  0.12530201  1
  O  O238  1  0.49420319  0.73651792  0.62610239  1
  O  O239  1  0.99962734  0.24833076  0.13507891  1
  O  O240  1  0.99455510  0.25404539  0.63712718  1
  O  O241  1  1.00956921  0.75208774  0.13180658  1
  O  O242  1  0.99355783  0.74408274  0.63159877  1
  O  O243  1  0.01038346  0.26135296  0.36402298  1
  O  O244  1  0.00821103  0.25852182  0.87155862  1
  O  O245  1  0.00547901  0.75400983  0.36612452  1
  O  O246  1  0.00437927  0.75401952  0.87044631  1
  O  O247  1  0.49418990  0.26644088  0.38621252  1
  O  O248  1  0.50298287  0.25885989  0.86914315  1
  O  O249  1  0.50766763  0.75568938  0.37476938  1
  O  O250  1  0.49332487  0.74535090  0.85828362  1
  O  O251  1  0.25417105  0.13825376  0.48709762  1
  O  O252  1  0.24770407  0.13646558  0.99856017  1
  O  O253  1  0.24831795  0.63394343  0.49587175  1
  O  O254  1  0.24722430  0.62760513  0.99244305  1
  O  O255  1  0.74535548  0.13788142  0.48790740  1
  O  O256  1  0.74567587  0.13303467  0.99502909  1
  O  O257  1  0.74387581  0.63405406  0.48808065  1
  O  O258  1  0.73697393  0.63711403  1.00949727  1
  O  O259  1  0.25543898  0.37056898  0.00805651  1
  O  O260  1  0.24730127  0.36863528  0.50200259  1
  O  O261  1  0.26957349  0.87959976  0.01165077  1
  O  O262  1  0.25652405  0.85667535  0.49790584  1
  O  O263  1  0.75451442  0.36777630  0.00526315  1
  O  O264  1  0.76181542  0.36635470  0.49178979  1
  O  O265  1  0.76446537  0.87706937  -0.00289102  1
  O  O266  1  0.74352665  0.86012773  0.49793602  1
  O  O267  1  0.13286721  0.49440927  0.24906765  1
  O  O268  1  0.12101736  0.50356835  0.73667686  1
  O  O269  1  0.13423292  0.99163602  0.23425617  1
  O  O270  1  0.14226830  0.98692900  0.79481521  1
  O  O271  1  0.62255486  0.49745011  0.23819588  1
  O  O272  1  0.61835551  0.49007244  0.74542874  1
  O  O273  1  0.61750911  0.99503423  0.23417538  1
  O  O274  1  0.63646759  1.00322849  0.74624176  1
  O  O275  1  0.36896419  0.00928595  0.25820143  1
  O  O276  1  0.34721649  0.01382959  0.71595675  1
  O  O277  1  0.36988834  0.50889118  0.25597922  1
  O  O278  1  0.38271917  0.51203807  0.75643132  1
  O  O279  1  0.86093048  -0.00712085  0.23615549  1
  O  O280  1  0.87319896  0.00991889  0.75629716  1
  O  O281  1  0.88175724  0.50648238  0.25920001  1
  O  O282  1  0.88766577  0.50803123  0.74816089  1
  O  O283  1  0.11897762  0.38062975  0.36135954  1
  O  O284  1  0.11943372  0.36334266  0.87882882  1
  O  O285  1  0.12616298  0.85943806  0.36324346  1
  O  O286  1  0.11130352  0.85991768  0.89601887  1
  O  O287  1  0.61981736  0.38053703  0.35945381  1
  O  O288  1  0.61238301  0.37466056  0.87059810  1
  O  O289  1  0.61582541  0.86576175  0.37196811  1
  O  O290  1  0.62112293  0.87496195  0.86552488  1
  O  O291  1  0.38245487  0.12514668  0.13439953  1
  O  O292  1  0.38974753  0.14569681  0.61960369  1
  O  O293  1  0.38497445  0.61959690  0.13258327  1
  O  O294  1  0.37956279  0.62639503  0.63051380  1
  O  O295  1  0.87747289  0.12993195  0.13348649  1
  O  O296  1  0.87215466  0.13622449  0.64028947  1
  O  O297  1  0.86791456  0.61047745  0.13060874  1
  O  O298  1  0.88650952  0.63411543  0.61984949  1
  O  O299  1  0.25063042  0.25672575  0.11836501  1
  O  O300  1  0.26248110  0.26026627  0.61543082  1
  O  O301  1  0.24895787  0.76793485  0.12147007  1
  O  O302  1  0.25423707  0.75082449  0.61490079  1
  O  O303  1  0.74689793  0.25737716  0.11366343  1
  O  O304  1  0.75701400  0.24658301  0.62090392  1
  O  O305  1  0.73736540  0.76218722  0.10717437  1
  O  O306  1  0.75997741  0.75366152  0.61506681  1
  O  O307  1  0.25414347  0.24601353  0.38444009  1
  O  O308  1  0.24560128  0.24996820  0.89259222  1
  O  O309  1  0.24143606  0.74492266  0.37862189  1
  O  O310  1  0.24264576  0.74305964  0.87796028  1
  O  O311  1  0.74700346  0.25350836  0.38304737  1
  O  O312  1  0.74959894  0.24590129  0.88671883  1
  O  O313  1  0.74355647  0.74189341  0.37874818  1
  O  O314  1  0.74731423  0.75607963  0.89382601  1
  O  O315  1  0.00690399  0.11926913  0.00188514  1
  O  O316  1  0.02017497  0.14390879  0.46801631  1
  O  O317  1  0.01204250  0.61362858  -0.00419173  1
  O  O318  1  -0.00124600  0.61677450  0.50608482  1
  O  O319  1  0.50463913  0.11416154  0.00652606  1
  O  O320  1  0.49933162  0.11476682  0.50450472  1
  O  O321  1  0.50249196  0.62107862  0.00666073  1
  O  O322  1  0.50903110  0.61893637  0.50496769  1
  O  O323  1  0.51256419  0.38992906  0.49300679  1
  O  O324  1  0.49712037  0.37917605  0.99473163  1
  O  O325  1  0.49332280  0.87525103  0.49122672  1
  O  O326  1  0.48692762  0.88659533  0.99842648  1
  O  O327  1  0.99026284  0.38098058  0.49118665  1
  O  O328  1  0.99246185  0.37567966  0.99603726  1
  O  O329  1  0.99641887  0.86986787  0.47887961  1
  O  O330  1  0.98900579  0.88119718  0.99649425  1
  O  O331  1  0.49503242  0.49529519  0.38195419  1
  O  O332  1  0.49230499  0.49290882  0.88197924  1
  O  O333  1  0.49419351  0.99108636  0.38069120  1
  O  O334  1  0.50084730  1.00797804  0.88766592  1
  O  O335  1  0.99282499  0.49898904  0.37998141  1
  O  O336  1  1.00814454  0.48202349  0.88885694  1
  O  O337  1  0.99616520  0.97103569  0.34557625  1
  O  O338  1  0.99518097  0.99218255  0.88099116  1
  O  O339  1  0.01460791  0.00265098  0.11973385  1
  O  O340  1  0.01963301  -0.00395176  0.63226571  1
  O  O341  1  0.00538521  0.49116157  0.11066754  1
  O  O342  1  0.00618640  0.50680672  0.61643825  1
  O  O343  1  0.50570225  0.00871051  0.11690866  1
  O  O344  1  0.49607191  0.00785194  0.61797893  1
  O  O345  1  0.50640980  0.50850041  0.12074767  1
  O  O346  1  0.49749764  0.51288765  0.61626568  1
  O  O347  1  0.24438570  0.37814803  0.24722473  1
  O  O348  1  0.24508139  0.36994564  0.74630853  1
  O  O349  1  0.24787766  0.87970008  0.24043154  1
  O  O350  1  0.25408646  0.86854799  0.73076205  1
  O  O351  1  0.73615776  0.36988501  0.24146911  1
  O  O352  1  0.73315916  0.37380864  0.75777976  1
  O  O353  1  0.74921728  0.87065910  0.24342813  1
  O  O354  1  0.75934085  0.89104942  0.75137650  1
  O  O355  1  0.25822548  0.12047940  0.25772114  1
  O  O356  1  0.25452301  0.14416364  0.77919669  1
  O  O357  1  0.25770176  0.61767018  0.24868313  1
  O  O358  1  0.25820743  0.62990767  0.75815031  1
  O  O359  1  0.74107961  0.12336178  0.25929660  1
  O  O360  1  0.75689626  0.11909173  0.75503322  1
  O  O361  1  0.75941378  0.63494864  0.25679050  1
  O  O362  1  0.72911811  0.60996842  0.72882714  1
  O  O363  1  0.37015113  0.12001434  0.37020643  1
  O  O364  1  0.37165638  0.13738005  0.88385793  1
  O  O365  1  0.37589983  0.61243431  0.36600504  1
  O  O366  1  0.36459899  0.62069527  0.86843390  1
  O  O367  1  0.84712419  0.13463708  0.36062098  1
  O  O368  1  0.86940464  0.12362542  0.86753746  1
  O  O369  1  0.86812088  0.61795793  0.36913908  1
  O  O370  1  0.88039266  0.61630848  0.88257657  1
  O  O371  1  0.13422759  0.37812367  0.13665979  1
  O  O372  1  0.12121321  0.39447737  0.62755217  1
  O  O373  1  0.13643645  0.88252464  0.12554690  1
  O  O374  1  0.13279404  0.85376883  0.62480402  1
  O  O375  1  0.62590312  0.38147254  0.13562924  1
  O  O376  1  0.62452213  0.37888990  0.64014846  1
  O  O377  1  0.61380326  0.88731309  0.12474865  1
  O  O378  1  0.62913790  0.87645892  0.63413116  1
  O  O379  1  0.11326326  0.25950406  0.24520833  1
  O  O380  1  0.11681028  0.25209699  0.76019540  1
  O  O381  1  0.11685627  0.74760872  0.25218623  1
  O  O382  1  0.11705351  0.74486003  0.76584180  1
  O  O383  1  0.62014406  0.26216660  0.24436590  1
  O  O384  1  0.61750925  0.26084418  0.75073501  1
  O  O385  1  0.62203544  0.75064074  0.26087737  1
  O  O386  1  0.60610051  0.75031448  0.75295717  1
  O  O387  1  0.37206538  0.23725400  0.24986630  1
  O  O388  1  0.39041912  0.25731110  0.74371394  1
  O  O389  1  0.37591118  0.73362060  0.25667331  1
  O  O390  1  0.38146358  0.73775633  0.74246843  1
  O  O391  1  0.89245629  0.25834291  0.24792405  1
  O  O392  1  0.88008250  0.24738094  0.74421628  1
  O  O393  1  0.89011903  0.73675741  0.24150477  1
  O  O394  1  0.88266880  0.75234848  0.74162776  1
  O  O395  1  0.38719579  0.50567609  0.48997186  1
  O  O396  1  0.38090445  0.49427869  0.99496996  1
  O  O397  1  0.38571832  0.98543466  0.49302261  1
  O  O398  1  0.38887201  0.99001766  1.00383557  1
  O  O399  1  0.88406376  0.49244619  0.49150625  1
  O  O400  1  0.88531222  0.48387501  1.00423387  1
  O  O401  1  0.89410966  1.03805471  0.49658155  1
  O  O402  1  0.88082505  0.99680541  0.99490930  1
  O  O403  1  0.12227243  0.00602461  0.00648059  1
  O  O404  1  0.10615956  -0.00327789  0.48652938  1
  O  O405  1  0.11937042  0.50746914  0.00319562  1
  O  O406  1  0.11040101  0.50119791  0.49840143  1
  O  O407  1  0.61339997  0.00210144  0.00663264  1
  O  O408  1  0.60819249  -0.00401712  0.50158419  1
  O  O409  1  0.61586849  0.50768204  0.01066099  1
  O  O410  1  0.61952130  0.51367279  0.49103614  1
  O  O411  1  0.37075866  0.37463698  0.12366225  1
  O  O412  1  0.38094075  0.36858528  0.62634851  1
  O  O413  1  0.36815058  0.87828171  0.13113028  1
  O  O414  1  0.36984451  0.86299751  0.60893709  1
  O  O415  1  0.86330060  0.37233330  0.11910553  1
  O  O416  1  0.87996571  0.36488879  0.61194160  1
  O  O417  1  0.87069184  0.88791131  0.12332058  1
  O  O418  1  0.87720027  0.86611216  0.62571403  1
  O  O419  1  0.13548815  0.13637708  0.36578817  1
  O  O420  1  0.12755730  0.14098266  0.88595054  1
  O  O421  1  0.12511881  0.63544082  0.37425667  1
  O  O422  1  0.13836408  0.63110479  0.88553080  1
  O  O423  1  0.63437686  0.12409790  0.37855975  1
  O  O424  1  0.63449730  0.12798756  0.88214460  1
  O  O425  1  0.63126328  0.62957946  0.37659229  1
  O  O426  1  0.61560001  0.62728265  0.88786247  1
