# generated using pymatgen
data_V85Zn86O256
_symmetry_space_group_name_H-M   'P 1'
_cell_length_a   16.97195067
_cell_length_b   16.95540815
_cell_length_c   16.98082254
_cell_angle_alpha   89.91235605
_cell_angle_beta   89.91158130
_cell_angle_gamma   90.04333930
_symmetry_Int_Tables_number   1
_chemical_formula_structural   V85Zn86O256
_chemical_formula_sum   'V85 Zn86 O256'
_cell_volume   4886.49639113
_cell_formula_units_Z   1
loop_
 _symmetry_equiv_pos_site_id
 _symmetry_equiv_pos_as_xyz
  1  'x, y, z'
loop_
 _atom_site_type_symbol
 _atom_site_label
 _atom_site_symmetry_multiplicity
 _atom_site_fract_x
 _atom_site_fract_y
 _atom_site_fract_z
 _atom_site_occupancy
  V  V0  1  0.24906062  0.74850185  0.49611766  1
  V  V1  1  0.50072981  0.74773378  0.24747774  1
  V  V2  1  0.13909786  0.24674909  0.87757178  1
  V  V3  1  0.12795576  0.00048218  0.62418305  1
  V  V4  1  0.37535466  0.12734221  0.24710748  1
  V  V5  1  0.49974214  0.12770165  0.62847335  1
  V  V6  1  0.62333639  0.74740145  0.37858159  1
  V  V7  1  0.00015332  0.12190260  0.11337323  1
  V  V8  1  0.63412406  0.62050577  -0.00107935  1
  V  V9  1  0.50497090  0.38042049  0.36865695  1
  V  V10  1  0.25276478  0.73855025  -0.00525077  1
  V  V11  1  0.51385210  0.62228111  0.62175468  1
  V  V12  1  0.37447273  0.51456082  0.86994326  1
  V  V13  1  -0.00215332  0.75211158  0.75024623  1
  V  V14  1  0.00170798  -0.00006245  0.49720713  1
  V  V15  1  0.87160753  0.50319781  0.87348806  1
  V  V16  1  0.62630085  0.74761034  0.87492050  1
  V  V17  1  0.74847524  0.37308940  0.13305860  1
  V  V18  1  0.50278877  -0.00195818  0.50353995  1
  V  V19  1  0.87902690  -0.00277251  0.88791525  1
  V  V20  1  0.37366790  0.73766667  0.62902350  1
  V  V21  1  0.87407106  0.74758157  0.63050431  1
  V  V22  1  0.50290799  0.62493752  0.12441952  1
  V  V23  1  0.37456411  0.38069064  0.49381745  1
  V  V24  1  0.86708650  0.37867927  0.50184825  1
  V  V25  1  0.36887692  0.25841531  0.11764205  1
  V  V26  1  0.49579075  0.73975278  0.75146664  1
  V  V27  1  0.74411293  0.74537525  0.50215022  1
  V  V28  1  -0.01099962  0.76162741  0.25914477  1
  V  V29  1  0.12576033  0.37734599  0.75050738  1
  V  V30  1  0.50847930  0.12186511  0.12292039  1
  V  V31  1  0.50037360  0.49585087  -0.00148972  1
  V  V32  1  0.87075215  0.12576317  0.25417044  1
  V  V33  1  0.62824738  0.49480308  0.13301890  1
  V  V34  1  0.14484404  0.12114432  -0.00379656  1
  V  V35  1  0.49950527  0.37453192  0.86686832  1
  V  V36  1  0.00211780  0.12597457  0.62521879  1
  V  V37  1  0.86584070  0.00504671  0.37799868  1
  V  V38  1  0.49821578  0.87735358  0.87343591  1
  V  V39  1  0.87635341  0.12341464  0.75263631  1
  V  V40  1  0.25326346  0.51492583  0.75148563  1
  V  V41  1  0.51050189  0.50531057  0.50116464  1
  V  V42  1  0.87187598  0.37268919  -0.00287475  1
  V  V43  1  0.37396750  -0.00247468  0.37538262  1
  V  V44  1  0.25577616  0.01444992  0.75550550  1
  V  V45  1  0.62637425  0.87845767  0.24868561  1
  V  V46  1  0.62035840  0.24546750  0.87167928  1
  V  V47  1  0.87713381  0.87352635  0.49662506  1
  V  V48  1  0.25230458  0.25289398  0.49799613  1
  V  V49  1  0.38033951  0.25174628  0.62638572  1
  V  V50  1  0.75348866  0.75363772  -0.00154265  1
  V  V51  1  0.24679774  0.87228369  0.12440187  1
  V  V52  1  -0.00016657  0.37689434  0.87416221  1
  V  V53  1  0.74889746  0.50147832  0.73746504  1
  V  V54  1  0.62922731  0.37292174  0.73753124  1
  V  V55  1  0.25035335  0.38004729  0.62422355  1
  V  V56  1  0.11934020  -0.00260436  0.11931025  1
  V  V57  1  0.11274769  0.62467104  0.00252881  1
  V  V58  1  0.87558980  0.25012712  0.12326684  1
  V  V59  1  0.00522186  0.24866849  0.25205742  1
  V  V60  1  0.37442164  0.87941935  -0.00437049  1
  V  V61  1  0.00141773  0.24913602  0.75001799  1
  V  V62  1  0.86558173  0.61834483  0.25443216  1
  V  V63  1  0.24420709  -0.00587757  0.24773129  1
  V  V64  1  0.12714754  0.12527465  0.49455169  1
  V  V65  1  0.37858184  0.74578481  0.11938008  1
  V  V66  1  -0.00522049  0.62319075  0.63060299  1
  V  V67  1  -0.00286225  0.49981129  0.50004451  1
  V  V68  1  0.25203772  0.87556373  0.63062438  1
  V  V69  1  0.00243939  0.37585611  0.37625339  1
  V  V70  1  0.87408829  0.74735821  0.12468366  1
  V  V71  1  0.25402571  0.12539959  0.37516117  1
  V  V72  1  0.12865416  0.74717198  0.87204439  1
  V  V73  1  0.75052167  0.87351548  0.62692269  1
  V  V74  1  0.75379575  0.87840229  0.12158277  1
  V  V75  1  0.74533408  0.61714124  0.38032884  1
  V  V76  1  0.74081874  0.24410505  -0.00186543  1
  V  V77  1  0.12559735  0.63042217  0.49780914  1
  V  V78  1  -0.00257641  0.87608629  0.89234893  1
  V  V79  1  0.86500640  0.25225556  0.62596085  1
  V  V80  1  0.37547015  0.87424598  0.49994435  1
  V  V81  1  0.36093775  0.51658193  0.36433040  1
  V  V82  1  0.50448048  0.25908558  0.24794537  1
  V  V83  1  0.62530921  0.87260516  0.74929282  1
  V  V84  1  0.75358401  -0.00045464  0.75125225  1
  Zn  Zn85  1  0.35639037  0.37780204  -0.00348293  1
  Zn  Zn86  1  0.43106622  0.18777971  0.78986645  1
  Zn  Zn87  1  0.74423429  0.12096754  0.87902490  1
  Zn  Zn88  1  0.01846332  0.87793670  0.37122529  1
  Zn  Zn89  1  0.49956676  0.87342194  0.37435338  1
  Zn  Zn90  1  0.22318934  0.40626970  0.13403674  1
  Zn  Zn91  1  0.63473239  0.12726937  0.49499140  1
  Zn  Zn92  1  0.75290117  0.24009908  0.48799425  1
  Zn  Zn93  1  0.74502696  0.48964155  0.26226926  1
  Zn  Zn94  1  0.75517539  0.62356336  0.87003346  1
  Zn  Zn95  1  0.03369264  0.60069106  0.16248356  1
  Zn  Zn96  1  0.74668718  0.00516961  0.25187512  1
  Zn  Zn97  1  0.14797559  0.74256258  0.33727214  1
  Zn  Zn98  1  0.13078324  0.26079523  0.37186887  1
  Zn  Zn99  1  0.37050758  0.01869389  0.87489752  1
  Zn  Zn100  1  0.63117036  0.00491262  0.11328084  1
  Zn  Zn101  1  0.50499805  0.00476027  -0.00527799  1
  Zn  Zn102  1  0.12370332  0.87920565  0.75251073  1
  Zn  Zn103  1  0.03956791  0.46451412  0.03841483  1
  Zn  Zn104  1  0.12445182  0.50215818  0.62662142  1
  Zn  Zn105  1  0.62631479  0.00240389  0.62472431  1
  Zn  Zn106  1  0.63576692  0.24813345  0.37143166  1
  Zn  Zn107  1  0.20981408  0.23047942  0.20784039  1
  Zn  Zn108  1  0.18885053  0.19189305  0.68488984  1
  Zn  Zn109  1  0.20839767  0.58536091  0.21663190  1
  Zn  Zn110  1  0.18097122  0.69036068  0.68268667  1
  Zn  Zn111  1  0.68827652  0.19188853  0.19298841  1
  Zn  Zn112  1  0.68312504  0.18495896  0.68677217  1
  Zn  Zn113  1  0.68815626  0.68755438  0.18741788  1
  Zn  Zn114  1  0.68827234  0.68313201  0.69083145  1
  Zn  Zn115  1  0.31442179  0.32518575  0.30715569  1
  Zn  Zn116  1  0.31284680  0.32642402  0.81153788  1
  Zn  Zn117  1  0.29196841  0.76651475  0.28179157  1
  Zn  Zn118  1  0.31341622  0.81305671  0.81126693  1
  Zn  Zn119  1  0.82138978  0.31300369  0.31485472  1
  Zn  Zn120  1  0.80723189  0.31306122  0.81058147  1
  Zn  Zn121  1  0.80899986  0.81396031  0.31410522  1
  Zn  Zn122  1  0.81590493  0.81374614  0.81566675  1
  Zn  Zn123  1  0.18539040  0.44574845  0.43553836  1
  Zn  Zn124  1  0.19284634  0.43888870  0.93740394  1
  Zn  Zn125  1  0.18752191  0.92728253  0.43241694  1
  Zn  Zn126  1  0.18594779  0.93567523  0.93718124  1
  Zn  Zn127  1  0.68374207  0.43014853  0.44247978  1
  Zn  Zn128  1  0.68791973  0.43289583  0.93576473  1
  Zn  Zn129  1  0.68694815  0.93443621  0.43832361  1
  Zn  Zn130  1  0.68639862  0.93786349  0.93738725  1
  Zn  Zn131  1  0.31848662  0.06126841  0.06544197  1
  Zn  Zn132  1  0.31647689  0.06473247  0.56617969  1
  Zn  Zn133  1  0.31097279  0.55898339  0.06071648  1
  Zn  Zn134  1  0.31406175  0.56238502  0.55845371  1
  Zn  Zn135  1  0.81082379  0.06503059  0.06430278  1
  Zn  Zn136  1  0.81236961  0.06458159  0.56542473  1
  Zn  Zn137  1  0.86180611  0.52757222  0.09835877  1
  Zn  Zn138  1  0.81258485  0.56372082  0.56280843  1
  Zn  Zn139  1  0.43103479  0.44284563  0.18785536  1
  Zn  Zn140  1  0.43786746  0.44002907  0.68704152  1
  Zn  Zn141  1  0.43591387  0.93567644  0.18698229  1
  Zn  Zn142  1  0.43537213  0.93623142  0.68879960  1
  Zn  Zn143  1  1.04626724  0.43930350  0.19860590  1
  Zn  Zn144  1  0.93284795  0.43703634  0.68803764  1
  Zn  Zn145  1  0.93168631  0.94022852  0.18474142  1
  Zn  Zn146  1  0.93854528  0.93666226  0.68802651  1
  Zn  Zn147  1  0.05964689  0.06311389  0.30963762  1
  Zn  Zn148  1  0.06604311  0.05970802  0.81560538  1
  Zn  Zn149  1  0.05037568  0.57184060  0.32814846  1
  Zn  Zn150  1  0.06250601  0.56316553  0.81379405  1
  Zn  Zn151  1  0.56074463  0.06123879  0.31208760  1
  Zn  Zn152  1  0.56494284  0.05872885  0.81143307  1
  Zn  Zn153  1  0.55921123  0.56517512  0.31402449  1
  Zn  Zn154  1  0.56695290  0.55891185  0.81038261  1
  Zn  Zn155  1  0.47134381  0.17267891  0.42124310  1
  Zn  Zn156  1  0.43948721  0.18938118  0.94891834  1
  Zn  Zn157  1  0.43729034  0.68777415  0.43884640  1
  Zn  Zn158  1  0.44213265  0.68613794  0.93946009  1
  Zn  Zn159  1  0.93530519  0.18996806  0.43823532  1
  Zn  Zn160  1  0.93670824  0.18934707  0.93397272  1
  Zn  Zn161  1  0.93242346  0.68523969  0.43848325  1
  Zn  Zn162  1  0.93511817  0.68908699  0.93619604  1
  Zn  Zn163  1  0.06880518  0.29958201  0.06107240  1
  Zn  Zn164  1  0.06290328  0.31227540  0.56234209  1
  Zn  Zn165  1  0.06530739  0.80332438  0.06972207  1
  Zn  Zn166  1  0.06297264  0.81488317  0.56239796  1
  Zn  Zn167  1  0.56141245  0.31276961  0.06066352  1
  Zn  Zn168  1  0.56268950  0.31080966  0.55525539  1
  Zn  Zn169  1  0.56733694  0.81747107  0.05991640  1
  Zn  Zn170  1  0.56206230  0.81141239  0.56580020  1
  O  O171  1  0.11810571  0.11546313  0.10795231  1
  O  O172  1  0.12337120  0.12108054  0.61314255  1
  O  O173  1  0.12666297  0.63280027  0.10297091  1
  O  O174  1  0.10844341  0.62559317  0.61791063  1
  O  O175  1  0.61142507  0.12309324  0.13794184  1
  O  O176  1  0.61478977  0.12186381  0.61950029  1
  O  O177  1  0.62286844  0.61802577  0.11643358  1
  O  O178  1  0.61300990  0.63104183  0.62268788  1
  O  O179  1  0.38040770  0.38740525  0.37939704  1
  O  O180  1  0.38595104  0.38421767  0.87790585  1
  O  O181  1  0.37604206  0.88051135  0.39308126  1
  O  O182  1  0.38158963  0.87475811  0.88364108  1
  O  O183  1  0.88818591  0.37189855  0.39381472  1
  O  O184  1  0.88075825  0.37613280  0.87847614  1
  O  O185  1  0.87061873  0.88062896  0.38963988  1
  O  O186  1  0.88953737  0.88076245  0.87409911  1
  O  O187  1  0.25457751  0.00304803  0.36670340  1
  O  O188  1  0.24900994  -0.00477592  0.85853529  1
  O  O189  1  0.26038581  0.50097262  0.37117389  1
  O  O190  1  0.26183164  0.49739084  0.86254261  1
  O  O191  1  0.76227401  -0.00442096  0.37479062  1
  O  O192  1  0.75949500  -0.00272235  0.86554711  1
  O  O193  1  0.73695737  0.51269658  0.37913709  1
  O  O194  1  0.75777484  0.49804815  0.86903455  1
  O  O195  1  0.25998920  0.51493056  0.14740065  1
  O  O196  1  0.25094285  0.49146529  0.62906350  1
  O  O197  1  0.24375154  0.99313739  0.12885325  1
  O  O198  1  0.24811994  0.99393443  0.63214078  1
  O  O199  1  0.74613666  0.48725565  0.12457482  1
  O  O200  1  0.75410000  0.50154938  0.63844254  1
  O  O201  1  0.74917914  0.99285006  0.12896361  1
  O  O202  1  0.75310659  0.99205217  0.63774109  1
  O  O203  1  -0.00525969  0.36333581  0.26457979  1
  O  O204  1  0.00646084  0.36842478  0.75304320  1
  O  O205  1  -0.01756954  0.86609412  0.25528386  1
  O  O206  1  0.00227266  0.86298779  0.75081432  1
  O  O207  1  0.49442485  0.37042144  0.25555585  1
  O  O208  1  0.51223079  0.38640768  0.76048995  1
  O  O209  1  0.50870318  0.86681793  0.24882783  1
  O  O210  1  0.50371274  0.86429959  0.75495458  1
  O  O211  1  0.48834564  0.13131667  0.24315540  1
  O  O212  1  0.50356010  0.11910794  0.73400238  1
  O  O213  1  0.50855356  0.63986936  0.24043731  1
  O  O214  1  0.50562217  0.63417329  0.74297397  1
  O  O215  1  0.98944528  0.12790992  0.24052085  1
  O  O216  1  0.99722666  0.12907910  0.74646996  1
  O  O217  1  0.97535568  0.63865387  0.25787116  1
  O  O218  1  1.00351985  0.63921100  0.74336832  1
  O  O219  1  0.38713546  0.26374199  0.01450550  1
  O  O220  1  0.36910789  0.26824962  0.50755716  1
  O  O221  1  0.37099856  0.75712842  -0.00041231  1
  O  O222  1  0.37237985  0.75673308  0.51090301  1
  O  O223  1  0.86703946  0.25646380  0.00099938  1
  O  O224  1  0.87720239  0.25978403  0.51028398  1
  O  O225  1  0.86061180  0.74080172  0.00747075  1
  O  O226  1  0.86857221  0.75675465  0.51050331  1
  O  O227  1  0.13326921  0.24091873  0.49859966  1
  O  O228  1  0.12497701  0.23161878  0.99076123  1
  O  O229  1  0.13740750  0.74407732  0.51427930  1
  O  O230  1  0.13344635  0.74457183  0.99194370  1
  O  O231  1  0.63181193  0.25085599  0.49322644  1
  O  O232  1  0.63023715  0.25487909  0.98738968  1
  O  O233  1  0.63315806  0.75683867  0.49226278  1
  O  O234  1  0.63237579  0.74325473  0.99406366  1
  O  O235  1  0.49553615  0.24259214  0.13084284  1
  O  O236  1  0.49105224  0.24156356  0.61744477  1
  O  O237  1  0.49880274  0.74794333  0.12744751  1
  O  O238  1  0.49342159  0.74293892  0.63203198  1
  O  O239  1  0.99534853  0.24088797  0.13221873  1
  O  O240  1  0.99670016  0.24298115  0.63245929  1
  O  O241  1  0.97839068  0.75398719  0.12877514  1
  O  O242  1  0.99235010  0.74619457  0.63103024  1
  O  O243  1  0.00182613  0.25697911  0.36973182  1
  O  O244  1  0.00476849  0.25895712  0.86634201  1
  O  O245  1  -0.01604263  0.75726129  0.36429425  1
  O  O246  1  0.00116026  0.75983864  0.86787418  1
  O  O247  1  0.48643272  0.26793142  0.36132391  1
  O  O248  1  0.50396543  0.25883836  0.87073820  1
  O  O249  1  0.50534547  0.75167934  0.36723802  1
  O  O250  1  0.50343436  0.75673454  0.86742639  1
  O  O251  1  0.24575033  0.12873028  0.49473462  1
  O  O252  1  0.24266343  0.11739447  0.99757372  1
  O  O253  1  0.23787411  0.63464143  0.51067944  1
  O  O254  1  0.24528750  0.63665158  0.99663950  1
  O  O255  1  0.74905412  0.12441786  0.50010714  1
  O  O256  1  0.75251692  0.13933982  0.99827739  1
  O  O257  1  0.75444175  0.63715530  0.49570566  1
  O  O258  1  0.73740554  0.63225490  0.99528122  1
  O  O259  1  0.24706314  0.39001841  0.01975667  1
  O  O260  1  0.25423320  0.37619771  0.50548194  1
  O  O261  1  0.25829433  0.87123710  0.00509782  1
  O  O262  1  0.25781344  0.87207626  0.51404720  1
  O  O263  1  0.75459522  0.36256679  0.00393837  1
  O  O264  1  0.76534941  0.37521997  0.49990629  1
  O  O265  1  0.74491449  0.86363429  0.00740560  1
  O  O266  1  0.75623802  0.86550330  0.50734485  1
  O  O267  1  0.10295751  0.53140381  0.23854278  1
  O  O268  1  0.13216119  0.49478820  0.74915922  1
  O  O269  1  0.13933295  1.00852453  0.24030573  1
  O  O270  1  0.13514426  0.99923376  0.74217434  1
  O  O271  1  0.62654144  0.50591347  0.23613528  1
  O  O272  1  0.63868359  0.48757068  0.75419530  1
  O  O273  1  0.62586303  0.98826440  0.25248052  1
  O  O274  1  0.63701795  0.99094773  0.74954615  1
  O  O275  1  0.36399044  0.00550351  0.25138459  1
  O  O276  1  0.35935255  -0.00352459  0.75117129  1
  O  O277  1  0.38395221  0.50838210  0.26638020  1
  O  O278  1  0.36619568  0.49724558  0.75740936  1
  O  O279  1  0.87344889  0.00800446  0.26064418  1
  O  O280  1  0.87029807  0.00344557  0.75581135  1
  O  O281  1  0.86296027  0.51860425  0.24939315  1
  O  O282  1  0.85869518  0.48880827  0.75918115  1
  O  O283  1  0.10928943  0.37599475  0.38513191  1
  O  O284  1  0.11672721  0.36842469  0.87186339  1
  O  O285  1  0.12858887  0.85267451  0.37589770  1
  O  O286  1  0.11212262  0.86725879  0.87455650  1
  O  O287  1  0.60762695  0.37664997  0.37519405  1
  O  O288  1  0.61741252  0.36652281  0.86718211  1
  O  O289  1  0.62404417  0.86438750  0.36747162  1
  O  O290  1  0.61689487  0.86662061  0.86872542  1
  O  O291  1  0.38656411  0.13062772  0.13097358  1
  O  O292  1  0.38051110  0.14064803  0.62314719  1
  O  O293  1  0.38698457  0.64047156  0.11146318  1
  O  O294  1  0.38306837  0.63579683  0.61993019  1
  O  O295  1  0.88214237  0.12997300  0.13068522  1
  O  O296  1  0.88485639  0.13048664  0.63335626  1
  O  O297  1  0.85794697  0.63530225  0.14362462  1
  O  O298  1  0.88547058  0.63457738  0.62188930  1
  O  O299  1  0.27237079  0.23295148  0.11315820  1
  O  O300  1  0.25534007  0.26298847  0.61827352  1
  O  O301  1  0.26446532  0.75977482  0.11042527  1
  O  O302  1  0.25821056  0.75742207  0.62293848  1
  O  O303  1  0.75211809  0.25460686  0.11790750  1
  O  O304  1  0.76421478  0.24448006  0.62686324  1
  O  O305  1  0.75287516  0.75689734  0.11697052  1
  O  O306  1  0.75607073  0.75123488  0.62159085  1
  O  O307  1  0.25102854  0.24353812  0.38127310  1
  O  O308  1  0.23725197  0.25934730  0.86780192  1
  O  O309  1  0.26194929  0.76046892  0.39689021  1
  O  O310  1  0.23981445  0.76007649  0.88208802  1
  O  O311  1  0.74918752  0.25440409  0.37314187  1
  O  O312  1  0.74048833  0.24854602  0.88185185  1
  O  O313  1  0.74143428  0.74557986  0.38552336  1
  O  O314  1  0.74759421  0.74739532  0.88151116  1
  O  O315  1  -0.00338158  0.12834715  0.01203549  1
  O  O316  1  0.00906116  0.12066047  0.50388192  1
  O  O317  1  0.01228960  0.63457846  0.00015450  1
  O  O318  1  -0.00063304  0.61867915  0.50842593  1
  O  O319  1  0.50260825  0.12537735  0.01987010  1
  O  O320  1  0.49204739  0.10905548  0.51449499  1
  O  O321  1  0.51254550  0.61543160  0.00363716  1
  O  O322  1  0.49817449  0.61332080  0.50555562  1
  O  O323  1  0.49086517  0.38657880  0.49276871  1
  O  O324  1  0.50489204  0.38845759  0.98951317  1
  O  O325  1  0.49190282  0.88093823  0.50355885  1
  O  O326  1  0.49271048  0.87193754  0.98849180  1
  O  O327  1  0.99439885  0.38296250  0.49990328  1
  O  O328  1  0.99046448  0.36817708  0.98794402  1
  O  O329  1  0.99193440  0.88069981  0.49943316  1
  O  O330  1  1.00182479  0.86649107  0.98982124  1
  O  O331  1  0.49502690  0.49938909  0.38562879  1
  O  O332  1  0.49627192  0.49562615  0.88008480  1
  O  O333  1  0.49096190  0.99343958  0.38421902  1
  O  O334  1  0.49692650  0.98563363  0.86944251  1
  O  O335  1  0.99619039  0.49390704  0.39265864  1
  O  O336  1  0.99058247  0.48447662  0.86426624  1
  O  O337  1  0.99305525  0.99553374  0.38147825  1
  O  O338  1  0.99521349  0.98339905  0.87102372  1
  O  O339  1  0.01216360  0.00505407  0.13133410  1
  O  O340  1  0.00674616  0.00589488  0.61863543  1
  O  O341  1  -0.02384509  0.50878748  0.12180255  1
  O  O342  1  -0.00140779  0.50840586  0.62106854  1
  O  O343  1  0.50018693  0.01422868  0.12912832  1
  O  O344  1  0.49996860  0.00325588  0.61916445  1
  O  O345  1  0.50801824  0.50268120  0.11708781  1
  O  O346  1  0.49121812  0.50918788  0.61055319  1
  O  O347  1  0.23567608  0.34133092  0.23150994  1
  O  O348  1  0.24259986  0.38404853  0.73948381  1
  O  O349  1  0.25777676  0.87910723  0.23169100  1
  O  O350  1  0.24807862  0.87847606  0.73876717  1
  O  O351  1  0.75850822  0.37449015  0.23674079  1
  O  O352  1  0.73716999  0.38289141  0.74969717  1
  O  O353  1  0.74147411  0.87675789  0.24264770  1
  O  O354  1  0.74770337  0.87935762  0.74624688  1
  O  O355  1  0.26159969  0.12369183  0.25553440  1
  O  O356  1  0.24773115  0.11304919  0.74388584  1
  O  O357  1  0.22294345  0.68004989  0.27009734  1
  O  O358  1  0.24437306  0.61350346  0.73902263  1
  O  O359  1  0.76585391  0.12488849  0.24431101  1
  O  O360  1  0.75634276  0.11444262  0.75190293  1
  O  O361  1  0.75135923  0.62781890  0.26356560  1
  O  O362  1  0.74532439  0.60784880  0.75389067  1
  O  O363  1  0.37564303  0.11730899  0.36628453  1
  O  O364  1  0.38547195  0.13050095  0.87305107  1
  O  O365  1  0.37326415  0.61514113  0.38150756  1
  O  O366  1  0.38262171  0.61396365  0.87454656  1
  O  O367  1  0.88411964  0.11523411  0.36703308  1
  O  O368  1  0.87559475  0.11579506  0.86718778  1
  O  O369  1  0.85805517  0.63222566  0.36612272  1
  O  O370  1  0.87704736  0.60676823  0.88010285  1
  O  O371  1  0.10442321  0.39272647  0.11148282  1
  O  O372  1  0.13420757  0.37738327  0.62927194  1
  O  O373  1  0.13487388  0.88346774  0.11562168  1
  O  O374  1  0.13480013  0.88373817  0.62551277  1
  O  O375  1  0.63479937  0.38355490  0.11829673  1
  O  O376  1  0.61487440  0.37187968  0.64003065  1
  O  O377  1  0.63543031  0.87628171  0.13313007  1
  O  O378  1  0.63345016  0.87555212  0.63232448  1
  O  O379  1  0.10762716  0.23088581  0.25682614  1
  O  O380  1  0.11986177  0.25479911  0.75556558  1
  O  O381  1  0.08482318  0.74868137  0.23598091  1
  O  O382  1  0.11742569  0.75524997  0.75564210  1
  O  O383  1  0.60807223  0.24853256  0.25219561  1
  O  O384  1  0.63192414  0.26401870  0.75616485  1
  O  O385  1  0.62031632  0.76020244  0.25515174  1
  O  O386  1  0.61870120  0.75348043  0.75605366  1
  O  O387  1  0.38273351  0.24258239  0.23914640  1
  O  O388  1  0.37383379  0.26668905  0.73206026  1
  O  O389  1  0.39116170  0.75998748  0.23188604  1
  O  O390  1  0.38458216  0.75413019  0.74158120  1
  O  O391  1  0.88653870  0.24344564  0.24382611  1
  O  O392  1  0.88071551  0.24503178  0.74503127  1
  O  O393  1  0.86999018  0.74579483  0.24262402  1
  O  O394  1  0.87984195  0.75450935  0.73776150  1
  O  O395  1  0.37805144  0.49247544  0.49147940  1
  O  O396  1  0.38592470  0.50059841  0.99137978  1
  O  O397  1  0.38093191  0.99202615  0.49938094  1
  O  O398  1  0.38211580  0.99292295  0.99494829  1
  O  O399  1  0.88140209  0.48678729  0.50937245  1
  O  O400  1  0.86865510  0.48025521  0.98978588  1
  O  O401  1  0.88162987  0.99305886  0.49616140  1
  O  O402  1  0.87021263  1.00389418  0.98663103  1
  O  O403  1  0.12676195  0.01017606  0.00463963  1
  O  O404  1  0.12324779  0.00539904  0.50420216  1
  O  O405  1  0.12039937  0.52119450  -0.02011143  1
  O  O406  1  0.11605566  0.51144928  0.50489290  1
  O  O407  1  0.61792274  -0.00391020  0.00082710  1
  O  O408  1  0.61257582  -0.00415431  0.50141708  1
  O  O409  1  0.62163390  0.50562328  0.00499332  1
  O  O410  1  0.60874971  0.49569173  0.50223616  1
  O  O411  1  0.37700518  0.36245488  0.12761757  1
  O  O412  1  0.36867381  0.37538334  0.61535645  1
  O  O413  1  0.37360406  0.86988298  0.11040331  1
  O  O414  1  0.36941001  0.86691942  0.61842097  1
  O  O415  1  0.86430389  0.36414790  0.11158433  1
  O  O416  1  0.88288593  0.36392879  0.61356988  1
  O  O417  1  0.85988069  0.86775203  0.12755098  1
  O  O418  1  0.87088780  0.86910820  0.61551226  1
  O  O419  1  0.13066408  0.12187703  0.38610155  1
  O  O420  1  0.12066391  0.13043555  0.88817365  1
  O  O421  1  0.10966396  0.64218021  0.39581582  1
  O  O422  1  0.11780814  0.64256605  0.87908196  1
  O  O423  1  0.58540377  0.13926086  0.38752771  1
  O  O424  1  0.62418423  0.14014993  0.86556939  1
  O  O425  1  0.62942129  0.64010346  0.37144683  1
  O  O426  1  0.62487020  0.63111070  0.88203973  1
