# generated using pymatgen
data_V85Zn86O256
_symmetry_space_group_name_H-M   'P 1'
_cell_length_a   16.94494020
_cell_length_b   16.94949732
_cell_length_c   16.95083154
_cell_angle_alpha   90.04890950
_cell_angle_beta   89.99505692
_cell_angle_gamma   90.04392801
_symmetry_Int_Tables_number   1
_chemical_formula_structural   V85Zn86O256
_chemical_formula_sum   'V85 Zn86 O256'
_cell_volume   4868.41490884
_cell_formula_units_Z   1
loop_
 _symmetry_equiv_pos_site_id
 _symmetry_equiv_pos_as_xyz
  1  'x, y, z'
loop_
 _atom_site_type_symbol
 _atom_site_label
 _atom_site_symmetry_multiplicity
 _atom_site_fract_x
 _atom_site_fract_y
 _atom_site_fract_z
 _atom_site_occupancy
  V  V0  1  0.37925590  0.50059689  0.37737590  1
  V  V1  1  0.37750357  0.12638789  0.24991099  1
  V  V2  1  0.75027276  0.11528674  0.86412380  1
  V  V3  1  0.62890316  0.88583892  0.75362697  1
  V  V4  1  0.74562218  0.37142470  0.12403636  1
  V  V5  1  0.37342074  0.37481712  -0.00195168  1
  V  V6  1  -0.00015019  0.48247132  0.49753542  1
  V  V7  1  0.24025050  0.75377790  0.00405209  1
  V  V8  1  0.87096148  0.26549352  0.61918226  1
  V  V9  1  -0.00928779  0.50940688  -0.00690080  1
  V  V10  1  0.37872593  0.62573444  0.75343908  1
  V  V11  1  0.24735000  0.25138455  0.50078599  1
  V  V12  1  0.00130759  0.62753682  0.12861729  1
  V  V13  1  0.62156378  0.25219296  0.36100448  1
  V  V14  1  0.75028868  0.26256989  0.50057637  1
  V  V15  1  0.24402487  0.25135275  -0.00001006  1
  V  V16  1  0.37691535  0.25073667  0.12862807  1
  V  V17  1  0.74953671  0.75088812  0.49947475  1
  V  V18  1  0.75612323  0.62313455  0.37731955  1
  V  V19  1  0.25599844  0.50209912  0.24980642  1
  V  V20  1  0.37257559  0.00186189  0.87405872  1
  V  V21  1  0.12392759  0.61859885  0.50376981  1
  V  V22  1  0.50092355  0.25649379  0.74673567  1
  V  V23  1  0.37292681  0.87568300  0.00322398  1
  V  V24  1  0.10296667  0.48654233  0.15152827  1
  V  V25  1  0.24628289  0.12493446  0.37552420  1
  V  V26  1  0.50141766  0.37082032  0.35917670  1
  V  V27  1  0.12157270  -0.00018630  0.62457116  1
  V  V28  1  0.25108628  0.62461134  0.37476452  1
  V  V29  1  0.75256883  0.61307782  0.87149402  1
  V  V30  1  0.62697356  0.62405941  0.50549132  1
  V  V31  1  -0.00174957  0.38684284  0.87143269  1
  V  V32  1  0.87589836  -0.00064511  0.37543176  1
  V  V33  1  0.75074425  0.12494906  0.37670090  1
  V  V34  1  0.61585631  0.87077458  0.24851325  1
  V  V35  1  0.49778054  0.00433678  -0.00105736  1
  V  V36  1  0.38459288  0.87854310  0.50396569  1
  V  V37  1  0.37772370  0.74912016  0.62611024  1
  V  V38  1  0.62716589  0.74682881  0.87699953  1
  V  V39  1  0.62715518  0.25590515  0.86922915  1
  V  V40  1  0.87494382  0.37521567  -0.00397983  1
  V  V41  1  0.24570636  0.37797172  0.12924317  1
  V  V42  1  0.75769815  0.48759991  0.74916739  1
  V  V43  1  0.88666358  0.12693713  0.24207059  1
  V  V44  1  0.51146754  0.62426377  0.62838570  1
  V  V45  1  0.75041275  0.88286220  0.62732567  1
  V  V46  1  -0.00111947  0.25288148  0.74851420  1
  V  V47  1  0.12674995  0.74922848  0.37234199  1
  V  V48  1  0.50405779  0.75018617  0.75372864  1
  V  V49  1  0.37716064  0.37483380  0.50023365  1
  V  V50  1  0.24182412  0.12735679  0.87477106  1
  V  V51  1  0.74669203  0.49247633  0.25050743  1
  V  V52  1  0.24820871  0.87120085  0.62654909  1
  V  V53  1  0.24026292  0.50341668  0.74830082  1
  V  V54  1  0.50132133  0.50021058  0.00772040  1
  V  V55  1  0.39180830  0.63337013  0.24738833  1
  V  V56  1  0.00756437  0.87544428  0.37507136  1
  V  V57  1  0.74932049  -0.00275675  0.24787095  1
  V  V58  1  0.37255467  0.12835922  0.74709669  1
  V  V59  1  0.87479398  0.87553590  0.49945708  1
  V  V60  1  0.11078375  0.85820077  0.75740355  1
  V  V61  1  -0.00687024  0.12495886  0.62203745  1
  V  V62  1  0.50111700  0.87830753  0.87494324  1
  V  V63  1  0.24066850  -0.00379843  0.25007490  1
  V  V64  1  0.61548169  0.12314110  0.49625994  1
  V  V65  1  0.88945563  -0.01171100  0.86918584  1
  V  V66  1  0.61735016  0.00113788  0.61887780  1
  V  V67  1  -0.00200746  0.74871296  0.25329636  1
  V  V68  1  0.61721787  0.74699020  0.37155738  1
  V  V69  1  0.62753187  0.12766709  -0.00235500  1
  V  V70  1  0.11416470  0.26424894  0.36457031  1
  V  V71  1  0.25492273  0.63352369  0.88008278  1
  V  V72  1  0.37704118  0.50178326  0.87621759  1
  V  V73  1  0.11227799  0.11234433  0.01373673  1
  V  V74  1  0.24697784  -0.00098451  0.74903522  1
  V  V75  1  0.62511010  0.00101132  0.12390842  1
  V  V76  1  0.49901426  0.13022646  0.12560428  1
  V  V77  1  0.24333882  0.87623143  0.13333193  1
  V  V78  1  0.12934742  0.61896255  0.00656974  1
  V  V79  1  0.62639172  0.47849898  0.63458016  1
  V  V80  1  0.38225254  0.00060161  0.37882298  1
  V  V81  1  0.87175615  0.74630021  0.11824695  1
  V  V82  1  -0.01124997  0.62423482  0.61951732  1
  V  V83  1  0.87495388  0.47479399  0.37773512  1
  V  V84  1  0.62440108  0.62363937  0.01068066  1
  Zn  Zn85  1  0.75013330  0.87126770  0.12038045  1
  Zn  Zn86  1  0.90789212  0.90586708  0.02109855  1
  Zn  Zn87  1  0.75581076  0.24840302  -0.00282390  1
  Zn  Zn88  1  0.49544745  0.12350415  0.62064793  1
  Zn  Zn89  1  0.88800494  0.24004784  0.11917424  1
  Zn  Zn90  1  0.86818285  0.12210316  0.74460450  1
  Zn  Zn91  1  0.87629714  0.61752510  0.25413816  1
  Zn  Zn92  1  0.50263230  0.37641817  0.87024378  1
  Zn  Zn93  1  0.50369491  0.49601615  0.50248570  1
  Zn  Zn94  1  0.12004825  0.38268109  0.74404891  1
  Zn  Zn95  1  0.38757106  0.75452632  0.13632148  1
  Zn  Zn96  1  0.50023096  0.87504182  0.37642400  1
  Zn  Zn97  1  0.24428364  0.38546173  0.62096985  1
  Zn  Zn98  1  0.88237134  0.75632363  0.63129651  1
  Zn  Zn99  1  0.75663789  0.75307366  -0.00632048  1
  Zn  Zn100  1  0.11933874  0.25353795  0.87524648  1
  Zn  Zn101  1  0.12252879  0.12724160  0.49964743  1
  Zn  Zn102  1  0.00113274  -0.00018822  0.50059351  1
  Zn  Zn103  1  0.62001518  0.49679445  0.13458805  1
  Zn  Zn104  1  0.37261532  0.25341053  0.62541103  1
  Zn  Zn105  1  0.91414886  0.66457766  0.78655953  1
  Zn  Zn106  1  0.25106893  0.74802421  0.50001434  1
  Zn  Zn107  1  0.18747813  0.18565805  0.18812850  1
  Zn  Zn108  1  0.18263504  0.19056015  0.68491416  1
  Zn  Zn109  1  0.19075564  0.68825329  0.18984211  1
  Zn  Zn110  1  0.18631760  0.68233768  0.68464685  1
  Zn  Zn111  1  0.69596984  0.18718339  0.18402412  1
  Zn  Zn112  1  0.68573677  0.19147597  0.68361427  1
  Zn  Zn113  1  0.68819118  0.68255811  0.19268661  1
  Zn  Zn114  1  0.71717052  0.70084077  0.70190095  1
  Zn  Zn115  1  0.30896762  0.31258593  0.31337073  1
  Zn  Zn116  1  0.30994598  0.31585695  0.81202511  1
  Zn  Zn117  1  0.31644103  0.81076388  0.31521435  1
  Zn  Zn118  1  0.31000508  0.81224253  0.81370942  1
  Zn  Zn119  1  0.80773231  0.30609842  0.30698394  1
  Zn  Zn120  1  0.81516346  0.31078203  0.81358644  1
  Zn  Zn121  1  0.81192513  0.81100352  0.31135391  1
  Zn  Zn122  1  0.81058521  0.81402714  0.81164202  1
  Zn  Zn123  1  0.18678366  0.43640106  0.43476983  1
  Zn  Zn124  1  0.18111656  0.44194084  0.93771662  1
  Zn  Zn125  1  0.19186864  0.93642426  0.44067685  1
  Zn  Zn126  1  0.18163396  0.93792540  0.93447263  1
  Zn  Zn127  1  0.68118627  0.43774207  0.43799389  1
  Zn  Zn128  1  0.68670737  0.43649984  0.93910185  1
  Zn  Zn129  1  0.68510952  0.93785163  0.43639579  1
  Zn  Zn130  1  0.69655590  0.93620824  0.94262826  1
  Zn  Zn131  1  0.30396410  0.06216769  0.06309081  1
  Zn  Zn132  1  0.31007640  0.06126763  0.56172618  1
  Zn  Zn133  1  0.31745583  0.56364623  0.06793856  1
  Zn  Zn134  1  0.31645760  0.56437722  0.56376449  1
  Zn  Zn135  1  0.81400679  0.06130307  0.05784399  1
  Zn  Zn136  1  0.80859475  0.06305579  0.56107863  1
  Zn  Zn137  1  0.81180462  0.56247564  0.06382081  1
  Zn  Zn138  1  0.81101494  0.55018769  0.56153887  1
  Zn  Zn139  1  0.43310905  0.43891194  0.18649740  1
  Zn  Zn140  1  0.43357933  0.43866491  0.68612806  1
  Zn  Zn141  1  0.43493082  0.94206761  0.18786119  1
  Zn  Zn142  1  0.43886585  0.93971626  0.68850821  1
  Zn  Zn143  1  0.95064002  0.39743488  0.17891624  1
  Zn  Zn144  1  0.93838911  0.44410050  0.68472694  1
  Zn  Zn145  1  0.94050368  0.93666039  0.19415059  1
  Zn  Zn146  1  0.93595360  0.93957654  0.69404542  1
  Zn  Zn147  1  0.06403761  0.06291552  0.31383087  1
  Zn  Zn148  1  0.06117713  0.06365719  0.80738631  1
  Zn  Zn149  1  0.05760939  0.54986157  0.31330837  1
  Zn  Zn150  1  0.05848793  0.58875079  0.82275729  1
  Zn  Zn151  1  0.56131357  0.06428761  0.31015243  1
  Zn  Zn152  1  0.56134045  0.06765757  0.81005783  1
  Zn  Zn153  1  0.56635705  0.55780666  0.31776785  1
  Zn  Zn154  1  0.56717745  0.55991516  0.81428602  1
  Zn  Zn155  1  0.43629895  0.19157169  0.43414673  1
  Zn  Zn156  1  0.43526535  0.19035482  0.93451531  1
  Zn  Zn157  1  0.43842740  0.68654922  0.44176997  1
  Zn  Zn158  1  0.45119558  0.70240879  0.97062631  1
  Zn  Zn159  1  0.93771840  0.19132940  0.43752135  1
  Zn  Zn160  1  0.93660235  0.18766062  0.93240586  1
  Zn  Zn161  1  0.93834734  0.68745221  0.44328518  1
  Zn  Zn162  1  0.98504415  0.73839505  0.94603543  1
  Zn  Zn163  1  0.05937779  0.30967866  0.06248571  1
  Zn  Zn164  1  0.06951330  0.31293395  0.56505387  1
  Zn  Zn165  1  0.05776800  0.87975690  0.06693076  1
  Zn  Zn166  1  0.06388811  0.80748113  0.56188312  1
  Zn  Zn167  1  0.56192784  0.31395264  0.05910223  1
  Zn  Zn168  1  0.55877237  0.30442318  0.55597931  1
  Zn  Zn169  1  0.56471193  0.81225141  0.06363827  1
  Zn  Zn170  1  0.56550329  0.81070248  0.56407561  1
  O  O171  1  0.12769748  0.12648955  0.11251304  1
  O  O172  1  0.11571093  0.11626606  0.62327575  1
  O  O173  1  0.11978549  0.61578055  0.12481563  1
  O  O174  1  0.11920115  0.62551228  0.60838018  1
  O  O175  1  0.62088291  0.12345618  0.11631491  1
  O  O176  1  0.62568330  0.11759237  0.61409703  1
  O  O177  1  0.62881354  0.62180068  0.11406183  1
  O  O178  1  0.61663468  0.62842381  0.62704419  1
  O  O179  1  0.38088232  0.37979727  0.38023708  1
  O  O180  1  0.37412586  0.38441990  0.88195027  1
  O  O181  1  0.37702305  0.88205204  0.38528442  1
  O  O182  1  0.37837848  0.88465381  0.87876636  1
  O  O183  1  0.87296634  0.37662493  0.37290453  1
  O  O184  1  0.88304903  0.37479131  0.88561622  1
  O  O185  1  0.88044451  0.87934038  0.38196665  1
  O  O186  1  0.87495467  0.88702659  0.86757480  1
  O  O187  1  0.25884340  0.00571283  0.37090995  1
  O  O188  1  0.25285547  0.00853592  0.86849604  1
  O  O189  1  0.25953970  0.50518277  0.36961137  1
  O  O190  1  0.26148883  0.50813031  0.87176976  1
  O  O191  1  0.75321933  0.00599943  0.36813622  1
  O  O192  1  0.74325351  0.01450564  0.87069494  1
  O  O193  1  0.75784675  0.50248207  0.37598899  1
  O  O194  1  0.73891534  0.50521312  0.86304253  1
  O  O195  1  0.24932250  0.49323251  0.13307377  1
  O  O196  1  0.25556483  0.50874908  0.64503338  1
  O  O197  1  0.25562701  0.98558601  0.13450233  1
  O  O198  1  0.24248736  0.99245659  0.63044577  1
  O  O199  1  0.74771370  0.49506760  0.13617062  1
  O  O200  1  0.73499243  0.50187395  0.63638269  1
  O  O201  1  0.74310092  0.99978922  0.13252531  1
  O  O202  1  0.73756807  0.98942232  0.61867656  1
  O  O203  1  0.03762705  0.44894427  0.22873484  1
  O  O204  1  -0.00295389  0.37374093  0.75507986  1
  O  O205  1  -0.00356288  0.86427312  0.26755205  1
  O  O206  1  0.01135789  0.86868087  0.74240452  1
  O  O207  1  0.49378141  0.37651036  0.25975034  1
  O  O208  1  0.48964205  0.36050663  0.75090876  1
  O  O209  1  0.51219280  0.88020368  0.25063047  1
  O  O210  1  0.50621249  0.87006185  0.75673782  1
  O  O211  1  0.48586442  0.12143064  0.24219733  1
  O  O212  1  0.48711484  0.13418613  0.74978454  1
  O  O213  1  0.48999162  0.61934016  0.25793618  1
  O  O214  1  0.49876335  0.63052192  0.74705188  1
  O  O215  1  0.98486089  0.11479912  0.25129589  1
  O  O216  1  0.99715625  0.13500844  0.73798210  1
  O  O217  1  0.99883188  0.62888343  0.24545864  1
  O  O218  1  0.99659591  0.60251157  0.72001411  1
  O  O219  1  0.36208030  0.25224234  0.00518780  1
  O  O220  1  0.36679057  0.25743341  0.49999644  1
  O  O221  1  0.35805360  0.77058633  -0.01328325  1
  O  O222  1  0.37327013  0.75744348  0.50832512  1
  O  O223  1  0.87660349  0.26012001  0.00105065  1
  O  O224  1  0.86601387  0.24531147  0.51099070  1
  O  O225  1  0.87415065  0.73406275  0.01706973  1
  O  O226  1  0.86836914  0.76342680  0.50083387  1
  O  O227  1  0.13316452  0.24808527  0.48895027  1
  O  O228  1  0.13482448  0.24746370  0.99909825  1
  O  O229  1  0.12775414  0.73939509  0.48899672  1
  O  O230  1  0.13929788  0.73707871  1.00827226  1
  O  O231  1  0.63302501  0.23983791  0.49276681  1
  O  O232  1  0.62249581  0.23768728  0.99129161  1
  O  O233  1  0.63051066  0.74427289  0.49257948  1
  O  O234  1  0.63096588  0.74151653  0.99229752  1
  O  O235  1  0.48428717  0.24721099  0.11722612  1
  O  O236  1  0.49498065  0.24372189  0.63157956  1
  O  O237  1  0.48283790  0.74086309  0.07871007  1
  O  O238  1  0.49757139  0.74340177  0.63290351  1
  O  O239  1  0.98571594  0.29289409  0.14243750  1
  O  O240  1  0.98864233  0.24461126  0.62558646  1
  O  O241  1  0.99076436  0.73916305  0.13658083  1
  O  O242  1  0.99730108  0.73132134  0.61678197  1
  O  O243  1  0.01527013  0.24473885  0.37525878  1
  O  O244  1  -0.00261686  0.26119990  0.86300311  1
  O  O245  1  0.00613389  0.75357993  0.37204299  1
  O  O246  1  0.00223650  0.68617059  0.85205957  1
  O  O247  1  0.50880942  0.25774139  0.37495154  1
  O  O248  1  0.50736140  0.24894607  0.86583325  1
  O  O249  1  0.51429956  0.74988592  0.38034480  1
  O  O250  1  0.51105925  0.75795752  0.87608852  1
  O  O251  1  0.25025019  0.13213933  0.49125041  1
  O  O252  1  0.24246725  0.13276464  0.99249325  1
  O  O253  1  0.24417122  0.62249707  0.49243701  1
  O  O254  1  0.25245517  0.63287764  1.00040175  1
  O  O255  1  0.74256598  0.12764855  0.48693717  1
  O  O256  1  0.74068114  0.12706031  0.98974657  1
  O  O257  1  0.74483426  0.62837160  0.49700011  1
  O  O258  1  0.73924719  0.61967111  0.98844449  1
  O  O259  1  0.25324694  0.36957924  0.00483428  1
  O  O260  1  0.25999022  0.36908681  0.49663755  1
  O  O261  1  0.25152733  0.87313044  0.01051801  1
  O  O262  1  0.25920376  0.87264153  0.51388798  1
  O  O263  1  0.75866366  0.37311815  0.00160491  1
  O  O264  1  0.74509569  0.36155901  0.49573007  1
  O  O265  1  0.75819487  0.86870293  0.00489726  1
  O  O266  1  0.75668046  0.87241566  0.50305024  1
  O  O267  1  0.15243235  0.52481447  0.24931968  1
  O  O268  1  0.14040945  0.51167703  0.76115174  1
  O  O269  1  0.14111484  1.00034164  0.25653872  1
  O  O270  1  0.12884397  0.99354595  0.73834550  1
  O  O271  1  0.64042511  0.50023517  0.25350981  1
  O  O272  1  0.62575676  0.49377247  0.73816199  1
  O  O273  1  0.63071212  0.99459721  0.24447077  1
  O  O274  1  0.61858607  0.99031111  0.74342529  1
  O  O275  1  0.36754436  0.00751920  0.25828356  1
  O  O276  1  0.36789965  0.00814012  0.75432494  1
  O  O277  1  0.37112493  0.51044297  0.25628162  1
  O  O278  1  0.37077604  0.50795712  0.75933720  1
  O  O279  1  0.86625183  0.00398557  0.25620296  1
  O  O280  1  0.87276008  0.00581668  0.76252871  1
  O  O281  1  0.86409120  0.49832575  0.26940060  1
  O  O282  1  0.85663889  0.50398097  0.74050498  1
  O  O283  1  0.12623783  0.36399306  0.37162313  1
  O  O284  1  0.11289613  0.37467380  0.87006739  1
  O  O285  1  0.11854481  0.86416994  0.38426079  1
  O  O286  1  0.13049770  0.87608743  0.85537929  1
  O  O287  1  0.61328433  0.36483890  0.37922770  1
  O  O288  1  0.62222811  0.35909580  0.88063252  1
  O  O289  1  0.62251407  0.86628473  0.36796121  1
  O  O290  1  0.62277261  0.87132856  0.86985237  1
  O  O291  1  0.37513064  0.13161497  0.13064779  1
  O  O292  1  0.37234534  0.12401147  0.63741786  1
  O  O293  1  0.37534097  0.62668802  0.14483087  1
  O  O294  1  0.38927736  0.62881027  0.63189386  1
  O  O295  1  0.87176155  0.12262636  0.13694567  1
  O  O296  1  0.88049249  0.12687763  0.62543733  1
  O  O297  1  0.88244621  0.62917400  0.13221169  1
  O  O298  1  0.88568337  0.62700282  0.60744489  1
  O  O299  1  0.25647669  0.25688324  0.11879009  1
  O  O300  1  0.25014226  0.24812638  0.61020380  1
  O  O301  1  0.26028391  0.75982077  0.12150555  1
  O  O302  1  0.25878137  0.75490368  0.62489890  1
  O  O303  1  0.75873108  0.25775476  0.11966871  1
  O  O304  1  0.76262923  0.24591691  0.61678981  1
  O  O305  1  0.76356982  0.74271283  0.12830874  1
  O  O306  1  0.74289489  0.76795589  0.61255579  1
  O  O307  1  0.24724918  0.24215600  0.38416357  1
  O  O308  1  0.24671578  0.24438867  0.88220834  1
  O  O309  1  0.24322318  0.74398311  0.37651172  1
  O  O310  1  0.25074124  0.73922155  0.88223247  1
  O  O311  1  0.74375880  0.24149041  0.38076732  1
  O  O312  1  0.74195378  0.24067063  0.87476952  1
  O  O313  1  0.74208913  0.74250283  0.38016836  1
  O  O314  1  0.73881132  0.73877996  0.87366053  1
  O  O315  1  0.01544229  0.13402964  -0.00373705  1
  O  O316  1  0.00078785  0.12223687  0.51034729  1
  O  O317  1  0.01437326  0.62546393  0.00948405  1
  O  O318  1  0.00707957  0.61574208  0.50215939  1
  O  O319  1  0.50394464  0.12203560  0.00371533  1
  O  O320  1  0.51135988  0.13010021  0.49838388  1
  O  O321  1  0.51213174  0.60812874  -0.01048179  1
  O  O322  1  0.50759934  0.62213022  0.51139519  1
  O  O323  1  0.48693163  0.37287796  0.49463146  1
  O  O324  1  0.49143582  0.38211227  0.99479353  1
  O  O325  1  0.48836220  0.87202704  0.50192912  1
  O  O326  1  0.49117321  0.88640280  0.99302187  1
  O  O327  1  1.00316747  0.38432539  0.49955314  1
  O  O328  1  0.99448887  0.38887084  0.99087528  1
  O  O329  1  0.99240947  0.87383392  0.49240569  1
  O  O330  1  0.99543394  0.83975417  0.98538033  1
  O  O331  1  0.49696051  0.48964617  0.38098164  1
  O  O332  1  0.48924952  0.49704829  0.87829346  1
  O  O333  1  0.48593822  0.99988768  0.37153250  1
  O  O334  1  0.49329072  0.99900170  0.87934210  1
  O  O335  1  0.98153291  0.50003720  0.38404149  1
  O  O336  1  1.00548124  0.49602077  0.87930137  1
  O  O337  1  0.99741168  0.99081180  0.37884359  1
  O  O338  1  0.98846298  1.00328553  0.87101756  1
  O  O339  1  -0.01595819  -0.03932942  0.09767220  1
  O  O340  1  0.00535978  0.00696432  0.62481085  1
  O  O341  1  -0.00274683  0.51623863  0.11067437  1
  O  O342  1  -0.00840792  0.50551407  0.60240909  1
  O  O343  1  0.50490919  0.00878770  0.11831237  1
  O  O344  1  0.51179782  0.00407941  0.62736634  1
  O  O345  1  0.50160679  0.49352544  0.11340900  1
  O  O346  1  0.51159508  0.50553922  0.62704346  1
  O  O347  1  0.25870384  0.38774318  0.24077006  1
  O  O348  1  0.24881568  0.39429027  0.75330225  1
  O  O349  1  0.26159520  0.88046744  0.24022880  1
  O  O350  1  0.24948354  0.87938267  0.73839096  1
  O  O351  1  0.75478829  0.37995127  0.23798769  1
  O  O352  1  0.75203856  0.38786415  0.75579626  1
  O  O353  1  0.74117399  0.88580500  0.25098593  1
  O  O354  1  0.73883574  0.87474663  0.73986401  1
  O  O355  1  0.25904101  0.11647783  0.25581716  1
  O  O356  1  0.25232487  0.12287193  0.75590316  1
  O  O357  1  0.26509290  0.62531163  0.26007615  1
  O  O358  1  0.25665943  0.62094567  0.76052685  1
  O  O359  1  0.75291801  0.11273328  0.25917807  1
  O  O360  1  0.74639493  0.12829539  0.76113249  1
  O  O361  1  0.75255420  0.61448198  0.26224141  1
  O  O362  1  0.73229526  0.60895945  0.76550963  1
  O  O363  1  0.36691096  0.12065996  0.36923181  1
  O  O364  1  0.36225670  0.12264706  0.86692253  1
  O  O365  1  0.37202690  0.62043441  0.37137533  1
  O  O366  1  0.37026345  0.61953118  0.87425303  1
  O  O367  1  0.86747181  0.11792003  0.37024275  1
  O  O368  1  0.85997376  0.12400476  0.87038956  1
  O  O369  1  0.86186581  0.62660071  0.37963153  1
  O  O370  1  0.85043786  0.62021570  0.87679025  1
  O  O371  1  0.13887071  0.38277356  0.11958257  1
  O  O372  1  0.13198066  0.37711391  0.63073851  1
  O  O373  1  0.14443330  0.86482923  0.13403067  1
  O  O374  1  0.13218412  0.87842783  0.62910416  1
  O  O375  1  0.64019029  0.37594181  0.11530071  1
  O  O376  1  0.61962207  0.38122122  0.62116371  1
  O  O377  1  0.62705148  0.88004156  0.13148389  1
  O  O378  1  0.62829052  0.88303087  0.63146756  1
  O  O379  1  0.13494339  0.24544186  0.26706631  1
  O  O380  1  0.10890112  0.25200985  0.74964880  1
  O  O381  1  0.11431745  0.74159364  0.26348351  1
  O  O382  1  0.13054936  0.76034632  0.74486293  1
  O  O383  1  0.63098133  0.24165803  0.26228550  1
  O  O384  1  0.61345671  0.24373333  0.75653471  1
  O  O385  1  0.63060759  0.75857880  0.25824055  1
  O  O386  1  0.62238144  0.76094429  0.75871921  1
  O  O387  1  0.36528383  0.23960791  0.24002775  1
  O  O388  1  0.37645636  0.24301919  0.74898687  1
  O  O389  1  0.38322246  0.73896335  0.25428379  1
  O  O390  1  0.38337039  0.74513248  0.74729685  1
  O  O391  1  0.86999796  0.22793187  0.25146727  1
  O  O392  1  0.88236784  0.24890445  0.73659097  1
  O  O393  1  0.88589060  0.74355335  0.24960077  1
  O  O394  1  0.84123879  0.73431713  0.73611594  1
  O  O395  1  0.37798616  0.49289604  0.49511486  1
  O  O396  1  0.38111509  0.49733170  0.99498158  1
  O  O397  1  0.36979006  0.99112935  0.49230453  1
  O  O398  1  0.37431506  0.99352872  0.99479896  1
  O  O399  1  0.88065917  0.49521340  0.48568056  1
  O  O400  1  0.88655245  0.49971068  0.99806476  1
  O  O401  1  0.87487551  0.98947650  0.49441759  1
  O  O402  1  0.86430357  1.00259206  0.97458719  1
  O  O403  1  0.12657864  0.01231272  -0.00059889  1
  O  O404  1  0.12535628  -0.00062170  0.51388407  1
  O  O405  1  0.11516276  0.50424616  0.01446953  1
  O  O406  1  0.10870162  0.50498160  0.48628091  1
  O  O407  1  0.61994326  0.01095647  0.00326308  1
  O  O408  1  0.62592627  0.00872021  0.50596631  1
  O  O409  1  0.61677521  0.50536011  0.00143672  1
  O  O410  1  0.62588452  0.50628262  0.51622999  1
  O  O411  1  0.36540343  0.36858729  0.11901330  1
  O  O412  1  0.36653540  0.37575471  0.61486008  1
  O  O413  1  0.37022184  0.87484836  0.11683503  1
  O  O414  1  0.36992431  0.87160841  0.62203677  1
  O  O415  1  0.86071542  0.38690901  0.10800468  1
  O  O416  1  0.87675247  0.36326220  0.62281830  1
  O  O417  1  0.86970823  0.85296351  0.13297214  1
  O  O418  1  0.86710425  0.87738776  0.61861675  1
  O  O419  1  0.13817007  0.12436187  0.37861220  1
  O  O420  1  0.13398743  0.12762632  0.87626004  1
  O  O421  1  0.13133996  0.62898654  0.38235388  1
  O  O422  1  0.14500920  0.61136305  0.89885647  1
  O  O423  1  0.63076379  0.12832106  0.37889051  1
  O  O424  1  0.63195109  0.13093054  0.87956968  1
  O  O425  1  0.63527580  0.62930945  0.38232417  1
  O  O426  1  0.62709619  0.63271100  0.88349223  1
