# generated using pymatgen
data_V85Zn86O256
_symmetry_space_group_name_H-M   'P 1'
_cell_length_a   16.95599970
_cell_length_b   16.96192153
_cell_length_c   16.96683316
_cell_angle_alpha   90.01208426
_cell_angle_beta   90.05111449
_cell_angle_gamma   89.95896928
_symmetry_Int_Tables_number   1
_chemical_formula_structural   V85Zn86O256
_chemical_formula_sum   'V85 Zn86 O256'
_cell_volume   4879.76542140
_cell_formula_units_Z   1
loop_
 _symmetry_equiv_pos_site_id
 _symmetry_equiv_pos_as_xyz
  1  'x, y, z'
loop_
 _atom_site_type_symbol
 _atom_site_label
 _atom_site_symmetry_multiplicity
 _atom_site_fract_x
 _atom_site_fract_y
 _atom_site_fract_z
 _atom_site_occupancy
  V  V0  1  0.25580963  0.87452532  0.12053381  1
  V  V1  1  0.50205190  0.37587203  0.87359640  1
  V  V2  1  0.25158208  -0.00176942  0.74949015  1
  V  V3  1  0.24729273  0.75269771  0.49538750  1
  V  V4  1  0.86992799  0.74587689  0.12234560  1
  V  V5  1  -0.00852707  0.50277984  -0.00823674  1
  V  V6  1  -0.00170863  0.87512791  0.87568985  1
  V  V7  1  0.62480507  0.25466782  0.87462662  1
  V  V8  1  0.37646811  0.12740040  0.74692606  1
  V  V9  1  0.63413418  0.62733790  0.00322648  1
  V  V10  1  0.00607731  0.36428215  0.87409695  1
  V  V11  1  0.75095049  0.61897235  0.87769560  1
  V  V12  1  0.12308472  0.62472073  0.00348199  1
  V  V13  1  0.49984688  -0.03057297  0.50107865  1
  V  V14  1  0.62156970  0.87480329  0.75596991  1
  V  V15  1  0.37529999  0.62473318  0.74766259  1
  V  V16  1  0.87297778  0.00096381  0.87474625  1
  V  V17  1  0.00046613  0.74288371  0.23884891  1
  V  V18  1  0.74758144  0.12811959  0.87477237  1
  V  V19  1  0.37972388  0.37360288  0.49704255  1
  V  V20  1  0.25581460  0.37081574  0.62660386  1
  V  V21  1  0.38207337  0.12468960  0.25297128  1
  V  V22  1  0.12541699  0.00583537  0.62241486  1
  V  V23  1  0.38418870  0.49704921  0.37451381  1
  V  V24  1  0.37800939  -0.01339486  0.38165531  1
  V  V25  1  0.74719585  0.49907868  0.73427598  1
  V  V26  1  0.74604209  0.88436073  0.13498321  1
  V  V27  1  0.25537780  0.24069139  0.50723862  1
  V  V28  1  0.50241249  -0.00456723  0.00889023  1
  V  V29  1  0.38197077  0.24468642  0.12457466  1
  V  V30  1  0.24537784  0.62532358  0.37203900  1
  V  V31  1  0.12457658  0.49546967  0.11702868  1
  V  V32  1  0.10694516  0.27254472  0.41165439  1
  V  V33  1  0.86149567  0.87509912  -0.00054232  1
  V  V34  1  0.87798869  0.61827261  0.75844248  1
  V  V35  1  0.25133857  0.87616688  0.62012307  1
  V  V36  1  0.74876726  0.25530148  0.00199475  1
  V  V37  1  0.75747551  0.87487755  0.62095067  1
  V  V38  1  0.12385884  0.62420493  0.49293128  1
  V  V39  1  0.24645866  0.12793808  0.87681478  1
  V  V40  1  0.74843052  0.26577283  0.50361429  1
  V  V41  1  0.23887802  0.12369573  0.37904567  1
  V  V42  1  0.65597707  0.74860439  0.37735813  1
  V  V43  1  0.87329460  0.24903405  0.12629415  1
  V  V44  1  0.86993432  0.00067660  0.37452793  1
  V  V45  1  -0.00806929  0.75023421  0.75030308  1
  V  V46  1  0.25017391  0.37244391  0.13136664  1
  V  V47  1  0.87354800  0.37528416  -0.00862992  1
  V  V48  1  0.62845729  0.75244626  0.88292393  1
  V  V49  1  0.12314903  0.75102503  0.87553171  1
  V  V50  1  0.12457791  0.87249192  0.25111299  1
  V  V51  1  0.12240055  0.49893868  0.62421254  1
  V  V52  1  0.49471829  0.75555149  0.76091236  1
  V  V53  1  0.61579360  0.25285069  0.37918573  1
  V  V54  1  0.87003409  0.12467177  0.25074386  1
  V  V55  1  0.01846131  0.24309564  0.24386521  1
  V  V56  1  0.37594733  0.37385302  0.00146954  1
  V  V57  1  0.12748981  0.00095468  0.12029994  1
  V  V58  1  0.49930200  0.75863340  0.26166239  1
  V  V59  1  0.62944666  0.49762670  0.12948306  1
  V  V60  1  0.00453365  0.00277302  0.49732274  1
  V  V61  1  0.49899724  0.25145799  0.74421133  1
  V  V62  1  0.25249696  0.00042181  0.25202063  1
  V  V63  1  -0.00019599  -0.00084859  -0.00297622  1
  V  V64  1  0.62395045  -0.00465885  0.62457836  1
  V  V65  1  0.61555861  0.13129265  0.00914223  1
  V  V66  1  0.82039893  0.69278188  0.57336941  1
  V  V67  1  0.37537641  0.75286289  0.62096391  1
  V  V68  1  -0.00520031  0.12510031  0.61917992  1
  V  V69  1  0.50145962  0.50411439  0.00134042  1
  V  V70  1  0.38494236  -0.00639070  0.87359857  1
  V  V71  1  0.37525516  0.50062816  0.87531738  1
  V  V72  1  0.74803452  -0.00116361  0.75160543  1
  V  V73  1  0.07806911  0.42181194  0.29821447  1
  V  V74  1  0.74733413  0.12800645  0.37912007  1
  V  V75  1  -0.00060169  0.12166623  0.12187826  1
  V  V76  1  0.62020009  0.38254586  0.25943264  1
  V  V77  1  0.37655664  0.62532938  0.24774929  1
  V  V78  1  0.86893406  0.25991014  0.62661515  1
  V  V79  1  0.24885329  0.62479925  0.87497058  1
  V  V80  1  0.49876354  0.12373294  0.62016986  1
  V  V81  1  0.12621313  0.36741140  0.75623598  1
  V  V82  1  0.00189218  0.87132499  0.37307178  1
  V  V83  1  0.00674049  0.62982203  0.62153755  1
  V  V84  1  0.62764443  0.38147144  0.73649102  1
  Zn  Zn85  1  0.51396358  0.61812399  0.62665644  1
  Zn  Zn86  1  -0.04848232  0.40605279  0.45088202  1
  Zn  Zn87  1  0.61999227  0.88495909  0.25952980  1
  Zn  Zn88  1  0.62444818  0.12180886  0.50147845  1
  Zn  Zn89  1  0.12331112  0.87418296  0.74838626  1
  Zn  Zn90  1  0.24880626  0.49789486  0.75029867  1
  Zn  Zn91  1  0.24515746  0.25410197  -0.00428431  1
  Zn  Zn92  1  0.50601920  0.50319559  0.50908498  1
  Zn  Zn93  1  0.62722898  0.01775443  0.14008034  1
  Zn  Zn94  1  0.87463639  0.12534727  0.74887502  1
  Zn  Zn95  1  0.87625637  0.87354890  0.50450114  1
  Zn  Zn96  1  0.50198803  0.62861553  0.12855697  1
  Zn  Zn97  1  0.00051296  0.24502084  0.75254539  1
  Zn  Zn98  1  0.37876458  0.75076523  0.12306157  1
  Zn  Zn99  1  0.62704600  0.62861065  0.49755913  1
  Zn  Zn100  1  0.11959321  0.13089668  -0.01021856  1
  Zn  Zn101  1  0.25046541  0.49819699  0.25017097  1
  Zn  Zn102  1  0.38150449  0.86978546  -0.00630913  1
  Zn  Zn103  1  0.25458316  0.75197164  -0.00024154  1
  Zn  Zn104  1  0.78094806  0.40527796  0.16086479  1
  Zn  Zn105  1  0.81166872  0.56911607  0.30664926  1
  Zn  Zn106  1  0.49665718  0.25351972  0.25453085  1
  Zn  Zn107  1  0.19815411  0.18174710  0.17897028  1
  Zn  Zn108  1  0.18839129  0.18578027  0.68609311  1
  Zn  Zn109  1  0.18670839  0.68876759  0.18586765  1
  Zn  Zn110  1  0.18677818  0.68990552  0.68904582  1
  Zn  Zn111  1  0.69011997  0.19869383  0.19514422  1
  Zn  Zn112  1  0.68448330  0.18795855  0.68661433  1
  Zn  Zn113  1  0.68345985  0.69475851  0.18997096  1
  Zn  Zn114  1  0.68402330  0.68642021  0.69705460  1
  Zn  Zn115  1  0.30420732  0.30855676  0.31766664  1
  Zn  Zn116  1  0.31538535  0.31052049  0.81093137  1
  Zn  Zn117  1  0.31053308  0.80855183  0.31046579  1
  Zn  Zn118  1  0.30844476  0.81425022  0.81241650  1
  Zn  Zn119  1  0.80590645  0.38538454  0.33508258  1
  Zn  Zn120  1  0.81446392  0.31703953  0.80905873  1
  Zn  Zn121  1  0.81926076  0.81357129  0.30561677  1
  Zn  Zn122  1  0.80920747  0.80982595  0.81253464  1
  Zn  Zn123  1  0.19592407  0.44290312  0.44600317  1
  Zn  Zn124  1  0.18962914  0.43508569  0.93772099  1
  Zn  Zn125  1  0.18676176  0.93733617  0.43621555  1
  Zn  Zn126  1  0.19020664  0.94005050  0.93557889  1
  Zn  Zn127  1  0.68049422  0.44823702  0.43868523  1
  Zn  Zn128  1  0.68912321  0.44124813  0.93585464  1
  Zn  Zn129  1  0.68661385  0.93473715  0.43690203  1
  Zn  Zn130  1  0.68209861  0.94131663  0.94074473  1
  Zn  Zn131  1  0.31777523  0.06176657  0.06190840  1
  Zn  Zn132  1  0.31902742  0.05802862  0.56063346  1
  Zn  Zn133  1  0.31039116  0.56218807  0.06274537  1
  Zn  Zn134  1  0.31340543  0.56075545  0.56263260  1
  Zn  Zn135  1  0.80852779  0.06362654  0.05990333  1
  Zn  Zn136  1  0.81462412  0.06248389  0.55982813  1
  Zn  Zn137  1  0.81194641  0.57075832  0.14384859  1
  Zn  Zn138  1  0.83614813  0.54213000  0.46347910  1
  Zn  Zn139  1  0.44115569  0.43736614  0.18893207  1
  Zn  Zn140  1  0.43627120  0.43775602  0.68599679  1
  Zn  Zn141  1  0.44002042  0.94120789  0.18857346  1
  Zn  Zn142  1  0.43744131  0.93483483  0.68574114  1
  Zn  Zn143  1  0.94509863  0.43918759  0.17699536  1
  Zn  Zn144  1  0.89882193  0.47241020  0.63146962  1
  Zn  Zn145  1  0.93506852  0.93819286  0.18718005  1
  Zn  Zn146  1  0.93741473  0.93948826  0.68954582  1
  Zn  Zn147  1  0.06128699  0.05979091  0.31074410  1
  Zn  Zn148  1  0.06277698  0.06178026  0.80584661  1
  Zn  Zn149  1  0.00975437  0.58642487  0.34268125  1
  Zn  Zn150  1  0.06209238  0.55585414  0.81225979  1
  Zn  Zn151  1  0.56019270  0.05997015  0.32011560  1
  Zn  Zn152  1  0.56253158  0.06413333  0.81609837  1
  Zn  Zn153  1  0.56515477  0.56921531  0.31757784  1
  Zn  Zn154  1  0.56352727  0.56401153  0.81004586  1
  Zn  Zn155  1  0.43167222  0.18214754  0.43677118  1
  Zn  Zn156  1  0.43577961  0.18608066  0.93463789  1
  Zn  Zn157  1  0.43554113  0.68553634  0.43880390  1
  Zn  Zn158  1  0.43882509  0.68799841  0.93908595  1
  Zn  Zn159  1  0.91046981  0.23161352  0.40847711  1
  Zn  Zn160  1  0.93571463  0.18775622  0.93668193  1
  Zn  Zn161  1  0.93721585  0.69604486  0.43289388  1
  Zn  Zn162  1  0.93272310  0.68706992  0.94321528  1
  Zn  Zn163  1  0.06519047  0.31031093  0.05823546  1
  Zn  Zn164  1  0.06813062  0.30467491  0.57784061  1
  Zn  Zn165  1  0.06220985  0.81535144  0.06082686  1
  Zn  Zn166  1  0.06618573  0.81308397  0.56096886  1
  Zn  Zn167  1  0.56216678  0.31748127  0.06850448  1
  Zn  Zn168  1  0.56022698  0.31174019  0.56173652  1
  Zn  Zn169  1  0.56105258  0.81171617  0.06904431  1
  Zn  Zn170  1  0.57870390  0.78548371  0.57292350  1
  O  O171  1  0.12249988  0.11020834  0.12340008  1
  O  O172  1  0.11873323  0.11095191  0.62953192  1
  O  O173  1  0.13339579  0.61792390  0.10825991  1
  O  O174  1  0.12398799  0.61911299  0.62028694  1
  O  O175  1  0.63465345  0.13326252  0.11274482  1
  O  O176  1  0.61522235  0.11424914  0.62653547  1
  O  O177  1  0.62219632  0.62000578  0.11747838  1
  O  O178  1  0.61444517  0.67312036  0.61210043  1
  O  O179  1  0.36232638  0.38505828  0.38430003  1
  O  O180  1  0.38176266  0.37993682  0.88051420  1
  O  O181  1  0.36606479  0.88832406  0.37046456  1
  O  O182  1  0.36959446  0.88961279  0.87504507  1
  O  O183  1  0.89484795  0.34010793  0.37859198  1
  O  O184  1  0.88570025  0.37008942  0.88519196  1
  O  O185  1  0.88210401  0.88617529  0.37498401  1
  O  O186  1  0.87639028  0.87959855  0.88155357  1
  O  O187  1  0.25622573  0.00513863  0.37238870  1
  O  O188  1  0.25951239  0.00800441  0.86745182  1
  O  O189  1  0.25368790  0.51292390  0.37212430  1
  O  O190  1  0.25711907  0.50857923  0.87452328  1
  O  O191  1  0.76427812  0.00778119  0.38237230  1
  O  O192  1  0.75166217  0.00916069  0.87304473  1
  O  O193  1  0.77282717  0.48769175  0.38167694  1
  O  O194  1  0.74600804  0.51534756  0.86750339  1
  O  O195  1  0.24034783  0.49337463  0.12530404  1
  O  O196  1  0.23984540  0.49250671  0.62783927  1
  O  O197  1  0.24440343  0.99605107  0.12897082  1
  O  O198  1  0.24474629  0.99493912  0.62667608  1
  O  O199  1  0.73143727  0.49585754  0.10660106  1
  O  O200  1  0.75589033  0.49985420  0.63831805  1
  O  O201  1  0.74503301  0.98889188  0.11832585  1
  O  O202  1  0.74343701  0.99419432  0.63188433  1
  O  O203  1  0.01212193  0.36510540  0.24121244  1
  O  O204  1  0.01103713  0.37209148  0.76392701  1
  O  O205  1  0.00735811  0.87524029  0.25452416  1
  O  O206  1  0.00051973  0.86691602  0.75694446  1
  O  O207  1  0.51361133  0.37203048  0.25111080  1
  O  O208  1  0.50445261  0.36784987  0.75358053  1
  O  O209  1  0.49845082  0.86200160  0.24656013  1
  O  O210  1  0.50957079  0.86852245  0.74876063  1
  O  O211  1  0.48461084  0.12932568  0.25941908  1
  O  O212  1  0.49578029  0.13044895  0.74376661  1
  O  O213  1  0.49064920  0.63439784  0.25116262  1
  O  O214  1  0.49025034  0.63530225  0.74914081  1
  O  O215  1  0.99733995  0.12713973  0.23966393  1
  O  O216  1  0.99762021  0.12536031  0.73711892  1
  O  O217  1  1.01387109  0.64404229  0.24452022  1
  O  O218  1  0.99377489  0.62968297  0.74909229  1
  O  O219  1  0.37412250  0.25500563  0.00633144  1
  O  O220  1  0.36299389  0.25823706  0.49180325  1
  O  O221  1  0.37420819  0.75344576  0.00376258  1
  O  O222  1  0.35972657  0.74414476  0.51137555  1
  O  O223  1  0.86972742  0.25551001  0.00555643  1
  O  O224  1  0.85735792  0.24558960  0.51368681  1
  O  O225  1  0.88389227  0.76792392  0.00876144  1
  O  O226  1  0.87415531  0.75303660  0.50919009  1
  O  O227  1  0.14055359  0.23592984  0.50807698  1
  O  O228  1  0.13289284  0.24115765  1.00450489  1
  O  O229  1  0.13935912  0.73996505  0.50639244  1
  O  O230  1  0.12240144  0.74246251  0.99027660  1
  O  O231  1  0.63336828  0.24676509  0.49988091  1
  O  O232  1  0.62747965  0.24913624  0.99608765  1
  O  O233  1  0.63748495  0.74888364  0.47938729  1
  O  O234  1  0.61421178  0.74276158  0.98979723  1
  O  O235  1  0.48561014  0.25396347  0.12769222  1
  O  O236  1  0.50526627  0.23997498  0.63736330  1
  O  O237  1  0.49779897  0.74653101  0.13801194  1
  O  O238  1  0.48010271  0.75643971  0.63897516  1
  O  O239  1  0.99233834  0.24133084  0.12506386  1
  O  O240  1  0.98609559  0.24115359  0.62581657  1
  O  O241  1  0.98845680  0.76402939  0.13073362  1
  O  O242  1  1.01341663  0.74159883  0.63949038  1
  O  O243  1  0.02265517  0.23202261  0.36035762  1
  O  O244  1  -0.00086712  0.25846990  0.87357998  1
  O  O245  1  -0.00664350  0.76546350  0.35909675  1
  O  O246  1  0.00501477  0.75476283  0.87105607  1
  O  O247  1  0.51283879  0.24477627  0.38283184  1
  O  O248  1  0.50488174  0.25470144  0.86499674  1
  O  O249  1  0.48954581  0.75186233  0.36150345  1
  O  O250  1  0.50583194  0.74834976  0.86586088  1
  O  O251  1  0.26119768  0.13050039  0.49268863  1
  O  O252  1  0.25403689  0.11966515  0.98232786  1
  O  O253  1  0.24350703  0.62985559  0.49237550  1
  O  O254  1  0.24346866  0.62645081  0.98855550  1
  O  O255  1  0.74724708  0.12497976  0.48979906  1
  O  O256  1  0.74247388  0.13319492  0.98948457  1
  O  O257  1  0.76996817  0.62740919  0.51622069  1
  O  O258  1  0.73540425  0.62557900  0.99234192  1
  O  O259  1  0.26150594  0.37581931  0.00722152  1
  O  O260  1  0.25429080  0.36506599  0.50964721  1
  O  O261  1  0.25302738  0.87563144  0.00762452  1
  O  O262  1  0.24316294  0.86549920  0.50721204  1
  O  O263  1  0.76004161  0.36839711  -0.00862135  1
  O  O264  1  0.74487639  0.36342149  0.50012392  1
  O  O265  1  0.75814772  0.87990321  0.00385745  1
  O  O266  1  0.75233878  0.88086175  0.51767465  1
  O  O267  1  0.12400233  0.49305756  0.23947105  1
  O  O268  1  0.12888467  0.48877268  0.74425915  1
  O  O269  1  0.13015418  0.99122426  0.24009324  1
  O  O270  1  0.13263847  0.99572736  0.74009570  1
  O  O271  1  0.61997675  0.49213378  0.24542205  1
  O  O272  1  0.63639551  0.49677199  0.74913914  1
  O  O273  1  0.61548943  0.99700257  0.24870751  1
  O  O274  1  0.62734040  0.99207151  0.74752342  1
  O  O275  1  0.37123812  0.00656207  0.25749527  1
  O  O276  1  0.37356191  0.00533852  0.75638875  1
  O  O277  1  0.37346858  0.50633418  0.25621952  1
  O  O278  1  0.37131535  0.50945142  0.75772810  1
  O  O279  1  0.88291930  0.01562910  0.25922688  1
  O  O280  1  0.86611812  0.00236332  0.75855827  1
  O  O281  1  0.85498058  0.48826277  0.21986455  1
  O  O282  1  0.86752464  0.51296900  0.74133987  1
  O  O283  1  0.14638244  0.37041671  0.35880851  1
  O  O284  1  0.12191701  0.37508808  0.86750984  1
  O  O285  1  0.11601213  0.88171527  0.36209706  1
  O  O286  1  0.11948036  0.86662709  0.87475992  1
  O  O287  1  0.62543674  0.36957317  0.36729802  1
  O  O288  1  0.61792446  0.37257159  0.86835509  1
  O  O289  1  0.63864157  0.85768930  0.37029849  1
  O  O290  1  0.63348335  0.86781148  0.86548771  1
  O  O291  1  0.36593228  0.13337373  0.13788880  1
  O  O292  1  0.38327298  0.11663722  0.63924664  1
  O  O293  1  0.37344757  0.62275631  0.13825381  1
  O  O294  1  0.36297839  0.63529952  0.63996047  1
  O  O295  1  0.87773917  0.12759149  0.12933122  1
  O  O296  1  0.88061921  0.12963159  0.62771054  1
  O  O297  1  0.88028054  0.64920182  0.09911653  1
  O  O298  1  0.88674880  0.63586085  0.63318675  1
  O  O299  1  0.26302460  0.25754968  0.12110616  1
  O  O300  1  0.25023593  0.25616052  0.61883272  1
  O  O301  1  0.25148510  0.76138907  0.12153782  1
  O  O302  1  0.25469415  0.75848234  0.62204281  1
  O  O303  1  0.76488924  0.24963317  0.12067749  1
  O  O304  1  0.75702897  0.24385384  0.61604134  1
  O  O305  1  0.76426968  0.76606994  0.12439528  1
  O  O306  1  0.76114586  0.75461912  0.63222416  1
  O  O307  1  0.23235632  0.24267695  0.38759371  1
  O  O308  1  0.25956347  0.23133770  0.87431477  1
  O  O309  1  0.25230682  0.73708872  0.38205807  1
  O  O310  1  0.24004729  0.74395004  0.87668141  1
  O  O311  1  0.73930660  0.24334007  0.39337573  1
  O  O312  1  0.74521851  0.24469252  0.87846666  1
  O  O313  1  0.75585035  0.74459712  0.36930908  1
  O  O314  1  0.73723258  0.73697410  0.86688865  1
  O  O315  1  -0.00138507  0.11546547  0.00345569  1
  O  O316  1  -0.00103940  0.11373765  0.51451402  1
  O  O317  1  0.00834027  0.61054888  -0.01169941  1
  O  O318  1  0.01191292  0.64040202  0.51132499  1
  O  O319  1  0.50894746  0.11941897  -0.00457907  1
  O  O320  1  0.49723964  0.12578127  0.51535920  1
  O  O321  1  0.50658538  0.61379602  -0.00098266  1
  O  O322  1  0.49644122  0.62549106  0.50810962  1
  O  O323  1  0.48237037  0.37438336  0.50674420  1
  O  O324  1  0.49663482  0.38653474  0.99545110  1
  O  O325  1  0.50947417  0.87238263  0.51474013  1
  O  O326  1  0.50250917  0.89119344  1.00354340  1
  O  O327  1  1.04734380  0.34338197  0.47300604  1
  O  O328  1  0.99618785  0.38065256  0.99217691  1
  O  O329  1  0.99956317  0.87819196  0.49007948  1
  O  O330  1  0.99345679  0.88446356  0.99314295  1
  O  O331  1  0.48563547  0.50514115  0.37722457  1
  O  O332  1  0.49546132  0.49644140  0.88038901  1
  O  O333  1  0.49074828  0.99945371  0.39199603  1
  O  O334  1  0.49287571  1.00511464  0.88565970  1
  O  O335  1  1.01956645  0.47367370  0.36240081  1
  O  O336  1  1.00565039  0.48670472  0.88704989  1
  O  O337  1  0.99338930  0.99427234  0.38106792  1
  O  O338  1  0.99423389  0.99560834  0.87699347  1
  O  O339  1  0.00741815  0.00200090  0.11737829  1
  O  O340  1  0.00680514  0.00213073  0.61874961  1
  O  O341  1  0.01586612  0.49536446  0.10646980  1
  O  O342  1  0.01434851  0.51955486  0.63637228  1
  O  O343  1  0.50113910  0.00523948  0.11184391  1
  O  O344  1  0.50452820  0.00313798  0.61835273  1
  O  O345  1  0.50925642  0.50308517  0.11650628  1
  O  O346  1  0.49234321  0.50798864  0.62475663  1
  O  O347  1  0.25670322  0.37665101  0.23478403  1
  O  O348  1  0.24610102  0.37363075  0.74446985  1
  O  O349  1  0.24278818  0.88023948  0.24261332  1
  O  O350  1  0.24585588  0.88147621  0.74123317  1
  O  O351  1  0.72973778  0.36377520  0.25216696  1
  O  O352  1  0.74251527  0.39196526  0.75789254  1
  O  O353  1  0.75425928  0.88055601  0.23620635  1
  O  O354  1  0.74436651  0.88046090  0.74463918  1
  O  O355  1  0.25607813  0.11746620  0.25896209  1
  O  O356  1  0.25886289  0.11969941  0.75517237  1
  O  O357  1  0.25299737  0.62486912  0.25665655  1
  O  O358  1  0.25409339  0.62583897  0.76210012  1
  O  O359  1  0.75915596  0.13499900  0.26544040  1
  O  O360  1  0.74441897  0.11925359  0.76265524  1
  O  O361  1  0.76284851  0.62909913  0.22884240  1
  O  O362  1  0.75568220  0.61655149  0.75469419  1
  O  O363  1  0.36341982  0.11689903  0.36859848  1
  O  O364  1  0.37011986  0.11511710  0.86383989  1
  O  O365  1  0.36400891  0.61857767  0.36447727  1
  O  O366  1  0.36780301  0.62316276  0.86671379  1
  O  O367  1  0.86953719  0.12677347  0.36796953  1
  O  O368  1  0.86411371  0.12012090  0.87399238  1
  O  O369  1  0.89984445  0.60458937  0.37864168  1
  O  O370  1  0.86583793  0.62930565  0.86860757  1
  O  O371  1  0.13711844  0.38380035  0.11549766  1
  O  O372  1  0.13371793  0.38307669  0.63260710  1
  O  O373  1  0.13373159  0.88599441  0.12596169  1
  O  O374  1  0.13399183  0.88477367  0.62612987  1
  O  O375  1  0.62349317  0.38437892  0.13883814  1
  O  O376  1  0.62292970  0.37026962  0.63830808  1
  O  O377  1  0.64157443  0.87188166  0.12624225  1
  O  O378  1  0.63538848  0.87301394  0.63947257  1
  O  O379  1  0.11822101  0.24378673  0.23467663  1
  O  O380  1  0.12188578  0.26295181  0.73969629  1
  O  O381  1  0.11746342  0.76668568  0.23716098  1
  O  O382  1  0.11582160  0.74879803  0.76316897  1
  O  O383  1  0.61772199  0.25795848  0.26184022  1
  O  O384  1  0.61989440  0.25807929  0.75611754  1
  O  O385  1  0.61304693  0.75480485  0.26033922  1
  O  O386  1  0.61480076  0.75692576  0.76309690  1
  O  O387  1  0.37334564  0.24250237  0.24684620  1
  O  O388  1  0.38713619  0.23975944  0.75397084  1
  O  O389  1  0.38155620  0.74303429  0.24684924  1
  O  O390  1  0.37838432  0.74525238  0.74909849  1
  O  O391  1  0.89157533  0.23565347  0.23767451  1
  O  O392  1  0.87169097  0.24479756  0.73872580  1
  O  O393  1  0.88626642  0.75573148  0.23104078  1
  O  O394  1  0.88680076  0.74051157  0.75697984  1
  O  O395  1  0.36959010  0.49050997  0.49077778  1
  O  O396  1  0.38290852  0.49685027  0.99548218  1
  O  O397  1  0.38716929  0.99444703  0.49437029  1
  O  O398  1  0.38927610  1.00145015  0.99272040  1
  O  O399  1  0.90823258  0.48077537  0.51997135  1
  O  O400  1  0.89114734  0.49105861  1.00433228  1
  O  O401  1  0.88802693  0.99781257  0.49239104  1
  O  O402  1  0.87968793  0.99427736  0.99347896  1
  O  O403  1  0.11855362  0.00359134  0.00436449  1
  O  O404  1  0.11268689  -0.00533438  0.50646402  1
  O  O405  1  0.12073923  0.50637249  0.00148977  1
  O  O406  1  0.12796109  0.50976045  0.51191979  1
  O  O407  1  0.61364510  0.01193425  0.00225494  1
  O  O408  1  0.61497610  -0.00116419  0.50645453  1
  O  O409  1  0.61673633  0.50664743  0.00392656  1
  O  O410  1  0.61963678  0.51551289  0.49672074  1
  O  O411  1  0.37118398  0.37064262  0.11898470  1
  O  O412  1  0.36029870  0.37846307  0.61933666  1
  O  O413  1  0.36320922  0.87986797  0.12394458  1
  O  O414  1  0.35964673  0.86852206  0.62945795  1
  O  O415  1  0.87909937  0.36366541  0.11023915  1
  O  O416  1  0.87685518  0.35761382  0.63380188  1
  O  O417  1  0.86497669  0.87685549  0.11662836  1
  O  O418  1  0.86522080  0.87953507  0.62627471  1
  O  O419  1  0.13807423  0.11605585  0.37448389  1
  O  O420  1  0.14291140  0.11727008  0.87014004  1
  O  O421  1  0.12316840  0.61915558  0.38798907  1
  O  O422  1  0.13130312  0.62922805  0.88093996  1
  O  O423  1  0.63200704  0.13301881  0.37878635  1
  O  O424  1  0.63046306  0.13420645  0.88351697  1
  O  O425  1  0.62852418  0.64419020  0.37261900  1
  O  O426  1  0.62912590  0.63252209  0.88040243  1
