# generated using pymatgen
data_V85Zn86O256
_symmetry_space_group_name_H-M   'P 1'
_cell_length_a   16.91978682
_cell_length_b   16.91728567
_cell_length_c   16.91575648
_cell_angle_alpha   90.03000219
_cell_angle_beta   89.97887232
_cell_angle_gamma   89.95985710
_symmetry_Int_Tables_number   1
_chemical_formula_structural   V85Zn86O256
_chemical_formula_sum   'V85 Zn86 O256'
_cell_volume   4841.91095667
_cell_formula_units_Z   1
loop_
 _symmetry_equiv_pos_site_id
 _symmetry_equiv_pos_as_xyz
  1  'x, y, z'
loop_
 _atom_site_type_symbol
 _atom_site_label
 _atom_site_symmetry_multiplicity
 _atom_site_fract_x
 _atom_site_fract_y
 _atom_site_fract_z
 _atom_site_occupancy
  V  V0  1  0.37126353  0.75032278  0.12476476  1
  V  V1  1  0.13492807  0.87517571  0.75505568  1
  V  V2  1  0.87086106  0.87852751  0.00782034  1
  V  V3  1  0.00287979  0.87751047  0.37252092  1
  V  V4  1  0.61830869  0.12872450  0.00913830  1
  V  V5  1  0.87190123  0.37509425  0.00612048  1
  V  V6  1  0.13366576  0.24537549  0.89218669  1
  V  V7  1  0.87040960  0.12586287  0.25441794  1
  V  V8  1  0.12538572  0.00165137  0.12914999  1
  V  V9  1  0.73834419  0.12806183  0.87513930  1
  V  V10  1  0.37215646  0.87535193  -0.00545291  1
  V  V11  1  0.49863938  0.75711585  0.25339693  1
  V  V12  1  0.86731778  -0.00023504  0.37726857  1
  V  V13  1  0.60986687  0.00389447  0.62316453  1
  V  V14  1  -0.00632573  0.50080101  0.50251704  1
  V  V15  1  -0.00085782  0.37229518  0.87622373  1
  V  V16  1  0.00163476  0.11856242  0.62675849  1
  V  V17  1  0.12868966  0.12080601  0.49572852  1
  V  V18  1  0.12964248  0.75525045  0.38627797  1
  V  V19  1  0.75298498  0.74937633  0.49987710  1
  V  V20  1  0.74853067  0.49734758  0.74760891  1
  V  V21  1  0.49856358  0.62321965  0.12373116  1
  V  V22  1  0.87621906  0.25265233  0.62014059  1
  V  V23  1  0.38234074  0.12179906  0.25321315  1
  V  V24  1  0.75360479  -0.00541442  0.23980063  1
  V  V25  1  0.87200297  0.12581803  0.75244273  1
  V  V26  1  0.87138939  0.50737274  0.36341521  1
  V  V27  1  0.12535882  0.24677337  0.37361952  1
  V  V28  1  0.87222272  0.75010557  0.13488176  1
  V  V29  1  -0.00098971  0.86679026  0.87452150  1
  V  V30  1  -0.00294730  0.62530928  0.13178372  1
  V  V31  1  0.37608284  0.49879339  0.37210286  1
  V  V32  1  0.40100500  -0.00676291  0.37989694  1
  V  V33  1  0.37414567  0.62595520  0.25065199  1
  V  V34  1  -0.00751297  0.37537798  0.37906071  1
  V  V35  1  0.36901337  0.23885625  0.12232537  1
  V  V36  1  0.37933907  0.86697481  0.50683893  1
  V  V37  1  0.74253689  0.25329971  -0.00261300  1
  V  V38  1  0.00391298  0.12874397  0.12268160  1
  V  V39  1  0.63146509  0.87127375  0.24050770  1
  V  V40  1  0.36055098  0.37156400  0.00897390  1
  V  V41  1  0.63124852  0.24877607  0.36740930  1
  V  V42  1  0.73821640  0.61540702  0.33622695  1
  V  V43  1  0.49926760  0.62430614  0.62360929  1
  V  V44  1  0.73172068  0.38673776  0.13510638  1
  V  V45  1  0.62515722  0.62242964  0.00198255  1
  V  V46  1  0.62296573  0.75992245  0.37954149  1
  V  V47  1  0.24054093  0.62427889  0.87460834  1
  V  V48  1  0.00131445  0.24897820  0.75045858  1
  V  V49  1  0.50387805  0.23825384  0.74292188  1
  V  V50  1  0.25052124  0.49432031  0.74942031  1
  V  V51  1  0.12549108  0.36999180  0.74817992  1
  V  V52  1  0.63095726  0.62341713  0.50334587  1
  V  V53  1  0.87633482  0.63014267  0.74789950  1
  V  V54  1  0.37505808  0.49522083  0.87562000  1
  V  V55  1  0.50043321  0.87421141  0.87531690  1
  V  V56  1  -0.00061224  0.50222968  0.00159909  1
  V  V57  1  0.25085043  0.24496729  0.49317358  1
  V  V58  1  0.25069999  0.62903778  0.38245211  1
  V  V59  1  0.24410057  0.87627283  0.13035004  1
  V  V60  1  0.50789732  0.37296887  0.36343855  1
  V  V61  1  0.37978227  0.37198421  0.49646120  1
  V  V62  1  0.00509426  0.00543867  -0.00106223  1
  V  V63  1  -0.00003870  0.24938212  0.25105353  1
  V  V64  1  0.01219602  0.75261955  0.25082333  1
  V  V65  1  0.37574241  0.62205090  0.74912074  1
  V  V66  1  0.74954139  0.62540840  0.87665831  1
  V  V67  1  0.14286027  -0.00389010  0.63088973  1
  V  V68  1  0.87314814  0.00318758  0.87683175  1
  V  V69  1  0.75359667  0.23837613  0.49498043  1
  V  V70  1  0.74817736  0.75491088  0.00765555  1
  V  V71  1  0.25359231  0.12067901  0.88352116  1
  V  V72  1  0.24155579  0.75116675  -0.00676421  1
  V  V73  1  0.50315524  0.49731270  0.00340496  1
  V  V74  1  0.74995277  0.87958395  0.62457520  1
  V  V75  1  0.24911221  0.00486557  0.26067845  1
  V  V76  1  0.50322526  0.74865673  0.74885465  1
  V  V77  1  0.13084294  0.49971712  0.12538235  1
  V  V78  1  0.13182276  0.37448436  0.24848048  1
  V  V79  1  0.50658942  0.36514803  0.87506875  1
  V  V80  1  0.75040286  0.37275815  0.61592032  1
  V  V81  1  0.25135827  0.37137625  0.62093037  1
  V  V82  1  0.61143285  0.12051399  0.49500610  1
  V  V83  1  0.87437217  0.49944693  0.87602188  1
  V  V84  1  0.49689515  0.00287847  0.00811262  1
  Zn  Zn85  1  0.11992043  0.63039735  -0.00236595  1
  Zn  Zn86  1  0.50774240  0.24595359  0.23962260  1
  Zn  Zn87  1  0.87155053  0.25215736  0.12732229  1
  Zn  Zn88  1  0.36617456  -0.00387382  0.86918224  1
  Zn  Zn89  1  0.87670649  0.87559608  0.50019493  1
  Zn  Zn90  1  0.62384976  0.49591019  0.62454104  1
  Zn  Zn91  1  0.62511424  0.87661963  0.74957424  1
  Zn  Zn92  1  0.74603928  0.00027177  0.75015933  1
  Zn  Zn93  1  0.34831736  0.74423947  0.60850417  1
  Zn  Zn94  1  0.50541981  0.49690381  0.49894255  1
  Zn  Zn95  1  0.38397249  0.24309947  0.62108790  1
  Zn  Zn96  1  0.00014643  -0.00287596  0.49968882  1
  Zn  Zn97  1  0.87773314  0.75325374  0.62468566  1
  Zn  Zn98  1  0.62520956  -0.00122846  0.12513066  1
  Zn  Zn99  1  0.12385384  0.49964712  0.62137732  1
  Zn  Zn100  1  0.00407257  0.75094171  0.74940551  1
  Zn  Zn101  1  0.62795074  0.75338103  0.87676877  1
  Zn  Zn102  1  0.62846002  0.36712164  0.75173405  1
  Zn  Zn103  1  0.36343808  0.11427614  0.73759677  1
  Zn  Zn104  1  0.00274917  0.63142955  0.62361709  1
  Zn  Zn105  1  0.25228690  0.49749948  0.24671130  1
  Zn  Zn106  1  0.12746028  0.62526735  0.50411560  1
  Zn  Zn107  1  0.19277801  0.18583043  0.18402462  1
  Zn  Zn108  1  0.19391927  0.18399726  0.68695636  1
  Zn  Zn109  1  0.18717338  0.68499719  0.19010122  1
  Zn  Zn110  1  0.18138855  0.68760999  0.68773425  1
  Zn  Zn111  1  0.69404595  0.18893043  0.18325816  1
  Zn  Zn112  1  0.68178141  0.18613710  0.68568743  1
  Zn  Zn113  1  0.68374814  0.67119185  0.18969400  1
  Zn  Zn114  1  0.68829381  0.68892631  0.68591753  1
  Zn  Zn115  1  0.31391782  0.30811308  0.30914304  1
  Zn  Zn116  1  0.31648168  0.30486466  0.81236718  1
  Zn  Zn117  1  0.31008376  0.81789907  0.31706354  1
  Zn  Zn118  1  0.29830064  0.79513612  0.78555962  1
  Zn  Zn119  1  0.81220748  0.31661019  0.31202200  1
  Zn  Zn120  1  0.81092150  0.31115139  0.81315880  1
  Zn  Zn121  1  0.81104751  0.80770770  0.31405608  1
  Zn  Zn122  1  0.81010516  0.81506229  0.81611327  1
  Zn  Zn123  1  0.18486913  0.43836710  0.43509766  1
  Zn  Zn124  1  0.18341108  0.43710301  0.93661714  1
  Zn  Zn125  1  0.19018890  0.93315265  0.44322761  1
  Zn  Zn126  1  0.18313445  0.93852736  0.93827497  1
  Zn  Zn127  1  0.69152228  0.43544610  0.43543717  1
  Zn  Zn128  1  0.68661640  0.43848990  0.94000701  1
  Zn  Zn129  1  0.68699714  0.93974709  0.43571025  1
  Zn  Zn130  1  0.68482328  0.94018426  0.93923997  1
  Zn  Zn131  1  0.30641938  0.06585054  0.05586128  1
  Zn  Zn132  1  0.32025128  0.06065559  0.55416963  1
  Zn  Zn133  1  0.31210287  0.56238820  0.05949842  1
  Zn  Zn134  1  0.31520208  0.55695932  0.56099504  1
  Zn  Zn135  1  0.81429571  0.06773458  0.06399372  1
  Zn  Zn136  1  0.81124832  0.06254066  0.56267910  1
  Zn  Zn137  1  0.81229052  0.56332643  0.06883626  1
  Zn  Zn138  1  0.81734619  0.56086449  0.56096004  1
  Zn  Zn139  1  0.43894224  0.43512599  0.18487434  1
  Zn  Zn140  1  0.44010292  0.43210525  0.68644254  1
  Zn  Zn141  1  0.43374336  0.93556370  0.18820559  1
  Zn  Zn142  1  0.43182085  0.93643781  0.68756108  1
  Zn  Zn143  1  0.93989506  0.43643715  0.18905402  1
  Zn  Zn144  1  0.93443848  0.43709321  0.68651584  1
  Zn  Zn145  1  0.94086930  0.93586302  0.19015121  1
  Zn  Zn146  1  0.93498164  0.93729713  0.68987253  1
  Zn  Zn147  1  0.06095715  0.06072418  0.31122932  1
  Zn  Zn148  1  0.06678937  0.06303366  0.81429254  1
  Zn  Zn149  1  0.06281137  0.56488025  0.31346487  1
  Zn  Zn150  1  0.06103697  0.55866598  0.80929490  1
  Zn  Zn151  1  0.56876924  0.06612072  0.30774471  1
  Zn  Zn152  1  0.55761213  0.05667718  0.81497275  1
  Zn  Zn153  1  0.56270324  0.56808331  0.31508294  1
  Zn  Zn154  1  0.56423569  0.55954267  0.81522829  1
  Zn  Zn155  1  0.43818703  0.18600214  0.42833334  1
  Zn  Zn156  1  0.43359939  0.18819910  0.93946292  1
  Zn  Zn157  1  0.44053908  0.69041436  0.43931311  1
  Zn  Zn158  1  0.43299397  0.68836267  0.93432824  1
  Zn  Zn159  1  0.93954966  0.18380488  0.43831472  1
  Zn  Zn160  1  0.93533993  0.18958135  0.93821303  1
  Zn  Zn161  1  0.93507223  0.68383164  0.43323496  1
  Zn  Zn162  1  0.93327442  0.68797990  0.94165618  1
  Zn  Zn163  1  0.06087103  0.31628652  0.06675807  1
  Zn  Zn164  1  0.06190728  0.31248029  0.56004905  1
  Zn  Zn165  1  0.06155271  0.81645028  0.06254668  1
  Zn  Zn166  1  0.06181220  0.81556120  0.56510057  1
  Zn  Zn167  1  0.55767909  0.31104398  0.06393666  1
  Zn  Zn168  1  0.56731438  0.30997040  0.55937388  1
  Zn  Zn169  1  0.56017078  0.81076178  0.06373023  1
  Zn  Zn170  1  0.55560466  0.81889698  0.56054723  1
  O  O171  1  0.11217293  0.12088330  0.12801363  1
  O  O172  1  0.12052960  0.11518621  0.62169855  1
  O  O173  1  0.11408602  0.61928793  0.12353213  1
  O  O174  1  0.12221484  0.61821525  0.62387709  1
  O  O175  1  0.62800540  0.12272034  0.11312406  1
  O  O176  1  0.62862034  0.11160550  0.61293493  1
  O  O177  1  0.61413882  0.62959167  0.10952036  1
  O  O178  1  0.61851524  0.62266157  0.61817636  1
  O  O179  1  0.38216105  0.38051437  0.37736214  1
  O  O180  1  0.38139176  0.38085467  0.88267435  1
  O  O181  1  0.37971558  0.89146578  0.36783824  1
  O  O182  1  0.37959062  0.87078286  0.88711556  1
  O  O183  1  0.88611382  0.38521143  0.37164088  1
  O  O184  1  0.87791639  0.37920835  0.88495695  1
  O  O185  1  0.88187083  0.88206363  0.37559269  1
  O  O186  1  0.87966488  0.88354874  0.88511975  1
  O  O187  1  0.24265169  -0.00249614  0.36034101  1
  O  O188  1  0.24627615  0.01595756  0.88303663  1
  O  O189  1  0.26283716  0.50455555  0.37302116  1
  O  O190  1  0.25700880  0.50171951  0.87098331  1
  O  O191  1  0.76236490  -0.00435541  0.36352006  1
  O  O192  1  0.75612717  0.00943793  0.87576647  1
  O  O193  1  0.76254621  0.50498977  0.37592055  1
  O  O194  1  0.75534255  0.50378376  0.86844076  1
  O  O195  1  0.23495306  0.50788707  0.12614810  1
  O  O196  1  0.25056180  0.48572869  0.62846401  1
  O  O197  1  0.24216222  0.99521450  0.12600514  1
  O  O198  1  0.24037590  1.00094137  0.62347483  1
  O  O199  1  0.74893147  0.48605600  0.12017999  1
  O  O200  1  0.75401215  0.48939774  0.63105244  1
  O  O201  1  0.75194701  1.00058349  0.13582216  1
  O  O202  1  0.74446141  0.98977435  0.62465848  1
  O  O203  1  0.00752077  0.36775578  0.25741349  1
  O  O204  1  0.00631931  0.37091067  0.75491599  1
  O  O205  1  0.00234000  0.86942357  0.26247994  1
  O  O206  1  0.00199548  0.87718133  0.76176736  1
  O  O207  1  0.50081950  0.37517977  0.26047272  1
  O  O208  1  0.50232655  0.37085133  0.76300474  1
  O  O209  1  0.50644056  0.86169927  0.24423179  1
  O  O210  1  0.50126340  0.86459412  0.75799686  1
  O  O211  1  0.48814030  0.12298070  0.24660950  1
  O  O212  1  0.50012485  0.13775566  0.75777302  1
  O  O213  1  0.49258803  0.63301424  0.24362846  1
  O  O214  1  0.49823401  0.62566398  0.74388835  1
  O  O215  1  0.99235280  0.13065842  0.24369335  1
  O  O216  1  0.99582860  0.13020247  0.74436334  1
  O  O217  1  1.00138268  0.63624152  0.24259997  1
  O  O218  1  0.99026465  0.62644584  0.75126257  1
  O  O219  1  0.37606904  0.26204434  0.00957373  1
  O  O220  1  0.36857596  0.25790097  0.49350498  1
  O  O221  1  0.36394744  0.75533561  0.00514369  1
  O  O222  1  0.37213654  0.75728196  0.49846570  1
  O  O223  1  0.86674525  0.26046333  0.00150062  1
  O  O224  1  0.86883919  0.24265816  0.50880962  1
  O  O225  1  0.86896329  0.75883211  0.01060967  1
  O  O226  1  0.86218100  0.74938054  0.49821057  1
  O  O227  1  0.13121936  0.24210550  0.49497465  1
  O  O228  1  0.12019978  0.25605118  0.98968475  1
  O  O229  1  0.12274947  0.74701425  0.49026385  1
  O  O230  1  0.13724372  0.75150870  1.00149976  1
  O  O231  1  0.63265290  0.23801468  0.49305137  1
  O  O232  1  0.62988316  0.24313216  1.00108200  1
  O  O233  1  0.63203829  0.74795155  0.49591146  1
  O  O234  1  0.63277196  0.74449472  1.00022998  1
  O  O235  1  0.47853375  0.26130824  0.12866847  1
  O  O236  1  0.50259361  0.25453554  0.63854312  1
  O  O237  1  0.49065101  0.74349270  0.13078092  1
  O  O238  1  0.50189922  0.73756805  0.63423936  1
  O  O239  1  0.99683175  0.24416949  0.13146860  1
  O  O240  1  0.99498159  0.24079208  0.62786775  1
  O  O241  1  0.99772490  0.74534072  0.13122378  1
  O  O242  1  0.99515354  0.74982685  0.62990790  1
  O  O243  1  0.00340124  0.25825644  0.37218286  1
  O  O244  1  0.00821250  0.25417366  0.87048379  1
  O  O245  1  0.00595456  0.75421307  0.36839071  1
  O  O246  1  -0.00632867  0.76374246  0.87739309  1
  O  O247  1  0.51015054  0.25731642  0.36883429  1
  O  O248  1  0.49513719  0.26248394  0.87011151  1
  O  O249  1  0.51167238  0.74060690  0.36398740  1
  O  O250  1  0.50382007  0.76010835  0.87507079  1
  O  O251  1  0.23766360  0.13165801  0.50056929  1
  O  O252  1  0.24733061  0.13453689  0.98532171  1
  O  O253  1  0.25163769  0.61919795  0.48684255  1
  O  O254  1  0.24761697  0.63275914  0.99215042  1
  O  O255  1  0.74315840  0.13536793  0.50301312  1
  O  O256  1  0.74370674  0.13417041  0.99602414  1
  O  O257  1  0.74187313  0.63418478  0.51153301  1
  O  O258  1  0.74252082  0.62945577  0.99778671  1
  O  O259  1  0.26296581  0.37930909  -0.00349949  1
  O  O260  1  0.25656498  0.37007135  0.50341224  1
  O  O261  1  0.25413032  0.86975521  0.00397237  1
  O  O262  1  0.27703334  0.87892630  0.48775926  1
  O  O263  1  0.75438427  0.37025541  0.00404887  1
  O  O264  1  0.74777019  0.36359638  0.51137316  1
  O  O265  1  0.75829887  0.86764045  -0.00300234  1
  O  O266  1  0.75024427  0.86741581  0.50531834  1
  O  O267  1  0.12413387  0.49256997  0.24406171  1
  O  O268  1  0.13064960  0.48422971  0.75000080  1
  O  O269  1  0.13290507  1.00693782  0.23729195  1
  O  O270  1  0.11994468  0.99578817  0.73675675  1
  O  O271  1  0.66537057  0.57070674  0.26636026  1
  O  O272  1  0.63966556  0.49941842  0.74888542  1
  O  O273  1  0.63528196  0.99105288  0.24806324  1
  O  O274  1  0.62459556  1.00153537  0.73521959  1
  O  O275  1  0.37012345  0.00383724  0.25708203  1
  O  O276  1  0.38529930  0.00433404  0.75918334  1
  O  O277  1  0.37466617  0.50490441  0.25602084  1
  O  O278  1  0.37131414  0.50024744  0.75730768  1
  O  O279  1  0.87107265  0.00468983  0.25437237  1
  O  O280  1  0.87113946  0.00924951  0.75822735  1
  O  O281  1  0.88155646  0.50137329  0.26418678  1
  O  O282  1  0.86590947  0.50706811  0.75450914  1
  O  O283  1  0.11423593  0.36898254  0.36837350  1
  O  O284  1  0.12013647  0.36499787  0.86829649  1
  O  O285  1  0.11764602  0.86743484  0.37882206  1
  O  O286  1  0.10995569  0.88747647  0.86533876  1
  O  O287  1  0.61886056  0.36407409  0.38042565  1
  O  O288  1  0.60960366  0.37985920  0.87495959  1
  O  O289  1  0.63042652  0.86385787  0.36589240  1
  O  O290  1  0.61618519  0.87394599  0.87265894  1
  O  O291  1  0.37330972  0.13398493  0.12621026  1
  O  O292  1  0.36450802  0.13263180  0.62468512  1
  O  O293  1  0.37719858  0.63039523  0.12974241  1
  O  O294  1  0.38137215  0.62591654  0.62890729  1
  O  O295  1  0.88657755  0.12764098  0.13354699  1
  O  O296  1  0.88172178  0.13247543  0.63098611  1
  O  O297  1  0.88784720  0.63558844  0.11948130  1
  O  O298  1  0.87691195  0.62722637  0.63570715  1
  O  O299  1  0.26853569  0.25477475  0.13120281  1
  O  O300  1  0.24662774  0.26018352  0.61108447  1
  O  O301  1  0.25180631  0.75721988  0.11952066  1
  O  O302  1  0.26585370  0.75696700  0.67911973  1
  O  O303  1  0.75224453  0.26082876  0.11238466  1
  O  O304  1  0.75732286  0.25314204  0.61953170  1
  O  O305  1  0.75785121  0.74211844  0.11434659  1
  O  O306  1  0.74916917  0.76277068  0.61828442  1
  O  O307  1  0.24321326  0.25501057  0.38631294  1
  O  O308  1  0.23650814  0.25233603  0.87800889  1
  O  O309  1  0.24012708  0.74235647  0.36741406  1
  O  O310  1  0.25699550  0.73586836  0.88151074  1
  O  O311  1  0.74499863  0.25762808  0.38486640  1
  O  O312  1  0.75212494  0.24374414  0.88744699  1
  O  O313  1  0.74082243  0.74084910  0.38344318  1
  O  O314  1  0.75150403  0.74306921  0.88922056  1
  O  O315  1  -0.00815867  0.11702832  0.00939177  1
  O  O316  1  0.01254296  0.12424710  0.50990673  1
  O  O317  1  0.00124692  0.61969246  0.00660306  1
  O  O318  1  0.00020309  0.61218021  0.49932562  1
  O  O319  1  0.50716930  0.11630616  -0.00802787  1
  O  O320  1  0.51319803  0.13143317  0.49962024  1
  O  O321  1  0.50401310  0.61762965  0.00045228  1
  O  O322  1  0.50900891  0.62367364  0.50828337  1
  O  O323  1  0.49378728  0.37382699  0.49053396  1
  O  O324  1  0.49290259  0.38069584  0.98998727  1
  O  O325  1  0.48318115  0.86761935  0.48866154  1
  O  O326  1  0.49140926  0.87769856  0.99563063  1
  O  O327  1  1.00360680  0.38554176  0.49053116  1
  O  O328  1  0.99053518  0.38055853  0.99609862  1
  O  O329  1  0.99728946  0.87640856  0.48779514  1
  O  O330  1  0.99248165  0.88405903  0.99375321  1
  O  O331  1  0.49302182  0.49572873  0.37447269  1
  O  O332  1  0.49202569  0.49224222  0.88232235  1
  O  O333  1  0.49928973  0.99770424  0.37110675  1
  O  O334  1  0.49997966  0.98531421  0.88693539  1
  O  O335  1  0.99152773  0.49672589  0.38131927  1
  O  O336  1  0.99442084  0.49178911  0.88052807  1
  O  O337  1  0.99167744  0.99190508  0.37414050  1
  O  O338  1  0.99270437  0.99994769  0.88420942  1
  O  O339  1  0.00627824  0.00662195  0.12129234  1
  O  O340  1  -0.00119399  0.01190270  0.62366238  1
  O  O341  1  0.00519600  0.50850625  0.12232856  1
  O  O342  1  -0.00211828  0.49765518  0.61185052  1
  O  O343  1  0.49952159  -0.00727328  0.11157678  1
  O  O344  1  0.51228520  -0.00501884  0.62106426  1
  O  O345  1  0.49407930  0.50535571  0.11101373  1
  O  O346  1  0.50126058  0.51008495  0.62362831  1
  O  O347  1  0.23586437  0.37696980  0.25705883  1
  O  O348  1  0.24560783  0.37334583  0.74182287  1
  O  O349  1  0.25674493  0.88467339  0.23482374  1
  O  O350  1  0.23175076  0.88875301  0.77210525  1
  O  O351  1  0.75099922  0.37148002  0.23316064  1
  O  O352  1  0.75031489  0.38082462  0.74238915  1
  O  O353  1  0.74346910  0.88033402  0.25156853  1
  O  O354  1  0.74589776  0.87682860  0.74172304  1
  O  O355  1  0.26459246  0.11354911  0.24245349  1
  O  O356  1  0.25078289  0.13884435  0.77177995  1
  O  O357  1  0.25832926  0.62231337  0.26012441  1
  O  O358  1  0.25516827  0.61126355  0.75873622  1
  O  O359  1  0.76443097  0.11726068  0.24456700  1
  O  O360  1  0.75306758  0.12732723  0.75925545  1
  O  O361  1  0.77807035  0.66393673  0.25664688  1
  O  O362  1  0.75570879  0.61828810  0.75450172  1
  O  O363  1  0.37886497  0.10845277  0.36653208  1
  O  O364  1  0.36153829  0.12579825  0.87636073  1
  O  O365  1  0.37216124  0.61779279  0.37124394  1
  O  O366  1  0.36875497  0.60914526  0.87327482  1
  O  O367  1  0.88322383  0.11405915  0.36507728  1
  O  O368  1  0.86464255  0.12200137  0.87258142  1
  O  O369  1  0.86205161  0.61181005  0.37731739  1
  O  O370  1  0.86889984  0.61820181  0.87087601  1
  O  O371  1  0.11768011  0.38650814  0.13598849  1
  O  O372  1  0.13225885  0.37519571  0.63108459  1
  O  O373  1  0.13301818  0.88601637  0.12141478  1
  O  O374  1  0.12164673  0.88885069  0.63767283  1
  O  O375  1  0.63202757  0.37561667  0.12319861  1
  O  O376  1  0.63552132  0.37639501  0.62808148  1
  O  O377  1  0.62439741  0.87367647  0.13664385  1
  O  O378  1  0.62946731  0.88747536  0.62279118  1
  O  O379  1  0.12106843  0.25441763  0.25360171  1
  O  O380  1  0.11996234  0.25926548  0.75132748  1
  O  O381  1  0.11641289  0.74962720  0.25714217  1
  O  O382  1  0.12147461  0.77063590  0.75240624  1
  O  O383  1  0.62690916  0.23717133  0.26306362  1
  O  O384  1  0.61165988  0.25042703  0.75148706  1
  O  O385  1  0.61908239  0.75413112  0.25609191  1
  O  O386  1  0.61503182  0.74834092  0.75466855  1
  O  O387  1  0.37719138  0.23902263  0.24319762  1
  O  O388  1  0.39178841  0.25114189  0.74670802  1
  O  O389  1  0.38079806  0.74718454  0.24663741  1
  O  O390  1  0.39604597  0.73396041  0.76662466  1
  O  O391  1  0.88061244  0.24228013  0.25083193  1
  O  O392  1  0.88164633  0.24424079  0.74484593  1
  O  O393  1  0.88984612  0.76633661  0.23621197  1
  O  O394  1  0.87215115  0.73788467  0.75356347  1
  O  O395  1  0.37901505  0.48667196  0.49087209  1
  O  O396  1  0.37978887  0.49041792  0.99408660  1
  O  O397  1  0.38074485  0.99391487  0.48388392  1
  O  O398  1  0.37894085  0.99193650  0.99606465  1
  O  O399  1  0.88758579  0.49920033  0.49010345  1
  O  O400  1  0.87926912  0.49437252  0.99604224  1
  O  O401  1  0.87718523  1.00128462  0.49015662  1
  O  O402  1  0.88127321  0.99493364  0.99852013  1
  O  O403  1  0.11148950  -0.00149642  0.01056250  1
  O  O404  1  0.12387207  0.00432788  0.51237807  1
  O  O405  1  0.11595629  0.49948017  0.00786286  1
  O  O406  1  0.11046719  0.50164173  0.49765061  1
  O  O407  1  0.61646956  0.00733291  0.00493316  1
  O  O408  1  0.62894452  0.01249633  0.50516117  1
  O  O409  1  0.61399310  0.50910370  -0.00539780  1
  O  O410  1  0.62629370  0.50922730  0.50113583  1
  O  O411  1  0.37135385  0.37628481  0.11199314  1
  O  O412  1  0.36964974  0.36960489  0.61356040  1
  O  O413  1  0.36627758  0.87015478  0.11354247  1
  O  O414  1  0.38187848  0.86791992  0.61176794  1
  O  O415  1  0.87439400  0.37590665  0.11412074  1
  O  O416  1  0.86968799  0.35930462  0.62992872  1
  O  O417  1  0.88173792  0.86933080  0.11357761  1
  O  O418  1  0.86531396  0.87489931  0.62150373  1
  O  O419  1  0.11621189  0.13233205  0.38467177  1
  O  O420  1  0.12925054  0.14012030  0.87431604  1
  O  O421  1  0.13487689  0.63271951  0.37621382  1
  O  O422  1  0.13647423  0.61654713  0.87641462  1
  O  O423  1  0.62539641  0.13016531  0.38725513  1
  O  O424  1  0.63549728  0.11694476  0.88490570  1
  O  O425  1  0.63131204  0.63671136  0.39173355  1
  O  O426  1  0.63060456  0.62704889  0.88567182  1
