# generated using pymatgen
data_V85Zn86O256
_symmetry_space_group_name_H-M   'P 1'
_cell_length_a   16.97929141
_cell_length_b   16.98764678
_cell_length_c   16.96469703
_cell_angle_alpha   89.96108047
_cell_angle_beta   89.97463080
_cell_angle_gamma   90.03694521
_symmetry_Int_Tables_number   1
_chemical_formula_structural   V85Zn86O256
_chemical_formula_sum   'V85 Zn86 O256'
_cell_volume   4893.26413420
_cell_formula_units_Z   1
loop_
 _symmetry_equiv_pos_site_id
 _symmetry_equiv_pos_as_xyz
  1  'x, y, z'
loop_
 _atom_site_type_symbol
 _atom_site_label
 _atom_site_symmetry_multiplicity
 _atom_site_fract_x
 _atom_site_fract_y
 _atom_site_fract_z
 _atom_site_occupancy
  V  V0  1  0.37878506  0.37607604  -0.00206734  1
  V  V1  1  0.40920678  0.16711871  0.78769847  1
  V  V2  1  0.62655441  0.74568883  0.87532869  1
  V  V3  1  -0.00576330  0.12464138  0.62919326  1
  V  V4  1  0.50316286  0.00117218  0.01027747  1
  V  V5  1  0.75146080  0.62452431  0.87528107  1
  V  V6  1  0.63034949  0.88288228  0.24517020  1
  V  V7  1  0.37572573  0.62515075  0.74323290  1
  V  V8  1  0.87572036  0.12403247  0.25230812  1
  V  V9  1  0.12453601  0.00272821  0.62906905  1
  V  V10  1  0.12669474  0.12535991  0.00028003  1
  V  V11  1  0.24469854  0.25191387  0.00221997  1
  V  V12  1  0.87511672  0.49862048  0.87231919  1
  V  V13  1  0.36742699  0.10422944  0.25777435  1
  V  V14  1  0.86808326  0.26076438  0.63080187  1
  V  V15  1  0.88073922  0.49631812  0.37332028  1
  V  V16  1  0.87160613  0.12332396  0.75964483  1
  V  V17  1  0.75344478  0.87590575  0.62044873  1
  V  V18  1  0.86915164  -0.01022607  0.38116101  1
  V  V19  1  0.37974919  0.61015565  0.26249538  1
  V  V20  1  0.48272887  -0.00571864  0.49367357  1
  V  V21  1  0.25428385  0.12514790  0.87174118  1
  V  V22  1  0.50429179  0.62481596  0.12676643  1
  V  V23  1  0.62105824  -0.00343167  0.62055211  1
  V  V24  1  0.37764188  0.49761216  0.87262368  1
  V  V25  1  0.37407520  -0.00981252  0.87954559  1
  V  V26  1  0.25287175  0.62767886  0.87898374  1
  V  V27  1  0.37026120  0.37344502  0.49743132  1
  V  V28  1  0.73401276  0.26677838  0.51985509  1
  V  V29  1  0.74937451  0.12216414  0.38118297  1
  V  V30  1  0.49472398  0.86881310  0.37787365  1
  V  V31  1  0.74808252  0.75496607  0.49377701  1
  V  V32  1  0.62738202  0.62525812  0.50289483  1
  V  V33  1  0.49677779  0.24568273  0.25092836  1
  V  V34  1  0.00395117  0.49401425  0.49643080  1
  V  V35  1  0.62630958  0.24684610  0.37361702  1
  V  V36  1  0.62725195  0.37722325  0.25542619  1
  V  V37  1  0.12923016  0.49993559  0.13272660  1
  V  V38  1  0.13185780  0.75324710  0.87476718  1
  V  V39  1  0.49423119  0.86778439  0.88717157  1
  V  V40  1  0.24965487  0.38046285  0.62457043  1
  V  V41  1  0.87702934  0.63272563  0.24965325  1
  V  V42  1  0.62309209  0.86962437  0.74754100  1
  V  V43  1  0.72764673  0.12604988  0.87482255  1
  V  V44  1  0.00910351  0.75728195  0.24912569  1
  V  V45  1  0.00997408  0.87332617  0.37881878  1
  V  V46  1  0.49220527  0.12474235  0.62240003  1
  V  V47  1  0.36453643  0.74167859  0.11886168  1
  V  V48  1  0.87661757  0.37035999  -0.00396812  1
  V  V49  1  0.63047125  0.50128378  0.12608886  1
  V  V50  1  0.00290059  0.75115499  0.74845288  1
  V  V51  1  0.74313435  0.50058112  0.73416835  1
  V  V52  1  0.49744106  0.50363486  0.49851528  1
  V  V53  1  0.49870838  0.74919688  0.74920096  1
  V  V54  1  0.37525197  0.75507855  0.61459002  1
  V  V55  1  0.00621799  0.62878817  0.61298142  1
  V  V56  1  0.87637853  0.75333330  0.61726745  1
  V  V57  1  0.23617558  0.12430483  0.38587770  1
  V  V58  1  0.00398183  -0.00586250  0.00164341  1
  V  V59  1  0.50973496  0.74788817  0.25356345  1
  V  V60  1  -0.00226574  0.25505053  0.75449695  1
  V  V61  1  0.36428444  0.24460808  0.61900284  1
  V  V62  1  0.12885605  0.62520099  0.00081434  1
  V  V63  1  -0.00299462  0.12469543  0.12617302  1
  V  V64  1  0.50560935  0.49499134  -0.00445632  1
  V  V65  1  -0.00053436  0.50075146  -0.00024997  1
  V  V66  1  0.37334471  0.24614137  0.13020781  1
  V  V67  1  -0.00652576  0.87459260  0.87720433  1
  V  V68  1  0.25159960  0.38200638  0.13702702  1
  V  V69  1  0.73621163  0.24626131  -0.00445020  1
  V  V70  1  0.87890647  0.62526453  0.74780235  1
  V  V71  1  0.75393242  0.50154821  0.25268839  1
  V  V72  1  0.50423223  0.62002281  0.62856868  1
  V  V73  1  0.13648683  0.00302965  0.13711985  1
  V  V74  1  0.63123318  0.62527427  0.00052774  1
  V  V75  1  0.25459683  0.87906593  0.62376039  1
  V  V76  1  0.49425001  0.37943197  0.37457095  1
  V  V77  1  0.74688647  0.62633347  0.37490557  1
  V  V78  1  0.87397122  0.24664348  0.12742232  1
  V  V79  1  0.13048403  0.50765285  0.62197647  1
  V  V80  1  -0.00862441  -0.00579809  0.50556880  1
  V  V81  1  0.75190921  0.37492425  0.12499463  1
  V  V82  1  0.87400805  0.75344321  0.11711596  1
  V  V83  1  0.23305656  0.75408229  0.49134827  1
  V  V84  1  0.81716741  0.93527507  0.05916777  1
  Zn  Zn85  1  0.25762567  0.00634384  0.74838165  1
  Zn  Zn86  1  0.12593085  0.37955749  0.75305607  1
  Zn  Zn87  1  0.24991908  0.50311271  0.74872053  1
  Zn  Zn88  1  0.64270135  0.35768845  0.69042077  1
  Zn  Zn89  1  0.00626891  0.37460849  0.87624350  1
  Zn  Zn90  1  0.12799039  0.88083014  0.75334995  1
  Zn  Zn91  1  0.00284535  0.63224198  0.12250462  1
  Zn  Zn92  1  0.86928130  -0.00283256  0.87868397  1
  Zn  Zn93  1  0.23633397  0.62757980  0.36757400  1
  Zn  Zn94  1  0.26236705  0.87599351  0.12287468  1
  Zn  Zn95  1  0.62078993  0.11646724  0.49601326  1
  Zn  Zn96  1  0.74928947  -0.00332255  0.75072118  1
  Zn  Zn97  1  0.12061973  0.37204069  0.27404970  1
  Zn  Zn98  1  0.56041512  0.29854246  0.82503832  1
  Zn  Zn99  1  0.74797420  0.00012426  0.23764319  1
  Zn  Zn100  1  0.11659829  0.13312432  0.49523670  1
  Zn  Zn101  1  0.12942265  0.25195638  0.86816375  1
  Zn  Zn102  1  0.00337452  0.25601572  0.28028209  1
  Zn  Zn103  1  0.88327501  0.36399896  0.48742745  1
  Zn  Zn104  1  0.75493879  0.75818296  0.00116918  1
  Zn  Zn105  1  0.50965142  0.11684961  0.13214668  1
  Zn  Zn106  1  0.14503768  0.88201373  0.26058702  1
  Zn  Zn107  1  0.18964481  0.18622532  0.19554327  1
  Zn  Zn108  1  0.14611985  0.23384909  0.63476258  1
  Zn  Zn109  1  0.18424891  0.67778387  0.20941141  1
  Zn  Zn110  1  0.19117395  0.69009710  0.68644658  1
  Zn  Zn111  1  0.69162218  0.18832244  0.19348857  1
  Zn  Zn112  1  0.67844076  0.17824990  0.69280277  1
  Zn  Zn113  1  0.69102650  0.69546765  0.18707450  1
  Zn  Zn114  1  0.68882838  0.68444069  0.68707877  1
  Zn  Zn115  1  0.30850323  0.30940549  0.31624490  1
  Zn  Zn116  1  0.31023436  0.31845914  0.81267320  1
  Zn  Zn117  1  0.31749671  0.80811357  0.30466450  1
  Zn  Zn118  1  0.31190993  0.81394535  0.80746992  1
  Zn  Zn119  1  0.81331367  0.31108679  0.31567790  1
  Zn  Zn120  1  0.79781890  0.31351320  0.81007459  1
  Zn  Zn121  1  0.81266980  0.81471575  0.31029864  1
  Zn  Zn122  1  0.81352808  0.81060192  0.80810276  1
  Zn  Zn123  1  0.19258332  0.45073033  0.43213099  1
  Zn  Zn124  1  0.18999199  0.43670957  0.93946562  1
  Zn  Zn125  1  0.19237511  0.94751061  0.44308890  1
  Zn  Zn126  1  0.19281010  0.93566551  0.94471625  1
  Zn  Zn127  1  0.67105959  0.42238927  0.47583425  1
  Zn  Zn128  1  0.69014020  0.43361458  0.93433899  1
  Zn  Zn129  1  0.67887726  0.93240236  0.43242690  1
  Zn  Zn130  1  0.67996871  0.93738899  0.92842938  1
  Zn  Zn131  1  0.31936484  0.06339420  0.06126035  1
  Zn  Zn132  1  0.30756915  0.06428375  0.55683905  1
  Zn  Zn133  1  0.31498855  0.56545507  0.06500635  1
  Zn  Zn134  1  0.29854884  0.55592028  0.52846989  1
  Zn  Zn135  1  0.67591024  0.06737418  0.05856379  1
  Zn  Zn136  1  0.80996917  0.06609823  0.56395911  1
  Zn  Zn137  1  0.81635798  0.56484190  0.06304199  1
  Zn  Zn138  1  0.82005906  0.56507746  0.55780320  1
  Zn  Zn139  1  0.44175304  0.43552297  0.18396191  1
  Zn  Zn140  1  0.44218969  0.43293675  0.68496871  1
  Zn  Zn141  1  0.43377127  0.92253490  0.18776812  1
  Zn  Zn142  1  0.43618132  0.93792671  0.69230722  1
  Zn  Zn143  1  0.93918719  0.44021098  0.18647007  1
  Zn  Zn144  1  0.93917499  0.43949706  0.68518620  1
  Zn  Zn145  1  0.94345547  0.94166537  0.19456713  1
  Zn  Zn146  1  0.93468883  0.93666394  0.69391873  1
  Zn  Zn147  1  0.05796891  0.06394651  0.31735464  1
  Zn  Zn148  1  0.06362811  0.06492223  0.81452765  1
  Zn  Zn149  1  0.06358076  0.56636644  0.31234387  1
  Zn  Zn150  1  0.06375422  0.56295266  0.80973945  1
  Zn  Zn151  1  0.56031768  0.05756419  0.30979922  1
  Zn  Zn152  1  0.55688691  0.05060735  0.80975859  1
  Zn  Zn153  1  0.56533891  0.56174902  0.31616330  1
  Zn  Zn154  1  0.56557651  0.46769413  0.81149921  1
  Zn  Zn155  1  0.43123094  0.18450159  0.43478714  1
  Zn  Zn156  1  0.44244173  0.18449562  0.95469589  1
  Zn  Zn157  1  0.43950702  0.69300642  0.43783900  1
  Zn  Zn158  1  0.44079029  0.68048995  0.93837113  1
  Zn  Zn159  1  0.92879221  0.18247491  0.44656027  1
  Zn  Zn160  1  0.93541530  0.18602873  0.93995816  1
  Zn  Zn161  1  0.93800843  0.69088373  0.43434954  1
  Zn  Zn162  1  0.94099842  0.68867724  0.93783038  1
  Zn  Zn163  1  0.06324536  0.31171660  0.13110903  1
  Zn  Zn164  1  0.07088300  0.30830331  0.45157368  1
  Zn  Zn165  1  0.10305459  0.82841260  0.04918479  1
  Zn  Zn166  1  0.06593753  0.81939818  0.56313213  1
  Zn  Zn167  1  0.56220751  0.31358053  0.06745856  1
  Zn  Zn168  1  0.55173092  0.30230687  0.55599175  1
  Zn  Zn169  1  0.56559195  0.80972829  0.06514906  1
  Zn  Zn170  1  0.56362130  0.80909407  0.55789056  1
  O  O171  1  0.11816898  0.11760441  0.12006104  1
  O  O172  1  0.10287637  0.11765027  0.63450839  1
  O  O173  1  0.12568776  0.61729006  0.11707008  1
  O  O174  1  0.11555149  0.62173730  0.63190971  1
  O  O175  1  0.62272160  0.12479103  0.13588787  1
  O  O176  1  0.61151246  0.11211973  0.62335813  1
  O  O177  1  0.62475957  0.62127490  0.12088197  1
  O  O178  1  0.61531948  0.63330173  0.61584267  1
  O  O179  1  0.38626631  0.36820533  0.38099081  1
  O  O180  1  0.37375065  0.38525107  0.88448876  1
  O  O181  1  0.39563814  0.87119381  0.36607947  1
  O  O182  1  0.38267317  0.87535317  0.87633590  1
  O  O183  1  0.87651975  0.39379150  0.36540276  1
  O  O184  1  0.86981656  0.38176833  0.88117253  1
  O  O185  1  0.87908498  0.88772588  0.37391121  1
  O  O186  1  0.88917441  0.87418633  0.86987532  1
  O  O187  1  0.24849090  0.02085284  0.37777570  1
  O  O188  1  0.25762508  0.00600228  0.88078338  1
  O  O189  1  0.26169053  0.53305967  0.42107380  1
  O  O190  1  0.26218399  0.50866670  0.87400292  1
  O  O191  1  0.75413454  0.00708247  0.38065309  1
  O  O192  1  0.74804215  0.01275999  0.87378939  1
  O  O193  1  0.76202119  0.51184228  0.36744850  1
  O  O194  1  0.75765937  0.51175836  0.86994322  1
  O  O195  1  0.24331653  0.49335238  0.12002836  1
  O  O196  1  0.24548329  0.50042293  0.62144369  1
  O  O197  1  0.23822695  1.00242615  0.11923690  1
  O  O198  1  0.24181391  0.99861079  0.62649264  1
  O  O199  1  0.75026609  0.49545866  0.13256076  1
  O  O200  1  0.75613224  0.50977827  0.63536869  1
  O  O201  1  0.75837892  0.99747831  0.11454310  1
  O  O202  1  0.74018448  0.99170117  0.62404660  1
  O  O203  1  0.00825784  0.36346888  0.22641350  1
  O  O204  1  -0.00200214  0.36780482  0.75388412  1
  O  O205  1  -0.00285354  0.87162557  0.26460290  1
  O  O206  1  0.00434555  0.86857530  0.75804101  1
  O  O207  1  0.50693043  0.36816392  0.25751708  1
  O  O208  1  0.53223994  0.38704414  0.73418837  1
  O  O209  1  0.50709150  0.86605247  0.25742554  1
  O  O210  1  0.50515244  0.86692272  0.75870834  1
  O  O211  1  0.48917922  0.13141428  0.25185582  1
  O  O212  1  0.48729620  0.11245524  0.73845920  1
  O  O213  1  0.50538478  0.62873482  0.24357228  1
  O  O214  1  0.49140107  0.63300140  0.74099864  1
  O  O215  1  0.98729129  0.12906960  0.24900418  1
  O  O216  1  0.98875730  0.13014178  0.75056168  1
  O  O217  1  0.98671036  0.63731743  0.24755333  1
  O  O218  1  0.99477338  0.63211766  0.74230196  1
  O  O219  1  0.37224859  0.25604153  0.01398952  1
  O  O220  1  0.38257715  0.26009180  0.50791738  1
  O  O221  1  0.37778171  0.72872641  0.01969863  1
  O  O222  1  0.37652519  0.75260308  0.51330674  1
  O  O223  1  0.86367248  0.25602940  0.00350100  1
  O  O224  1  0.86019808  0.24827163  0.51707307  1
  O  O225  1  0.87573254  0.74852220  0.01082947  1
  O  O226  1  0.86771501  0.74627633  0.51190109  1
  O  O227  1  0.11034537  0.24033896  0.52953747  1
  O  O228  1  0.14098320  0.24464025  1.00415230  1
  O  O229  1  0.13306429  0.75828853  0.49424587  1
  O  O230  1  0.11406118  0.73112127  0.98782540  1
  O  O231  1  0.62454979  0.23606005  0.48526570  1
  O  O232  1  0.63708906  0.25706375  1.00466921  1
  O  O233  1  0.63554999  0.73741162  0.50051393  1
  O  O234  1  0.63195610  0.74351900  0.99463084  1
  O  O235  1  0.49439399  0.25134186  0.13956110  1
  O  O236  1  0.48979991  0.23088387  0.61984852  1
  O  O237  1  0.50228657  0.73450147  0.13014467  1
  O  O238  1  0.49363431  0.74487718  0.62835297  1
  O  O239  1  0.98065075  0.23836890  0.10641853  1
  O  O240  1  0.98157686  0.23775840  0.64253852  1
  O  O241  1  0.98437088  0.75295607  0.13342694  1
  O  O242  1  0.99495061  0.74799991  0.62607854  1
  O  O243  1  -0.01417252  0.25891204  0.39051219  1
  O  O244  1  0.00009382  0.24944211  0.86493236  1
  O  O245  1  -0.00635248  0.76410490  0.36682446  1
  O  O246  1  0.00785206  0.75624329  0.86960349  1
  O  O247  1  0.50474224  0.25319913  0.36600290  1
  O  O248  1  0.47332938  0.22746733  0.85433185  1
  O  O249  1  0.50438138  0.76055515  0.37009071  1
  O  O250  1  0.50420821  0.75205834  0.87135687  1
  O  O251  1  0.24139031  0.12808414  0.49140628  1
  O  O252  1  0.25084125  0.13397481  0.99449258  1
  O  O253  1  0.24712584  0.65809651  0.51983924  1
  O  O254  1  0.24398066  0.61984008  0.98683559  1
  O  O255  1  0.74504382  0.13319415  0.49129274  1
  O  O256  1  0.74179448  0.13108333  0.98431658  1
  O  O257  1  0.74554216  0.63037333  0.49412454  1
  O  O258  1  0.74792556  0.62572664  0.99162513  1
  O  O259  1  0.26389354  0.36808587  0.00522650  1
  O  O260  1  0.26700801  0.38161842  0.50701951  1
  O  O261  1  0.21283997  0.85950227  0.02212863  1
  O  O262  1  0.24536750  0.86924453  0.51404923  1
  O  O263  1  0.75933885  0.36972950  0.00441726  1
  O  O264  1  0.76481546  0.35923971  0.47749234  1
  O  O265  1  0.75593704  0.87995742  -0.00259685  1
  O  O266  1  0.74155402  0.86536396  0.50723296  1
  O  O267  1  0.11520820  0.49149378  0.23356818  1
  O  O268  1  0.12576857  0.49963667  0.73630707  1
  O  O269  1  0.12345631  1.00917406  0.23921085  1
  O  O270  1  0.12970176  1.00374159  0.74131217  1
  O  O271  1  0.63403366  0.49529157  0.24648558  1
  O  O272  1  0.64552278  0.52085395  0.74793180  1
  O  O273  1  0.62819480  0.98877440  0.24791521  1
  O  O274  1  0.62269787  0.98884855  0.73605910  1
  O  O275  1  0.38085058  0.00753778  0.24349412  1
  O  O276  1  0.37565385  -0.00361228  0.77105877  1
  O  O277  1  0.39462100  0.51127882  0.25184466  1
  O  O278  1  0.37769475  0.50889348  0.75568259  1
  O  O279  1  0.86986301  0.00806991  0.25973041  1
  O  O280  1  0.86965857  0.00835603  0.75585986  1
  O  O281  1  0.87408475  0.51274812  0.25190799  1
  O  O282  1  0.86960278  0.50702618  0.75401844  1
  O  O283  1  0.13196612  0.37526494  0.38447321  1
  O  O284  1  0.12568934  0.37056874  0.87252464  1
  O  O285  1  0.11314882  0.88943787  0.37529010  1
  O  O286  1  0.11748524  0.86651775  0.87365428  1
  O  O287  1  0.61431375  0.36462457  0.37764249  1
  O  O288  1  0.60322386  0.38718765  0.88519952  1
  O  O289  1  0.61058719  0.87767684  0.35981721  1
  O  O290  1  0.61645550  0.86399832  0.86748876  1
  O  O291  1  0.38056559  0.13314543  0.13439546  1
  O  O292  1  0.37628743  0.13282280  0.62109454  1
  O  O293  1  0.39019982  0.62332365  0.13368825  1
  O  O294  1  0.38139579  0.63401473  0.63405892  1
  O  O295  1  0.87746741  0.13284458  0.13844282  1
  O  O296  1  0.87831840  0.12562150  0.64037462  1
  O  O297  1  0.87710736  0.63537454  0.13265939  1
  O  O298  1  0.88484325  0.63456511  0.62888124  1
  O  O299  1  0.25936729  0.25686068  0.12047516  1
  O  O300  1  0.26002922  0.26351933  0.62581188  1
  O  O301  1  0.26548343  0.72974225  0.13353740  1
  O  O302  1  0.25770254  0.76379508  0.62516677  1
  O  O303  1  0.75945072  0.25350502  0.11867488  1
  O  O304  1  0.75515063  0.23496155  0.62102965  1
  O  O305  1  0.76726079  0.75151399  0.12296854  1
  O  O306  1  0.75714346  0.75543277  0.61656171  1
  O  O307  1  0.25695079  0.22377215  0.36534933  1
  O  O308  1  0.25466262  0.24428999  0.88549253  1
  O  O309  1  0.26069425  0.74833076  0.39056665  1
  O  O310  1  0.23933563  0.74384548  0.86968084  1
  O  O311  1  0.74004362  0.24145280  0.37711933  1
  O  O312  1  0.74999025  0.23542801  0.88227379  1
  O  O313  1  0.76083297  0.74333068  0.38760238  1
  O  O314  1  0.74970875  0.73936417  0.87562313  1
  O  O315  1  0.00399232  0.11350546  0.00271003  1
  O  O316  1  -0.00835437  0.11147089  0.51499171  1
  O  O317  1  0.00686019  0.61557719  0.00025365  1
  O  O318  1  -0.00430740  0.62283636  0.50985808  1
  O  O319  1  0.50217786  0.10661293  0.00975740  1
  O  O320  1  0.49703841  0.10918021  0.50340452  1
  O  O321  1  0.51249260  0.61674596  0.00779770  1
  O  O322  1  0.50709666  0.62135775  0.50418187  1
  O  O323  1  0.49408729  0.38265708  0.49303233  1
  O  O324  1  0.48600888  0.38057869  1.01223199  1
  O  O325  1  0.50455230  0.88171499  0.48873964  1
  O  O326  1  0.50505327  0.87630095  0.99028240  1
  O  O327  1  0.99585591  0.39220048  0.50501793  1
  O  O328  1  0.98410776  0.38255870  0.99694149  1
  O  O329  1  0.99932803  0.88678772  0.49640435  1
  O  O330  1  1.01094038  0.88681498  0.99284046  1
  O  O331  1  0.50759019  0.48864126  0.38411412  1
  O  O332  1  0.48453527  0.51210060  0.88249010  1
  O  O333  1  0.50216904  0.99160957  0.38898111  1
  O  O334  1  0.49414497  0.98680669  0.88454789  1
  O  O335  1  0.99404777  0.51356584  0.38457085  1
  O  O336  1  0.99396281  0.50001801  0.88347385  1
  O  O337  1  0.98976991  0.99618892  0.38667517  1
  O  O338  1  0.99943617  0.99286403  0.88383605  1
  O  O339  1  -0.00004395  0.01003670  0.11831850  1
  O  O340  1  0.00104477  0.00237769  0.62371166  1
  O  O341  1  0.00599931  0.50406804  0.11032281  1
  O  O342  1  0.00506069  0.51102134  0.61804149  1
  O  O343  1  0.49268620  -0.00966345  0.11120687  1
  O  O344  1  0.50155073  0.00197923  0.61537842  1
  O  O345  1  0.51025899  0.50785990  0.11828867  1
  O  O346  1  0.49839530  0.51589876  0.61853033  1
  O  O347  1  0.24776067  0.37292953  0.23944416  1
  O  O348  1  0.25249773  0.38433393  0.73935483  1
  O  O349  1  0.25336428  0.86799446  0.23699965  1
  O  O350  1  0.24741826  0.88172557  0.73891526  1
  O  O351  1  0.74537821  0.37966707  0.24650382  1
  O  O352  1  0.74406263  0.39536558  0.74851173  1
  O  O353  1  0.73578423  0.87901586  0.25623285  1
  O  O354  1  0.74113761  0.87381648  0.74093519  1
  O  O355  1  0.26547581  0.12090075  0.24818858  1
  O  O356  1  0.27572483  0.12823593  0.77154020  1
  O  O357  1  0.27854092  0.61815900  0.25109250  1
  O  O358  1  0.25965399  0.62440750  0.75845829  1
  O  O359  1  0.76049402  0.12235596  0.26272570  1
  O  O360  1  0.75390846  0.12015986  0.76195779  1
  O  O361  1  0.75904477  0.62548406  0.25654063  1
  O  O362  1  0.76136164  0.62277037  0.75610838  1
  O  O363  1  0.37418224  0.12028309  0.36048719  1
  O  O364  1  0.37477094  0.11521053  0.88259910  1
  O  O365  1  0.38869328  0.62643788  0.36266899  1
  O  O366  1  0.36845586  0.62203836  0.86659512  1
  O  O367  1  0.86583352  0.11567577  0.37227924  1
  O  O368  1  0.86947531  0.12262256  0.86716554  1
  O  O369  1  0.86804075  0.62183961  0.36701546  1
  O  O370  1  0.87098352  0.62095183  0.86892070  1
  O  O371  1  0.14187034  0.38930631  0.10628543  1
  O  O372  1  0.14417961  0.38620907  0.62626666  1
  O  O373  1  0.10884810  0.90245680  0.13738318  1
  O  O374  1  0.13164403  0.88736324  0.63020414  1
  O  O375  1  0.63296894  0.38154161  0.13335219  1
  O  O376  1  0.65292843  0.35200087  0.57602898  1
  O  O377  1  0.61979575  0.86871454  0.14538601  1
  O  O378  1  0.63164933  0.87667458  0.62763245  1
  O  O379  1  0.11224014  0.25848425  0.22767064  1
  O  O380  1  0.11018424  0.25631525  0.74405345  1
  O  O381  1  0.10784187  0.76835850  0.22904888  1
  O  O382  1  0.11922556  0.75059480  0.75910644  1
  O  O383  1  0.61909479  0.25639995  0.25979462  1
  O  O384  1  0.63647241  0.26095735  0.75069393  1
  O  O385  1  0.61565353  0.75433526  0.24973098  1
  O  O386  1  0.61946267  0.75038999  0.75580099  1
  O  O387  1  0.38213971  0.25037684  0.24173854  1
  O  O388  1  0.37314050  0.25252718  0.73711473  1
  O  O389  1  0.39484065  0.73581073  0.24104634  1
  O  O390  1  0.37997968  0.74210674  0.74340218  1
  O  O391  1  0.87437491  0.24352349  0.24222504  1
  O  O392  1  0.87240522  0.24348507  0.74853110  1
  O  O393  1  0.87872575  0.74738827  0.24300081  1
  O  O394  1  0.88149232  0.74510155  0.73722221  1
  O  O395  1  0.39303350  0.49044218  0.50726136  1
  O  O396  1  0.38076947  0.49326302  0.99410418  1
  O  O397  1  0.38506497  0.99447656  0.50425423  1
  O  O398  1  0.38753519  0.99846602  0.99096644  1
  O  O399  1  0.88341528  0.50053065  0.48821283  1
  O  O400  1  0.88138941  0.49489888  0.99435303  1
  O  O401  1  0.87933307  1.00311501  0.49453386  1
  O  O402  1  0.88153105  0.99114622  1.00051152  1
  O  O403  1  0.11794442  0.00904685  0.00849299  1
  O  O404  1  0.11334507  0.00742439  0.51599283  1
  O  O405  1  0.11780698  0.51008073  0.00011370  1
  O  O406  1  0.11571105  0.50459894  0.51446007  1
  O  O407  1  0.60899309  -0.00598930  -0.00216139  1
  O  O408  1  0.61657488  -0.00285022  0.51073629  1
  O  O409  1  0.62713424  0.50717079  0.00855002  1
  O  O410  1  0.61474974  0.51534861  0.50082250  1
  O  O411  1  0.36878618  0.36939414  0.12113133  1
  O  O412  1  0.37154603  0.36850962  0.61761520  1
  O  O413  1  0.37808581  0.84744088  0.12290989  1
  O  O414  1  0.36730513  0.86743774  0.63219149  1
  O  O415  1  0.86809033  0.36861467  0.11698247  1
  O  O416  1  0.87450972  0.36202159  0.62643911  1
  O  O417  1  0.87340820  0.87554872  0.12290376  1
  O  O418  1  0.86119037  0.86873698  0.63046256  1
  O  O419  1  0.12941842  0.12774436  0.37764412  1
  O  O420  1  0.13676438  0.12992663  0.88124967  1
  O  O421  1  0.13877036  0.64526418  0.31450536  1
  O  O422  1  0.13455152  0.62903127  0.87828015  1
  O  O423  1  0.63205789  0.12890657  0.37066449  1
  O  O424  1  0.62918010  0.12186869  0.86578912  1
  O  O425  1  0.64115191  0.62223653  0.38119641  1
  O  O426  1  0.63841458  0.63055714  0.88378787  1
