# generated using pymatgen
data_V85Zn86O256
_symmetry_space_group_name_H-M   'P 1'
_cell_length_a   16.95214920
_cell_length_b   16.95664617
_cell_length_c   16.94863565
_cell_angle_alpha   89.93335255
_cell_angle_beta   90.10951018
_cell_angle_gamma   89.98029417
_symmetry_Int_Tables_number   1
_chemical_formula_structural   V85Zn86O256
_chemical_formula_sum   'V85 Zn86 O256'
_cell_volume   4871.89987808
_cell_formula_units_Z   1
loop_
 _symmetry_equiv_pos_site_id
 _symmetry_equiv_pos_as_xyz
  1  'x, y, z'
loop_
 _atom_site_type_symbol
 _atom_site_label
 _atom_site_symmetry_multiplicity
 _atom_site_fract_x
 _atom_site_fract_y
 _atom_site_fract_z
 _atom_site_occupancy
  V  V0  1  0.87200606  0.24615391  0.12277279  1
  V  V1  1  0.37291206  0.37250649  0.49921747  1
  V  V2  1  0.88433583  0.63299405  0.75432549  1
  V  V3  1  0.37334031  0.25698851  0.12477983  1
  V  V4  1  0.50556954  0.25068087  0.25034129  1
  V  V5  1  0.37073430  0.86871407  0.50364357  1
  V  V6  1  0.12252648  0.11720977  0.00093105  1
  V  V7  1  0.88203118  0.12334931  0.74999600  1
  V  V8  1  0.49027498  0.50455143  -0.00079672  1
  V  V9  1  0.49331896  0.38234629  0.87587940  1
  V  V10  1  0.63259350  -0.00372748  0.12853511  1
  V  V11  1  0.75453621  0.75046382  0.50255983  1
  V  V12  1  0.75095538  0.87415711  0.62295161  1
  V  V13  1  0.24546825  0.74822581  -0.00287119  1
  V  V14  1  0.75051809  -0.00012878  0.75209113  1
  V  V15  1  0.12310158  -0.00293399  0.12971815  1
  V  V16  1  0.50497872  0.87525098  0.37278820  1
  V  V17  1  -0.00166579  0.24786538  0.24736821  1
  V  V18  1  0.11655257  0.87736344  0.74932404  1
  V  V19  1  0.25043179  0.00429442  0.75531075  1
  V  V20  1  0.87110296  0.11348085  0.24790474  1
  V  V21  1  0.88070552  0.76123677  0.12924039  1
  V  V22  1  0.37176706  0.12383516  0.24656227  1
  V  V23  1  0.62576419  0.50184925  0.62579680  1
  V  V24  1  0.74601509  0.25212941  -0.00120272  1
  V  V25  1  0.87992510  -0.00219081  0.88607935  1
  V  V26  1  0.14425639  0.74735697  0.38271029  1
  V  V27  1  -0.00465303  0.38598089  0.36976366  1
  V  V28  1  0.75058886  0.76435262  0.01108583  1
  V  V29  1  0.12344796  0.24717794  0.37076041  1
  V  V30  1  0.37124031  0.87915124  -0.01319348  1
  V  V31  1  0.49974741  0.62617715  0.12602626  1
  V  V32  1  0.62507896  -0.00046210  0.62470467  1
  V  V33  1  0.88371895  0.50272059  0.87604078  1
  V  V34  1  0.50554356  0.37041071  0.37475354  1
  V  V35  1  -0.00535692  0.36574605  0.88150623  1
  V  V36  1  0.14347834  0.62548324  0.50781555  1
  V  V37  1  0.00683563  0.61920584  0.62566041  1
  V  V38  1  0.24847492  0.50883568  0.25661397  1
  V  V39  1  0.12452665  0.00748099  0.61237080  1
  V  V40  1  0.24809537  0.25502451  0.00056473  1
  V  V41  1  0.75907582  0.50016144  0.25901043  1
  V  V42  1  0.62839915  0.62543144  0.49968788  1
  V  V43  1  0.88742274  0.75262145  0.63031339  1
  V  V44  1  0.00158523  0.11848354  0.61183942  1
  V  V45  1  0.74993676  0.37689278  0.62475369  1
  V  V46  1  0.88832447  0.88287516  0.50211719  1
  V  V47  1  0.74638663  0.25119555  0.49467153  1
  V  V48  1  0.74857129  0.12220802  0.36961221  1
  V  V49  1  0.63000590  0.74827588  0.37259720  1
  V  V50  1  0.86971294  0.24985311  0.62845866  1
  V  V51  1  0.62352535  0.37703082  0.75167316  1
  V  V52  1  0.37469012  0.75229064  0.12460893  1
  V  V53  1  0.11971418  0.74794448  0.87293900  1
  V  V54  1  0.50271647  0.86918555  0.87422046  1
  V  V55  1  0.87034531  0.38149223  0.00251310  1
  V  V56  1  0.11935051  0.24556564  0.87879094  1
  V  V57  1  -0.00264032  0.87628182  0.89141429  1
  V  V58  1  0.50123389  0.00016581  0.49832325  1
  V  V59  1  0.13166059  0.87451700  0.25180635  1
  V  V60  1  0.63060726  0.62776293  -0.00138580  1
  V  V61  1  0.62278056  0.12487697  -0.00231156  1
  V  V62  1  0.62755146  0.50065307  0.13113770  1
  V  V63  1  0.62592052  0.86496997  0.75315098  1
  V  V64  1  0.04591185  0.30004278  0.70714288  1
  V  V65  1  0.37284359  -0.00119333  0.36787834  1
  V  V66  1  0.37534739  0.24941367  0.62325341  1
  V  V67  1  0.49390824  0.00238924  -0.00489751  1
  V  V68  1  0.11139412  0.60844361  0.00438906  1
  V  V69  1  0.25338120  0.88258210  0.12525709  1
  V  V70  1  0.50509452  0.75088501  0.24810049  1
  V  V71  1  0.25745349  0.61017578  0.87517279  1
  V  V72  1  0.24929079  0.24384639  0.49715204  1
  V  V73  1  0.75038933  0.63319987  0.87981224  1
  V  V74  1  0.12642331  0.37979908  0.24197438  1
  V  V75  1  0.24662635  0.12076655  0.37229755  1
  V  V76  1  0.49979061  0.24782316  0.75241538  1
  V  V77  1  0.62496532  0.12589563  0.49306151  1
  V  V78  1  0.50111324  0.12365342  0.62438423  1
  V  V79  1  0.74934780  0.50436284  0.75337482  1
  V  V80  1  -0.00254371  0.11715202  0.12089060  1
  V  V81  1  0.49881680  0.50013445  0.49802334  1
  V  V82  1  0.49535533  0.62950345  0.62604189  1
  V  V83  1  0.00356142  0.74579173  0.25726545  1
  V  V84  1  0.77085538  0.62095571  0.37779476  1
  Zn  Zn85  1  0.49577935  0.74727511  0.75164827  1
  Zn  Zn86  1  0.36892726  0.62931354  0.25753441  1
  Zn  Zn87  1  0.49761571  0.12469090  0.12301368  1
  Zn  Zn88  1  0.36611983  0.38404738  -0.00409883  1
  Zn  Zn89  1  0.74641580  0.37566255  0.13030710  1
  Zn  Zn90  1  0.24188036  0.38347082  0.12137783  1
  Zn  Zn91  1  0.88518850  0.00454637  0.37872730  1
  Zn  Zn92  1  0.62652710  0.37351526  0.25530468  1
  Zn  Zn93  1  0.87259641  0.38123996  0.49256883  1
  Zn  Zn94  1  0.19931363  0.43218659  0.69619219  1
  Zn  Zn95  1  0.24435984  0.87344107  0.62358425  1
  Zn  Zn96  1  0.62369358  0.25224467  0.87656491  1
  Zn  Zn97  1  0.36186476  0.74446205  0.62625370  1
  Zn  Zn98  1  0.01082370  0.88168771  0.38189780  1
  Zn  Zn99  1  0.38008143  0.11605697  0.75772135  1
  Zn  Zn100  1  0.37405228  0.61679214  0.75935539  1
  Zn  Zn101  1  0.36488949  0.50790064  0.38216215  1
  Zn  Zn102  1  0.92007184  0.59531547  0.20896169  1
  Zn  Zn103  1  0.26099728  0.12151593  0.88108132  1
  Zn  Zn104  1  -0.00414667  0.50833496  0.49626540  1
  Zn  Zn105  1  0.75053131  0.12633887  0.87313749  1
  Zn  Zn106  1  0.65181740  0.86777097  0.23043735  1
  Zn  Zn107  1  0.18836145  0.18755485  0.18708571  1
  Zn  Zn108  1  0.21298162  0.21893124  0.70829918  1
  Zn  Zn109  1  0.18279935  0.68559761  0.18284822  1
  Zn  Zn110  1  0.19125332  0.69142304  0.69274927  1
  Zn  Zn111  1  0.68511794  0.18331693  0.18328133  1
  Zn  Zn112  1  0.68668979  0.18622255  0.68733673  1
  Zn  Zn113  1  0.70079692  0.68233505  0.18625854  1
  Zn  Zn114  1  0.69117373  0.68727167  0.68723445  1
  Zn  Zn115  1  0.31322738  0.31723456  0.31359213  1
  Zn  Zn116  1  0.31185603  0.31596862  0.81489781  1
  Zn  Zn117  1  0.31678420  0.81403310  0.30983390  1
  Zn  Zn118  1  0.30822287  0.80802075  0.80365447  1
  Zn  Zn119  1  0.81184617  0.30805960  0.30977622  1
  Zn  Zn120  1  0.81070827  0.31149575  0.81217131  1
  Zn  Zn121  1  0.81920940  0.81142724  0.31445389  1
  Zn  Zn122  1  0.81440158  0.81381299  0.81684273  1
  Zn  Zn123  1  0.20651316  0.45825837  0.48030102  1
  Zn  Zn124  1  0.16435188  0.45412353  0.89076177  1
  Zn  Zn125  1  0.19105865  0.94041263  0.43403581  1
  Zn  Zn126  1  0.18387212  0.93775802  0.93685684  1
  Zn  Zn127  1  0.68638785  0.43742958  0.43672873  1
  Zn  Zn128  1  0.68488223  0.44341762  0.93781010  1
  Zn  Zn129  1  0.71086999  0.92155196  0.40525332  1
  Zn  Zn130  1  0.68367567  0.94152748  0.93437841  1
  Zn  Zn131  1  0.31134720  0.06418902  0.06080785  1
  Zn  Zn132  1  0.31123964  0.06084955  0.56184305  1
  Zn  Zn133  1  0.30320194  0.56603359  0.07118948  1
  Zn  Zn134  1  0.31654008  0.53996375  0.60410379  1
  Zn  Zn135  1  0.80736662  0.06146922  0.06124302  1
  Zn  Zn136  1  0.81020885  0.06279180  0.56242190  1
  Zn  Zn137  1  0.83008838  0.56251819  0.07441282  1
  Zn  Zn138  1  0.81893991  0.56252371  0.56324801  1
  Zn  Zn139  1  0.43194924  0.44052193  0.18932027  1
  Zn  Zn140  1  0.43404754  0.43751611  0.68868038  1
  Zn  Zn141  1  0.44398852  0.93744201  0.18384383  1
  Zn  Zn142  1  0.43678544  0.93661618  0.68881834  1
  Zn  Zn143  1  0.93685721  0.43332743  0.18163352  1
  Zn  Zn144  1  0.93134488  0.44489685  0.68386182  1
  Zn  Zn145  1  0.94195428  0.93230905  0.18883374  1
  Zn  Zn146  1  0.94140052  0.94000062  0.68936584  1
  Zn  Zn147  1  0.06084783  0.05921640  0.31118109  1
  Zn  Zn148  1  0.06208138  0.06009167  0.80922319  1
  Zn  Zn149  1  0.07753294  0.56421939  0.32122103  1
  Zn  Zn150  1  0.06933456  0.56303631  0.80533523  1
  Zn  Zn151  1  0.56209639  0.06381648  0.30929153  1
  Zn  Zn152  1  0.56179819  0.05864628  0.81553137  1
  Zn  Zn153  1  0.56270972  0.56412818  0.31474732  1
  Zn  Zn154  1  0.56271091  0.56512949  0.81542906  1
  Zn  Zn155  1  0.43840284  0.18614229  0.43269946  1
  Zn  Zn156  1  0.43489849  0.19051619  0.93555340  1
  Zn  Zn157  1  0.43640578  0.68638760  0.43685738  1
  Zn  Zn158  1  0.43658889  0.69146190  0.93929289  1
  Zn  Zn159  1  0.93238816  0.19315807  0.43540863  1
  Zn  Zn160  1  0.93409362  0.18385427  0.93966524  1
  Zn  Zn161  1  0.94714232  0.69746001  0.44088017  1
  Zn  Zn162  1  0.93588068  0.69484883  0.94444388  1
  Zn  Zn163  1  0.05857672  0.31115451  0.06042038  1
  Zn  Zn164  1  0.06165837  0.30698323  0.54176054  1
  Zn  Zn165  1  0.06201120  0.80661814  0.06468467  1
  Zn  Zn166  1  0.07096006  0.80690493  0.56766146  1
  Zn  Zn167  1  0.55925233  0.31645739  0.06373833  1
  Zn  Zn168  1  0.56376084  0.31151088  0.56236740  1
  Zn  Zn169  1  0.56469160  0.81291662  0.05792860  1
  Zn  Zn170  1  0.56204176  0.81240335  0.56088078  1
  O  O171  1  0.11825477  0.11630000  0.12258747  1
  O  O172  1  0.11525112  0.11146124  0.62656023  1
  O  O173  1  0.12834625  0.62584028  0.10362496  1
  O  O174  1  0.11821011  0.63691832  0.61652582  1
  O  O175  1  0.61989857  0.11653705  0.11294070  1
  O  O176  1  0.61975874  0.11873765  0.61853876  1
  O  O177  1  0.62302101  0.61622885  0.12007027  1
  O  O178  1  0.61983375  0.62094619  0.61915674  1
  O  O179  1  0.38784540  0.37766252  0.38376098  1
  O  O180  1  0.38747244  0.37150584  0.87786100  1
  O  O181  1  0.38501801  0.88077187  0.37957106  1
  O  O182  1  0.37843024  0.87203652  0.88341537  1
  O  O183  1  0.89275205  0.36264605  0.37295292  1
  O  O184  1  0.87627094  0.37968469  0.88077549  1
  O  O185  1  0.88075846  0.87483082  0.39587197  1
  O  O186  1  0.88966239  0.88183902  0.87144376  1
  O  O187  1  0.26066871  0.00767274  0.37136039  1
  O  O188  1  0.23853304  0.00450244  0.86006737  1
  O  O189  1  0.24903059  0.49015774  0.36364325  1
  O  O190  1  0.26433751  0.51223308  0.88866837  1
  O  O191  1  0.76513467  0.02128810  0.38911270  1
  O  O192  1  0.75674325  -0.00011196  0.86392635  1
  O  O193  1  0.74511602  0.50982414  0.37199331  1
  O  O194  1  0.75769252  0.51072464  0.87032233  1
  O  O195  1  0.25327851  0.49557611  0.14517085  1
  O  O196  1  0.22896953  0.47214356  0.59559014  1
  O  O197  1  0.24432716  0.98804207  0.12072612  1
  O  O198  1  0.23828834  0.99895621  0.63137906  1
  O  O199  1  0.74297940  0.50129774  0.13905792  1
  O  O200  1  0.74420850  0.49816586  0.63323619  1
  O  O201  1  0.73205971  1.00329319  0.12235519  1
  O  O202  1  0.74678305  0.99389516  0.63483266  1
  O  O203  1  0.00129603  0.36940806  0.25251003  1
  O  O204  1  -0.01426568  0.36669768  0.75835630  1
  O  O205  1  0.01944344  0.86536617  0.24840487  1
  O  O206  1  0.01274331  0.88050390  0.75873606  1
  O  O207  1  0.49904444  0.36886943  0.25765839  1
  O  O208  1  0.50314934  0.37054963  0.75519163  1
  O  O209  1  0.50406130  0.86504018  0.25674565  1
  O  O210  1  0.50804809  0.87611373  0.75688200  1
  O  O211  1  0.48874413  0.13354400  0.24876436  1
  O  O212  1  0.50293144  0.13152741  0.74489730  1
  O  O213  1  0.50507357  0.63874468  0.24340737  1
  O  O214  1  0.49967761  0.62450566  0.74025926  1
  O  O215  1  0.99229198  0.12874099  0.23759043  1
  O  O216  1  0.98537272  0.11818334  0.73990904  1
  O  O217  1  1.00988183  0.63891173  0.26087906  1
  O  O218  1  0.99097712  0.62505442  0.74873487  1
  O  O219  1  0.36567927  0.25144883  0.00884641  1
  O  O220  1  0.37280760  0.25194035  0.50342931  1
  O  O221  1  0.36669531  0.75982348  0.00582694  1
  O  O222  1  0.38359050  0.76710074  0.49987613  1
  O  O223  1  0.86367832  0.25596267  0.00262708  1
  O  O224  1  0.86514004  0.25446051  0.51225656  1
  O  O225  1  0.86309863  0.74990461  0.01682867  1
  O  O226  1  0.87248076  0.75884747  0.51214440  1
  O  O227  1  0.13770016  0.24843319  0.48470347  1
  O  O228  1  0.12803139  0.23804486  0.99803568  1
  O  O229  1  0.12845038  0.74399435  0.49016116  1
  O  O230  1  0.13096590  0.74827651  0.99115599  1
  O  O231  1  0.63213137  0.23631262  0.50591299  1
  O  O232  1  0.62838816  0.24371533  1.00134613  1
  O  O233  1  0.63455508  0.74433672  0.49691584  1
  O  O234  1  0.63694126  0.73769439  1.00515778  1
  O  O235  1  0.48953475  0.24897067  0.12938612  1
  O  O236  1  0.49721440  0.24218622  0.63082962  1
  O  O237  1  0.49759316  0.74800649  0.12998369  1
  O  O238  1  0.50207556  0.73994404  0.62687504  1
  O  O239  1  0.99166588  0.24057362  0.12827448  1
  O  O240  1  0.99204242  0.24604726  0.63070475  1
  O  O241  1  0.98810198  0.75077690  0.13316241  1
  O  O242  1  0.99105185  0.74423418  0.62872998  1
  O  O243  1  0.00788817  0.24840248  0.36593590  1
  O  O244  1  -0.00027699  0.25601410  0.87734423  1
  O  O245  1  0.01483711  0.76081352  0.37050746  1
  O  O246  1  0.00514501  0.76445083  0.87993600  1
  O  O247  1  0.49477194  0.25748403  0.36306170  1
  O  O248  1  0.50351752  0.25952280  0.86672572  1
  O  O249  1  0.50700670  0.75653802  0.36612744  1
  O  O250  1  0.49956082  0.76418869  0.87531030  1
  O  O251  1  0.25837961  0.12977086  0.48093332  1
  O  O252  1  0.23922216  0.13406388  1.00134015  1
  O  O253  1  0.24000426  0.61790302  0.51398512  1
  O  O254  1  0.24528433  0.63385939  0.99253437  1
  O  O255  1  0.74302613  0.13288162  0.49657123  1
  O  O256  1  0.74072091  0.13416226  0.99686727  1
  O  O257  1  0.74696158  0.62990320  0.49756888  1
  O  O258  1  0.74655343  0.62976307  0.99756360  1
  O  O259  1  0.24718896  0.36055891  0.00144930  1
  O  O260  1  0.26655383  0.35816271  0.48572796  1
  O  O261  1  0.25514048  0.87100513  0.00367693  1
  O  O262  1  0.26872833  0.88282370  0.49817269  1
  O  O263  1  0.75183445  0.36828558  0.00084425  1
  O  O264  1  0.74824271  0.36699994  0.50575067  1
  O  O265  1  0.74409935  0.86012839  -0.01116827  1
  O  O266  1  0.76006144  0.86856808  0.50456569  1
  O  O267  1  0.13517505  0.49159920  0.25427045  1
  O  O268  1  0.13781689  0.48048675  0.78043430  1
  O  O269  1  0.12723927  0.99143818  0.23744994  1
  O  O270  1  0.13188129  0.99579830  0.74137200  1
  O  O271  1  0.62929239  0.49850307  0.24453079  1
  O  O272  1  0.62995386  0.49709923  0.74556299  1
  O  O273  1  0.61528281  0.99973119  0.23075919  1
  O  O274  1  0.63342874  0.99393804  0.74501836  1
  O  O275  1  0.38455772  0.00747920  0.25873505  1
  O  O276  1  0.35506889  -0.00183599  0.74137102  1
  O  O277  1  0.36216683  0.50143569  0.25624667  1
  O  O278  1  0.35781257  0.51241613  0.71305415  1
  O  O279  1  0.87764762  0.01135984  0.24792349  1
  O  O280  1  0.86718575  0.00513934  0.75471322  1
  O  O281  1  0.86066545  0.49781002  0.25933473  1
  O  O282  1  0.86809811  0.51159270  0.75782626  1
  O  O283  1  0.10928121  0.35954786  0.35903355  1
  O  O284  1  0.10845932  0.35356337  0.88559171  1
  O  O285  1  0.13219119  0.86718686  0.36796596  1
  O  O286  1  0.11345835  0.87146619  0.87259880  1
  O  O287  1  0.61057727  0.37448668  0.37658500  1
  O  O288  1  0.61397382  0.37699398  0.86862871  1
  O  O289  1  0.60918397  0.86585519  0.39011140  1
  O  O290  1  0.61651028  0.87933221  0.86409599  1
  O  O291  1  0.37482314  0.13321809  0.13162141  1
  O  O292  1  0.38464021  0.13200184  0.62499397  1
  O  O293  1  0.38120708  0.63563523  0.12984605  1
  O  O294  1  0.39180208  0.62905720  0.60826591  1
  O  O295  1  0.87912055  0.12610104  0.12715914  1
  O  O296  1  0.87877774  0.13054652  0.62966955  1
  O  O297  1  0.84467527  0.65845511  0.14447758  1
  O  O298  1  0.88169982  0.63423669  0.63666066  1
  O  O299  1  0.25678741  0.25228587  0.11929274  1
  O  O300  1  0.26242300  0.23455953  0.60467579  1
  O  O301  1  0.25184006  0.76007630  0.11368191  1
  O  O302  1  0.24944797  0.76054473  0.62832116  1
  O  O303  1  0.75213674  0.25032610  0.11350961  1
  O  O304  1  0.75353825  0.25370874  0.61681537  1
  O  O305  1  0.74575084  0.76398941  0.11546464  1
  O  O306  1  0.76024943  0.75535953  0.62037223  1
  O  O307  1  0.24492836  0.24212581  0.37666029  1
  O  O308  1  0.23614583  0.24417807  0.88420664  1
  O  O309  1  0.24253422  0.75396860  0.37355515  1
  O  O310  1  0.24126352  0.75286062  0.88678204  1
  O  O311  1  0.75427843  0.24179723  0.38868618  1
  O  O312  1  0.74529129  0.24922729  0.88590509  1
  O  O313  1  0.74856147  0.73823749  0.38496427  1
  O  O314  1  0.76092240  0.73794563  0.88777101  1
  O  O315  1  0.00588589  0.12792390  0.01329770  1
  O  O316  1  -0.00649435  0.13506450  0.51349050  1
  O  O317  1  0.01269024  0.62553976  -0.00946116  1
  O  O318  1  0.00418371  0.63006859  0.51372178  1
  O  O319  1  0.50554357  0.11879225  -0.00109028  1
  O  O320  1  0.50713476  0.12085257  0.50160659  1
  O  O321  1  0.50859509  0.62279241  0.00494077  1
  O  O322  1  0.50976468  0.61671733  0.50490160  1
  O  O323  1  0.49546238  0.37875478  0.49511579  1
  O  O324  1  0.49899448  0.38705082  0.99196941  1
  O  O325  1  0.49212591  0.88238270  0.49346262  1
  O  O326  1  0.49201415  0.88022871  0.99313065  1
  O  O327  1  1.00044252  0.37782337  0.48033046  1
  O  O328  1  0.98414388  0.37036654  0.99208837  1
  O  O329  1  0.98990643  0.86852336  0.50715163  1
  O  O330  1  1.00397952  0.87664082  0.99034145  1
  O  O331  1  0.50285829  0.49353873  0.38891218  1
  O  O332  1  0.50224135  0.49518525  0.88604735  1
  O  O333  1  0.49595033  0.99240630  0.37721007  1
  O  O334  1  0.50339363  0.98840722  0.88753217  1
  O  O335  1  1.00124578  0.48731793  0.36688627  1
  O  O336  1  0.98605217  0.48741143  0.86948082  1
  O  O337  1  0.99800675  0.99400436  0.37339350  1
  O  O338  1  0.99325414  0.98857087  0.87327163  1
  O  O339  1  0.00909927  0.00557264  0.12755737  1
  O  O340  1  0.01130347  0.00653178  0.62486403  1
  O  O341  1  -0.06646756  0.52516362  0.12083821  1
  O  O342  1  0.00241756  0.51585970  0.63042153  1
  O  O343  1  0.50583254  0.00233741  0.10931627  1
  O  O344  1  0.50441491  0.00569431  0.62020353  1
  O  O345  1  0.50668387  0.50783603  0.12249817  1
  O  O346  1  0.50871692  0.50399961  0.61409760  1
  O  O347  1  0.23929596  0.37792765  0.24800115  1
  O  O348  1  0.23869028  0.33008257  0.73541288  1
  O  O349  1  0.24198412  0.86931957  0.23856239  1
  O  O350  1  0.23718626  0.88818096  0.75237387  1
  O  O351  1  0.74505323  0.38195015  0.25265112  1
  O  O352  1  0.74326584  0.38171914  0.74568698  1
  O  O353  1  0.73730044  0.88339975  0.29820006  1
  O  O354  1  0.74437794  0.88031745  0.74600105  1
  O  O355  1  0.26411211  0.13006622  0.25686027  1
  O  O356  1  0.24953766  0.11457008  0.75087229  1
  O  O357  1  0.24628844  0.61345117  0.24921783  1
  O  O358  1  0.24609845  0.62664058  0.77251175  1
  O  O359  1  0.75665458  0.13258713  0.25836894  1
  O  O360  1  0.75685938  0.11586757  0.74999742  1
  O  O361  1  0.74415355  0.61479235  0.26870066  1
  O  O362  1  0.75818196  0.62436923  0.76052126  1
  O  O363  1  0.37074766  0.11669596  0.36593827  1
  O  O364  1  0.37399371  0.12527490  0.87078882  1
  O  O365  1  0.38404712  0.61909072  0.36950337  1
  O  O366  1  0.36115856  0.63126285  0.87857206  1
  O  O367  1  0.86915704  0.12909072  0.36305748  1
  O  O368  1  0.87388656  0.11738393  0.86616353  1
  O  O369  1  0.86973633  0.63107205  0.38259894  1
  O  O370  1  0.87326108  0.61996347  0.87258894  1
  O  O371  1  0.11928765  0.37050857  0.13729694  1
  O  O372  1  0.10003996  0.35485073  0.64217053  1
  O  O373  1  0.13250673  0.87945351  0.12836409  1
  O  O374  1  0.12220075  0.88606206  0.63332523  1
  O  O375  1  0.62484177  0.39039964  0.12557425  1
  O  O376  1  0.63006938  0.38149195  0.63107939  1
  O  O377  1  0.62177637  0.88999192  0.12125938  1
  O  O378  1  0.63085522  0.88126780  0.62979447  1
  O  O379  1  0.11788260  0.25418261  0.25142208  1
  O  O380  1  0.10704568  0.23447005  0.76079639  1
  O  O381  1  0.12508423  0.75432879  0.25948600  1
  O  O382  1  0.12774728  0.76085803  0.76643434  1
  O  O383  1  0.60921417  0.25123855  0.23954126  1
  O  O384  1  0.61459431  0.25595219  0.74942756  1
  O  O385  1  0.62278907  0.75231498  0.25297056  1
  O  O386  1  0.62527427  0.76260441  0.74594598  1
  O  O387  1  0.38106608  0.24515550  0.24239417  1
  O  O388  1  0.38904097  0.24793591  0.74030987  1
  O  O389  1  0.38625323  0.75219585  0.24194241  1
  O  O390  1  0.37810469  0.74052616  0.74506548  1
  O  O391  1  0.87873161  0.24056224  0.23952569  1
  O  O392  1  0.86430126  0.23904231  0.73766216  1
  O  O393  1  0.89297611  0.75826866  0.24915141  1
  O  O394  1  0.86912793  0.74243352  0.74362852  1
  O  O395  1  0.38429364  0.48736050  0.50410274  1
  O  O396  1  0.38823292  0.50336512  1.01229555  1
  O  O397  1  0.38255970  0.99533870  0.48738925  1
  O  O398  1  0.38094464  0.99078595  1.00418475  1
  O  O399  1  0.88370642  0.49240196  0.50898296  1
  O  O400  1  0.85913678  0.48620001  0.98709590  1
  O  O401  1  0.87521494  0.98484828  0.50882106  1
  O  O402  1  0.86908834  1.00557955  0.98483806  1
  O  O403  1  0.13039115  0.01112133  0.01080791  1
  O  O404  1  0.13080663  -0.00313854  0.51338668  1
  O  O405  1  0.12565748  0.50984096  -0.01196667  1
  O  O406  1  0.11337315  0.52501812  0.48670072  1
  O  O407  1  0.61795662  0.00759532  0.00469219  1
  O  O408  1  0.62014264  0.01199935  0.50653129  1
  O  O409  1  0.61906140  0.51152689  0.00909359  1
  O  O410  1  0.62009596  0.50530890  0.50684885  1
  O  O411  1  0.37289206  0.36537561  0.12113135  1
  O  O412  1  0.38626544  0.35611560  0.61327282  1
  O  O413  1  0.36894873  0.87186811  0.11772080  1
  O  O414  1  0.37720165  0.87767497  0.60953213  1
  O  O415  1  0.86790593  0.36311394  0.11589964  1
  O  O416  1  0.86656902  0.36548841  0.62871737  1
  O  O417  1  0.86852787  0.86173766  0.13497109  1
  O  O418  1  0.87249144  0.86965568  0.62199103  1
  O  O419  1  0.13530223  0.13526242  0.35976923  1
  O  O420  1  0.11685580  0.13083940  0.88587633  1
  O  O421  1  0.12999197  0.64152905  0.38888761  1
  O  O422  1  0.13383070  0.63384615  0.88317909  1
  O  O423  1  0.63265561  0.12083446  0.38200841  1
  O  O424  1  0.62654612  0.12598243  0.88630697  1
  O  O425  1  0.62695162  0.63290472  0.38608059  1
  O  O426  1  0.63736567  0.62086915  0.88607353  1
