# generated using pymatgen
data_V85Zn86O256
_symmetry_space_group_name_H-M   'P 1'
_cell_length_a   16.95575069
_cell_length_b   16.97905485
_cell_length_c   16.95289422
_cell_angle_alpha   90.04830141
_cell_angle_beta   90.10162321
_cell_angle_gamma   89.98309214
_symmetry_Int_Tables_number   1
_chemical_formula_structural   V85Zn86O256
_chemical_formula_sum   'V85 Zn86 O256'
_cell_volume   4880.60352945
_cell_formula_units_Z   1
loop_
 _symmetry_equiv_pos_site_id
 _symmetry_equiv_pos_as_xyz
  1  'x, y, z'
loop_
 _atom_site_type_symbol
 _atom_site_label
 _atom_site_symmetry_multiplicity
 _atom_site_fract_x
 _atom_site_fract_y
 _atom_site_fract_z
 _atom_site_occupancy
  V  V0  1  0.12638478  0.12706894  0.00035246  1
  V  V1  1  0.11773390  0.87831228  0.75319458  1
  V  V2  1  0.62341016  -0.00126336  0.63127770  1
  V  V3  1  0.37961240  -0.00158965  0.37864890  1
  V  V4  1  0.74542593  0.49770415  0.75993781  1
  V  V5  1  0.50676022  0.87201668  0.37715318  1
  V  V6  1  -0.00042024  0.49673771  -0.00521213  1
  V  V7  1  -0.00198437  0.62602943  0.62613689  1
  V  V8  1  0.37964159  0.50240626  0.85021636  1
  V  V9  1  0.37842958  0.87445297  0.51408577  1
  V  V10  1  0.00274548  0.24919969  0.25005223  1
  V  V11  1  0.62166948  0.87597933  0.23724986  1
  V  V12  1  0.24871508  -0.00022365  0.25211786  1
  V  V13  1  0.87141144  0.25270996  0.62634607  1
  V  V14  1  0.12942149  0.50122756  0.62841212  1
  V  V15  1  0.38221935  0.12967684  0.75126596  1
  V  V16  1  -0.00291014  0.50055521  0.50018469  1
  V  V17  1  0.00222540  0.00317080  0.49880857  1
  V  V18  1  0.87046899  0.50123735  0.37315816  1
  V  V19  1  0.00208387  0.87386064  0.37521650  1
  V  V20  1  0.87255900  0.00102354  0.37346488  1
  V  V21  1  0.25199938  0.37993246  0.12991743  1
  V  V22  1  0.87415450  0.87407256  0.49909201  1
  V  V23  1  0.00057803  0.37077110  0.37470424  1
  V  V24  1  0.49850494  0.25143393  0.24910603  1
  V  V25  1  0.12686773  0.00335595  0.61980819  1
  V  V26  1  0.74640655  0.00076261  0.23736946  1
  V  V27  1  0.87363940  0.12851675  0.75343206  1
  V  V28  1  0.36968797  0.61172135  0.25755267  1
  V  V29  1  0.50008071  0.61398809  0.12204456  1
  V  V30  1  0.87082010  0.25092151  0.12179668  1
  V  V31  1  0.47674255  0.74735041  0.75215644  1
  V  V32  1  0.12936818  0.74912825  0.37598361  1
  V  V33  1  0.25721321  0.74986849  0.50617674  1
  V  V34  1  0.12723060  0.37919909  0.75152055  1
  V  V35  1  0.62535386  0.12230732  0.50152982  1
  V  V36  1  0.37431205  0.24971209  0.61479942  1
  V  V37  1  0.13036577  0.37321962  0.25641213  1
  V  V38  1  0.12586814  0.49919870  0.13113051  1
  V  V39  1  0.48644733  0.63129585  0.62182962  1
  V  V40  1  0.12828844  0.00074214  0.12410398  1
  V  V41  1  0.24265385  0.87220177  0.12572790  1
  V  V42  1  0.00107213  0.12817901  0.61937752  1
  V  V43  1  0.37710351  0.24915669  0.12357732  1
  V  V44  1  0.61731684  0.62962072  -0.00886775  1
  V  V45  1  0.62073357  0.62756329  0.49553579  1
  V  V46  1  0.38117849  0.39150239  -0.00051612  1
  V  V47  1  0.37922182  0.87721962  -0.00513269  1
  V  V48  1  0.50470886  0.74545190  0.25432718  1
  V  V49  1  0.25110929  0.12464409  0.87717678  1
  V  V50  1  0.74400041  0.75075898  0.49063914  1
  V  V51  1  0.88033326  -0.00904294  0.87441773  1
  V  V52  1  0.63119861  0.85418710  0.75515383  1
  V  V53  1  0.74627574  0.12374740  0.37060761  1
  V  V54  1  0.25092876  0.25480934  -0.00083553  1
  V  V55  1  0.44235199  0.43026371  0.44201207  1
  V  V56  1  0.37697549  0.12573890  0.25077653  1
  V  V57  1  0.25196595  0.00280482  0.75356741  1
  V  V58  1  0.75082125  0.87301449  0.62120104  1
  V  V59  1  0.61816918  0.25179519  0.37543640  1
  V  V60  1  -0.00356584  0.62696928  0.12517991  1
  V  V61  1  0.24702689  0.74284156  0.00061719  1
  V  V62  1  0.22769191  0.24485679  0.49867741  1
  V  V63  1  0.75343413  0.64038853  0.88366261  1
  V  V64  1  0.12188709  0.75129636  0.87316542  1
  V  V65  1  0.74771948  0.12909100  0.88825681  1
  V  V66  1  0.87009246  0.37696386  0.50068331  1
  V  V67  1  0.75259094  -0.00052191  0.75011533  1
  V  V68  1  0.62737348  0.25355901  0.88760521  1
  V  V69  1  0.76161185  0.85844922  0.12272622  1
  V  V70  1  0.62361593  0.49976092  0.62238259  1
  V  V71  1  0.62230512  0.37624203  0.25095208  1
  V  V72  1  0.12437765  0.25374546  0.87366668  1
  V  V73  1  0.50683776  0.26696927  0.74800584  1
  V  V74  1  0.87476701  0.62078119  0.75422171  1
  V  V75  1  0.23937606  0.12536675  0.38098177  1
  V  V76  1  0.25249559  0.61854269  0.85627579  1
  V  V77  1  0.37521909  0.74652747  0.12769841  1
  V  V78  1  0.24973261  0.37492796  0.62247195  1
  V  V79  1  0.74842541  0.25211925  0.49980260  1
  V  V80  1  0.00159767  -0.00331711  -0.00426008  1
  V  V81  1  0.74712568  0.49963814  0.24588989  1
  V  V82  1  0.87242776  0.63160737  0.24703422  1
  V  V83  1  0.12664208  0.62480776  0.49912950  1
  V  V84  1  0.86792833  0.37549658  -0.00583752  1
  Zn  Zn85  1  0.00018472  0.12545113  0.12544530  1
  Zn  Zn86  1  0.74629240  0.37189098  0.12079295  1
  Zn  Zn87  1  -0.00272275  0.74966749  0.25144706  1
  Zn  Zn88  1  0.12591655  0.62034766  -0.00073920  1
  Zn  Zn89  1  -0.00236318  0.25504133  0.75050108  1
  Zn  Zn90  1  -0.12841634  0.86086847  0.99437208  1
  Zn  Zn91  1  0.62125823  0.49485918  0.11489116  1
  Zn  Zn92  1  0.42259439  0.03326464  0.90968543  1
  Zn  Zn93  1  -0.00277638  0.37957741  0.87295974  1
  Zn  Zn94  1  0.51360486  0.87179477  0.88430772  1
  Zn  Zn95  1  -0.00147774  0.75404222  0.75008203  1
  Zn  Zn96  1  0.74055803  0.62873154  0.37015911  1
  Zn  Zn97  1  0.25630663  0.87505628  0.63035193  1
  Zn  Zn98  1  0.50233115  0.12688769  0.62775724  1
  Zn  Zn99  1  0.24792713  0.60843505  0.36898768  1
  Zn  Zn100  1  0.51209327  0.38965661  0.87592019  1
  Zn  Zn101  1  0.87520190  0.12623592  0.24710349  1
  Zn  Zn102  1  0.12376602  0.87179684  0.24902047  1
  Zn  Zn103  1  0.59391480  0.09205044  0.02185540  1
  Zn  Zn104  1  0.87559730  0.74828837  0.62297432  1
  Zn  Zn105  1  0.50005674  -0.00126045  0.50499935  1
  Zn  Zn106  1  0.74463495  0.37625977  0.63142062  1
  Zn  Zn107  1  0.19022958  0.18862499  0.18904074  1
  Zn  Zn108  1  0.18582521  0.18838503  0.68916784  1
  Zn  Zn109  1  0.18553512  0.68462961  0.19008985  1
  Zn  Zn110  1  0.18835419  0.69130986  0.68368386  1
  Zn  Zn111  1  0.68734176  0.18855786  0.18123833  1
  Zn  Zn112  1  0.68692374  0.18832721  0.69180648  1
  Zn  Zn113  1  0.68275358  0.68552534  0.18277148  1
  Zn  Zn114  1  0.69430173  0.68039978  0.67869188  1
  Zn  Zn115  1  0.31175905  0.31349351  0.32114835  1
  Zn  Zn116  1  0.31434251  0.31839329  0.80781733  1
  Zn  Zn117  1  0.31469345  0.81040943  0.31672091  1
  Zn  Zn118  1  0.30324105  0.81360051  0.81478783  1
  Zn  Zn119  1  0.81104599  0.31281940  0.30947683  1
  Zn  Zn120  1  0.80789695  0.31410128  0.81603992  1
  Zn  Zn121  1  0.81042999  0.81415715  0.31102455  1
  Zn  Zn122  1  0.81633595  0.80929139  0.80780875  1
  Zn  Zn123  1  0.18782946  0.43376905  0.43905386  1
  Zn  Zn124  1  0.19134934  0.44150929  0.93945662  1
  Zn  Zn125  1  0.19070826  0.93673098  0.44034827  1
  Zn  Zn126  1  0.19043513  0.93614364  0.93856949  1
  Zn  Zn127  1  0.68088834  0.43893501  0.43705823  1
  Zn  Zn128  1  0.68601567  0.44359027  0.93706109  1
  Zn  Zn129  1  0.68362870  0.93894427  0.43355462  1
  Zn  Zn130  1  0.69473208  0.93529351  0.94041545  1
  Zn  Zn131  1  0.42123281  0.06227936  0.07303946  1
  Zn  Zn132  1  0.31316629  0.06387338  0.56451006  1
  Zn  Zn133  1  0.31104931  0.56262004  0.06650208  1
  Zn  Zn134  1  0.30589179  0.54027039  0.52222802  1
  Zn  Zn135  1  0.81661683  0.06171592  0.06151102  1
  Zn  Zn136  1  0.81232234  0.06279507  0.56249458  1
  Zn  Zn137  1  0.81294958  0.55990928  0.06153770  1
  Zn  Zn138  1  0.80751605  0.56428132  0.56335214  1
  Zn  Zn139  1  0.43772454  0.43472608  0.19383391  1
  Zn  Zn140  1  0.42377244  0.45405929  0.64768884  1
  Zn  Zn141  1  0.42888213  0.92847976  0.19161452  1
  Zn  Zn142  1  0.45217707  0.94890324  0.71922220  1
  Zn  Zn143  1  0.93650137  0.43825525  0.18481348  1
  Zn  Zn144  1  0.93543174  0.44039752  0.68997581  1
  Zn  Zn145  1  0.93868260  0.93947269  0.18824241  1
  Zn  Zn146  1  0.93866040  0.93947921  0.68564037  1
  Zn  Zn147  1  0.06182411  0.06178716  0.31052233  1
  Zn  Zn148  1  0.06185807  0.06676129  0.80909211  1
  Zn  Zn149  1  0.06068986  0.55953885  0.31247956  1
  Zn  Zn150  1  0.06545617  0.56395701  0.81193199  1
  Zn  Zn151  1  0.56097812  0.06033162  0.19845103  1
  Zn  Zn152  1  0.58298779  0.03959935  0.84513380  1
  Zn  Zn153  1  0.55626816  0.55746016  0.31556646  1
  Zn  Zn154  1  0.56363685  0.57195796  0.80769274  1
  Zn  Zn155  1  0.43897194  0.18463696  0.43693055  1
  Zn  Zn156  1  0.44042855  0.20308205  0.93563945  1
  Zn  Zn157  1  0.43752002  0.68850177  0.43862816  1
  Zn  Zn158  1  0.43535931  0.68552234  0.93395729  1
  Zn  Zn159  1  0.93533883  0.18924282  0.43693471  1
  Zn  Zn160  1  0.93990625  0.18898245  0.93947314  1
  Zn  Zn161  1  0.93485167  0.68775699  0.43593013  1
  Zn  Zn162  1  0.93695173  0.68348026  0.93625121  1
  Zn  Zn163  1  0.06021846  0.31384936  0.06476440  1
  Zn  Zn164  1  0.05837815  0.31450384  0.56420075  1
  Zn  Zn165  1  0.03208945  0.79351378  0.04245858  1
  Zn  Zn166  1  0.06632921  0.81420980  0.56339473  1
  Zn  Zn167  1  0.55823395  0.31270595  0.06205830  1
  Zn  Zn168  1  0.56307299  0.31439063  0.56567550  1
  Zn  Zn169  1  0.56326394  0.80575692  0.06350018  1
  Zn  Zn170  1  0.56142085  0.80872522  0.56717368  1
  O  O171  1  0.12824927  0.11741894  0.11918375  1
  O  O172  1  0.11228283  0.11646294  0.63354754  1
  O  O173  1  0.12208328  0.61181286  0.12640833  1
  O  O174  1  0.11944549  0.61772874  0.62121415  1
  O  O175  1  0.62086516  0.12196466  0.12454126  1
  O  O176  1  0.62729935  0.11651159  0.61963081  1
  O  O177  1  0.61422612  0.62003738  0.11789511  1
  O  O178  1  0.62146488  0.61904534  0.61415979  1
  O  O179  1  0.37908924  0.37369243  0.38632219  1
  O  O180  1  0.37089422  0.39274669  0.87943809  1
  O  O181  1  0.38279569  0.88133624  0.38252237  1
  O  O182  1  0.36826060  0.86625303  0.89424840  1
  O  O183  1  0.87921109  0.38257153  0.37911026  1
  O  O184  1  0.87884681  0.36908872  0.88970923  1
  O  O185  1  0.88231409  0.88046067  0.37887647  1
  O  O186  1  0.87087893  0.88678365  0.87450291  1
  O  O187  1  0.25920503  0.00436977  0.37303539  1
  O  O188  1  0.24466707  0.01227459  0.86709818  1
  O  O189  1  0.26521764  0.50798624  0.41673641  1
  O  O190  1  0.25730807  0.51296599  0.87477741  1
  O  O191  1  0.75276594  0.00656668  0.36683888  1
  O  O192  1  0.76299236  0.00881854  0.86711138  1
  O  O193  1  0.75382063  0.50124416  0.36369218  1
  O  O194  1  0.74687767  0.51079003  0.86208190  1
  O  O195  1  0.24304650  0.48716623  0.12431290  1
  O  O196  1  0.23974467  0.48625566  0.61201607  1
  O  O197  1  0.23762741  0.98969039  0.13130963  1
  O  O198  1  0.24002949  1.00281560  0.63221980  1
  O  O199  1  0.74713138  0.49785247  0.13702794  1
  O  O200  1  0.73887781  0.50326734  0.63520208  1
  O  O201  1  0.75614955  0.99494121  0.13573917  1
  O  O202  1  0.74298555  0.99402513  0.62941301  1
  O  O203  1  0.00634143  0.37037351  0.25682323  1
  O  O204  1  0.01032794  0.37670659  0.75258442  1
  O  O205  1  0.00141542  0.87325740  0.26301212  1
  O  O206  1  0.01293404  0.87606933  0.74750423  1
  O  O207  1  0.50594566  0.36094500  0.24940414  1
  O  O208  1  0.49366711  0.36528224  0.75090467  1
  O  O209  1  0.50556487  0.86560094  0.25490329  1
  O  O210  1  0.51749495  0.85336614  0.74044676  1
  O  O211  1  0.48449869  0.13600410  0.25229436  1
  O  O212  1  0.48560860  0.13436149  0.75073177  1
  O  O213  1  0.49241557  0.62980580  0.24413186  1
  O  O214  1  0.49978541  0.64195331  0.74015233  1
  O  O215  1  0.99787836  0.13567621  0.25069129  1
  O  O216  1  0.98747263  0.12784301  0.73994431  1
  O  O217  1  0.98891861  0.62076502  0.24498533  1
  O  O218  1  0.99260807  0.62158775  0.74215895  1
  O  O219  1  0.36859231  0.26063471  0.00771881  1
  O  O220  1  0.37506965  0.24383764  0.51318702  1
  O  O221  1  0.36684776  0.75064120  0.01114691  1
  O  O222  1  0.36729409  0.76051629  0.49736766  1
  O  O223  1  0.88291732  0.26396936  0.00861185  1
  O  O224  1  0.86687309  0.25575786  0.50566301  1
  O  O225  1  0.92313377  0.76338122  0.01038417  1
  O  O226  1  0.86838706  0.75816515  0.50034414  1
  O  O227  1  0.12931897  0.24325556  0.50483380  1
  O  O228  1  0.13064482  0.24861057  0.99425721  1
  O  O229  1  0.13041939  0.74687990  0.49134044  1
  O  O230  1  0.13067487  0.74689971  0.99121098  1
  O  O231  1  0.62985777  0.24313104  0.49459807  1
  O  O232  1  0.61320846  0.24130078  0.98666926  1
  O  O233  1  0.63288361  0.74235093  0.50366149  1
  O  O234  1  0.62883564  0.72930438  1.00847902  1
  O  O235  1  0.48464698  0.25330363  0.13207647  1
  O  O236  1  0.49332714  0.25058642  0.63390040  1
  O  O237  1  0.49062901  0.73989890  0.13231454  1
  O  O238  1  0.49911200  0.73881707  0.63471760  1
  O  O239  1  0.99228515  0.24957055  0.13408334  1
  O  O240  1  0.99074584  0.24372054  0.62633554  1
  O  O241  1  1.01874506  0.72838904  0.13749459  1
  O  O242  1  1.00300419  0.73671018  0.62547610  1
  O  O243  1  -0.00654170  0.26331197  0.36893318  1
  O  O244  1  0.01415330  0.25265702  0.87405511  1
  O  O245  1  0.00819077  0.75805916  0.37621693  1
  O  O246  1  0.01955283  0.73532626  0.86681113  1
  O  O247  1  0.51331793  0.24056059  0.36729261  1
  O  O248  1  0.51105356  0.25607295  0.86200979  1
  O  O249  1  0.49370303  0.75931305  0.36462503  1
  O  O250  1  0.49271599  0.75212570  0.85711820  1
  O  O251  1  0.25241906  0.13625485  0.49549240  1
  O  O252  1  0.24409293  0.13613283  0.98507135  1
  O  O253  1  0.24072226  0.63700483  0.50481685  1
  O  O254  1  0.24851810  0.63460071  0.99969021  1
  O  O255  1  0.74172142  0.12936884  0.49524307  1
  O  O256  1  0.74834827  0.11893791  0.98820022  1
  O  O257  1  0.74239451  0.63469609  0.49673167  1
  O  O258  1  0.74897723  0.62220847  0.98689490  1
  O  O259  1  0.25638191  0.37155123  0.00931689  1
  O  O260  1  0.23951226  0.35385705  0.51035278  1
  O  O261  1  0.25525500  0.86158465  0.00702963  1
  O  O262  1  0.26179943  0.86989713  0.50328214  1
  O  O263  1  0.76428486  0.38210965  0.00147343  1
  O  O264  1  0.75366154  0.36971938  0.50124966  1
  O  O265  1  0.75505505  0.87778222  0.01755636  1
  O  O266  1  0.75212106  0.87062214  0.50149467  1
  O  O267  1  0.12041026  0.48827698  0.24044087  1
  O  O268  1  0.12312809  0.49476030  0.73693214  1
  O  O269  1  0.13011118  0.99653190  0.24191489  1
  O  O270  1  0.13209944  0.99738122  0.74461855  1
  O  O271  1  0.62851921  0.49117107  0.24972588  1
  O  O272  1  0.63952372  0.51120717  0.74151769  1
  O  O273  1  0.63487069  0.98751262  0.25165914  1
  O  O274  1  0.63616547  0.99154270  0.74499470  1
  O  O275  1  0.36659784  0.00698268  0.25855936  1
  O  O276  1  0.35849346  0.01359113  0.74165904  1
  O  O277  1  0.37527759  0.51319948  0.24921654  1
  O  O278  1  0.37266104  0.49430346  0.75287578  1
  O  O279  1  0.86746225  0.00335353  0.25750958  1
  O  O280  1  0.87315329  0.00769518  0.75534738  1
  O  O281  1  0.86587123  0.50450605  0.25467585  1
  O  O282  1  0.86177612  0.51303975  0.74397258  1
  O  O283  1  0.11546391  0.37979944  0.36637889  1
  O  O284  1  0.12767143  0.37159639  0.86775117  1
  O  O285  1  0.11836651  0.86813640  0.37651222  1
  O  O286  1  0.13501851  0.86405403  0.86599011  1
  O  O287  1  0.63296531  0.36362350  0.36128605  1
  O  O288  1  0.62718906  0.36072361  0.88012123  1
  O  O289  1  0.61046915  0.87994401  0.36535588  1
  O  O290  1  0.63104505  0.86976087  0.85786502  1
  O  O291  1  0.36318107  0.13834907  0.13745484  1
  O  O292  1  0.37684419  0.13390779  0.63317527  1
  O  O293  1  0.37910400  0.63014645  0.13383519  1
  O  O294  1  0.39075869  0.61559040  0.61460274  1
  O  O295  1  0.87909792  0.13476413  0.12547704  1
  O  O296  1  0.87892316  0.13170417  0.63186086  1
  O  O297  1  0.88415746  0.61718924  0.13445985  1
  O  O298  1  0.88328105  0.62543779  0.63000797  1
  O  O299  1  0.25811977  0.26158089  0.12278206  1
  O  O300  1  0.25295795  0.24997647  0.61519290  1
  O  O301  1  0.25257950  0.75322432  0.12015284  1
  O  O302  1  0.24356617  0.75866652  0.61116390  1
  O  O303  1  0.76643184  0.25385465  0.13160045  1
  O  O304  1  0.75423878  0.25415022  0.62084844  1
  O  O305  1  0.75400874  0.76030477  0.13121952  1
  O  O306  1  0.75379692  0.75718836  0.61188418  1
  O  O307  1  0.25010155  0.24154578  0.39193367  1
  O  O308  1  0.24094924  0.24834027  0.87607306  1
  O  O309  1  0.24283894  0.74959485  0.38647987  1
  O  O310  1  0.24514583  0.73636399  0.88125855  1
  O  O311  1  0.74248980  0.24245263  0.37716108  1
  O  O312  1  0.73668335  0.24447375  0.87272601  1
  O  O313  1  0.75110585  0.74993282  0.38600736  1
  O  O314  1  0.75560352  0.73894990  0.87696331  1
  O  O315  1  0.00992493  0.11806948  0.00232860  1
  O  O316  1  -0.00762069  0.12090805  0.51176947  1
  O  O317  1  0.00365620  0.61274401  0.00900095  1
  O  O318  1  0.00495700  0.62047885  0.50565515  1
  O  O319  1  0.47966535  0.10914431  -0.01521308  1
  O  O320  1  0.51411236  0.12220702  0.50351457  1
  O  O321  1  0.50800847  0.62880016  0.00528458  1
  O  O322  1  0.50743087  0.63519137  0.51234875  1
  O  O323  1  0.51337919  0.36991893  0.48238056  1
  O  O324  1  0.48714766  0.37166597  0.99265551  1
  O  O325  1  0.49671628  0.87481570  0.49392442  1
  O  O326  1  0.48463736  0.86326548  0.99939640  1
  O  O327  1  0.99235647  0.37954569  0.49291981  1
  O  O328  1  0.99370810  0.38217419  0.99922929  1
  O  O329  1  0.99629405  0.88021590  0.49115367  1
  O  O330  1  1.01124204  0.89649754  0.99638687  1
  O  O331  1  0.48874869  0.49852158  0.38316421  1
  O  O332  1  0.48522353  0.50453958  0.86362922  1
  O  O333  1  0.48511871  0.99008420  0.37794547  1
  O  O334  1  0.48563256  0.97682083  0.83560364  1
  O  O335  1  0.99200624  0.48925223  0.37922775  1
  O  O336  1  1.00936328  0.50028235  0.89075736  1
  O  O337  1  0.99534844  0.99463286  0.38021846  1
  O  O338  1  0.98937850  1.01223899  0.88021669  1
  O  O339  1  0.01263219  0.00200078  0.12036176  1
  O  O340  1  0.00553148  0.00856387  0.61877234  1
  O  O341  1  0.00818274  0.50523870  0.11958378  1
  O  O342  1  0.00479474  0.50992634  0.62061234  1
  O  O343  1  0.49098263  -0.00075673  0.13395448  1
  O  O344  1  0.51452479  0.00248646  0.63111957  1
  O  O345  1  0.49818215  0.51120805  0.12978672  1
  O  O346  1  0.51794246  0.51839229  0.64035631  1
  O  O347  1  0.23986093  0.36686398  0.24608712  1
  O  O348  1  0.23461562  0.36865890  0.73841430  1
  O  O349  1  0.25048409  0.87941598  0.24251761  1
  O  O350  1  0.24250455  0.88740750  0.74904182  1
  O  O351  1  0.74158578  0.38250109  0.24645942  1
  O  O352  1  0.75646249  0.39407280  0.75037510  1
  O  O353  1  0.74214873  0.87960707  0.24220044  1
  O  O354  1  0.74516577  0.87622179  0.74198173  1
  O  O355  1  0.25842337  0.12278691  0.26000517  1
  O  O356  1  0.25479269  0.12385692  0.75943593  1
  O  O357  1  0.26458375  0.62667023  0.25202311  1
  O  O358  1  0.24927717  0.62748905  0.75821866  1
  O  O359  1  0.74944154  0.11738040  0.25654710  1
  O  O360  1  0.76247888  0.12068198  0.75173331  1
  O  O361  1  0.75344247  0.61847599  0.25045864  1
  O  O362  1  0.75695458  0.62119099  0.75921417  1
  O  O363  1  0.36857217  0.11698326  0.37071265  1
  O  O364  1  0.36590668  0.13039823  0.86774593  1
  O  O365  1  0.37507517  0.63247781  0.35888582  1
  O  O366  1  0.36349669  0.61298763  0.87457565  1
  O  O367  1  0.86113594  0.12163501  0.37516083  1
  O  O368  1  0.86830651  0.12538995  0.86844922  1
  O  O369  1  0.87345701  0.61421637  0.36758002  1
  O  O370  1  0.86442202  0.62549619  0.86868242  1
  O  O371  1  0.13268304  0.37836008  0.13413364  1
  O  O372  1  0.12709559  0.38138880  0.63128509  1
  O  O373  1  0.13479591  0.87857645  0.12478325  1
  O  O374  1  0.12622434  0.88733629  0.63345438  1
  O  O375  1  0.62497307  0.37442063  0.13436899  1
  O  O376  1  0.62474202  0.39474501  0.62249913  1
  O  O377  1  0.63377288  0.87010684  0.13312377  1
  O  O378  1  0.63222409  0.88098442  0.63218899  1
  O  O379  1  0.11243974  0.25889038  0.24511855  1
  O  O380  1  0.12119036  0.25842358  0.75743397  1
  O  O381  1  0.12648797  0.75062498  0.26579404  1
  O  O382  1  0.12739174  0.76176900  0.75430168  1
  O  O383  1  0.61728142  0.25399358  0.25518429  1
  O  O384  1  0.60983941  0.25261073  0.74780264  1
  O  O385  1  0.61169918  0.75545746  0.24568567  1
  O  O386  1  0.63470876  0.75534316  0.74471565  1
  O  O387  1  0.37936043  0.24622063  0.24739105  1
  O  O388  1  0.38132994  0.24620832  0.74315149  1
  O  O389  1  0.38216345  0.74778767  0.23999408  1
  O  O390  1  0.37875884  0.75875448  0.74585704  1
  O  O391  1  0.88646727  0.25184668  0.24352373  1
  O  O392  1  0.87471673  0.24502323  0.74569099  1
  O  O393  1  0.87600873  0.73475665  0.25800450  1
  O  O394  1  0.87982554  0.73769467  0.74446232  1
  O  O395  1  0.39936701  0.47569734  0.52878116  1
  O  O396  1  0.37072034  0.49276631  0.99749394  1
  O  O397  1  0.37746113  0.99478363  0.49496207  1
  O  O398  1  0.36762659  0.97997369  1.00062197  1
  O  O399  1  0.87699593  0.49724564  0.49375066  1
  O  O400  1  0.88537878  0.48502539  1.00660110  1
  O  O401  1  0.88002688  0.99428803  0.49371565  1
  O  O402  1  0.88534183  0.99785778  0.99139351  1
  O  O403  1  0.12522706  0.00798947  0.00565777  1
  O  O404  1  0.11938055  -0.00388185  0.51165971  1
  O  O405  1  0.11926874  0.49665160  0.01400363  1
  O  O406  1  0.11370960  0.50246221  0.51111720  1
  O  O407  1  0.61013507  0.00493251  -0.04593766  1
  O  O408  1  0.62502981  0.00648837  0.50980527  1
  O  O409  1  0.63003456  0.51883258  0.00178894  1
  O  O410  1  0.63158080  0.50987313  0.51448517  1
  O  O411  1  0.36879513  0.37277955  0.12026211  1
  O  O412  1  0.35721120  0.36203038  0.63530545  1
  O  O413  1  0.36216147  0.86391567  0.11785830  1
  O  O414  1  0.37963833  0.88701023  0.61477486  1
  O  O415  1  0.87504897  0.36793742  0.11551843  1
  O  O416  1  0.87338662  0.36960679  0.61893400  1
  O  O417  1  0.86337091  0.87449349  0.13028279  1
  O  O418  1  0.86915857  0.87536802  0.61764327  1
  O  O419  1  0.14023485  0.11659029  0.37344178  1
  O  O420  1  0.13097156  0.13554802  0.87660073  1
  O  O421  1  0.12662982  0.63017196  0.38030231  1
  O  O422  1  0.14028267  0.62715662  0.87612542  1
  O  O423  1  0.63761036  0.13203883  0.38483788  1
  O  O424  1  0.63771100  0.14162953  0.86016630  1
  O  O425  1  0.62207428  0.61788195  0.39021322  1
  O  O426  1  0.63569558  0.62710324  0.88370747  1
