# generated using pymatgen
data_V85Zn86O256
_symmetry_space_group_name_H-M   'P 1'
_cell_length_a   16.93266502
_cell_length_b   16.93159101
_cell_length_c   16.93905840
_cell_angle_alpha   89.98458751
_cell_angle_beta   90.01202504
_cell_angle_gamma   89.97575102
_symmetry_Int_Tables_number   1
_chemical_formula_structural   V85Zn86O256
_chemical_formula_sum   'V85 Zn86 O256'
_cell_volume   4856.37581034
_cell_formula_units_Z   1
loop_
 _symmetry_equiv_pos_site_id
 _symmetry_equiv_pos_as_xyz
  1  'x, y, z'
loop_
 _atom_site_type_symbol
 _atom_site_label
 _atom_site_symmetry_multiplicity
 _atom_site_fract_x
 _atom_site_fract_y
 _atom_site_fract_z
 _atom_site_occupancy
  V  V0  1  0.62457952  0.62527279  0.49943148  1
  V  V1  1  0.61756259  0.75437517  0.37541165  1
  V  V2  1  0.37461514  0.49808619  0.87427151  1
  V  V3  1  0.24841552  0.24445606  -0.00895944  1
  V  V4  1  0.62233056  0.00515627  0.13320156  1
  V  V5  1  -0.00563235  0.00197708  0.00098845  1
  V  V6  1  0.87520617  0.50275152  0.37240348  1
  V  V7  1  0.12187530  0.87088988  0.75178075  1
  V  V8  1  0.87604924  0.37086416  0.50169958  1
  V  V9  1  0.75032830  0.37505781  0.12545679  1
  V  V10  1  0.75410292  0.12353417  0.86402612  1
  V  V11  1  -0.00152715  0.49853252  0.49866025  1
  V  V12  1  0.88660493  0.50094921  0.88364894  1
  V  V13  1  0.37350613  0.37361504  0.00064771  1
  V  V14  1  0.37866112  0.86792244  0.00311407  1
  V  V15  1  0.24126306  0.49765946  0.24407700  1
  V  V16  1  0.12631255  0.49763394  0.62468968  1
  V  V17  1  0.74884188  0.12182484  0.37136015  1
  V  V18  1  0.25113073  -0.00102140  0.75151770  1
  V  V19  1  0.75117611  0.50631791  0.24879433  1
  V  V20  1  0.12324880  0.00343095  0.62452476  1
  V  V21  1  0.49594388  0.48777109  0.49305889  1
  V  V22  1  0.24754470  0.12426517  0.37645548  1
  V  V23  1  0.00053245  0.74703886  0.26299603  1
  V  V24  1  0.00480671  0.36229466  0.36787479  1
  V  V25  1  0.61862422  0.25654438  0.37407029  1
  V  V26  1  0.00193251  -0.00090671  0.49023880  1
  V  V27  1  0.75612730  0.37458366  0.62932100  1
  V  V28  1  0.62553662  0.25099711  0.87639021  1
  V  V29  1  0.48710295  0.63038013  0.12534811  1
  V  V30  1  0.38103028  -0.00320122  0.37296639  1
  V  V31  1  0.38233572  0.12109307  0.24326592  1
  V  V32  1  0.25061681  0.49765138  0.74461656  1
  V  V33  1  0.37807198  0.75063344  0.62273567  1
  V  V34  1  0.37701284  0.62522094  0.74653130  1
  V  V35  1  0.12476102  0.12105282  -0.00927724  1
  V  V36  1  0.25206086  0.62258357  0.37471005  1
  V  V37  1  0.62187317  0.12435754  0.50706618  1
  V  V38  1  0.62590037  0.63067855  -0.01136904  1
  V  V39  1  0.25037122  0.87462198  0.62326256  1
  V  V40  1  0.50508217  0.75477163  0.76283592  1
  V  V41  1  0.88121169  0.25104640  0.13017680  1
  V  V42  1  0.38143112  -0.00566936  0.87472227  1
  V  V43  1  0.88129282  0.13042896  0.25386899  1
  V  V44  1  0.62314636  0.87943234  0.25603268  1
  V  V45  1  0.11789323  0.87805240  0.26541465  1
  V  V46  1  0.87347583  -0.00352928  0.36878378  1
  V  V47  1  0.13013885  0.13973420  0.50058215  1
  V  V48  1  0.74912366  0.50184101  0.76182057  1
  V  V49  1  0.12327543  0.62957581  0.49574985  1
  V  V50  1  0.25838280  0.36502348  0.62374530  1
  V  V51  1  0.87903206  0.87510264  0.49836776  1
  V  V52  1  0.12456098  -0.00630500  0.12570914  1
  V  V53  1  0.38293344  0.12099065  0.74317386  1
  V  V54  1  0.12532285  0.35820599  0.75014544  1
  V  V55  1  0.25328748  0.86846218  0.12703918  1
  V  V56  1  0.87445783  0.74176637  0.13131996  1
  V  V57  1  0.87093049  0.00226264  0.86149241  1
  V  V58  1  0.62453268  0.12721440  0.00632676  1
  V  V59  1  0.62949913  -0.00235865  0.63045412  1
  V  V60  1  0.38386135  0.24101608  0.11586572  1
  V  V61  1  0.50136344  0.62517547  0.62287303  1
  V  V62  1  0.74982485  0.75185218  0.50231434  1
  V  V63  1  0.63018521  0.87606711  0.76412997  1
  V  V64  1  0.31152576  0.30804347  0.45007216  1
  V  V65  1  -0.01762600  0.24685936  0.75530925  1
  V  V66  1  0.62197680  0.50522674  0.12485839  1
  V  V67  1  0.01748888  0.62693612  0.11594071  1
  V  V68  1  -0.00173817  0.62572743  0.62701949  1
  V  V69  1  0.87268600  0.87692995  0.00299054  1
  V  V70  1  0.24608607  0.75205078  0.49364190  1
  V  V71  1  0.75172371  0.24929150  0.50446993  1
  V  V72  1  0.49571793  0.50234831  0.00116250  1
  V  V73  1  0.74996352  0.88013870  0.13368624  1
  V  V74  1  0.87031922  0.62558818  0.75467630  1
  V  V75  1  0.38362879  0.87267018  0.49537284  1
  V  V76  1  0.50386867  -0.00329180  -0.00089931  1
  V  V77  1  0.24566593  0.63336022  0.87316845  1
  V  V78  1  0.74593986  0.74919446  -0.00820926  1
  V  V79  1  0.50339913  0.24671241  0.74242539  1
  V  V80  1  -0.01377722  0.13013293  0.62667143  1
  V  V81  1  0.75109998  0.62633147  0.37074752  1
  V  V82  1  0.49120802  0.75332213  0.24960765  1
  V  V83  1  0.50057064  0.00021574  0.50533151  1
  V  V84  1  0.62666595  0.50029963  0.62614858  1
  Zn  Zn85  1  0.11425707  0.74386276  0.88291005  1
  Zn  Zn86  1  0.00755105  0.36986911  0.88671902  1
  Zn  Zn87  1  0.11849143  0.36128504  0.23957803  1
  Zn  Zn88  1  -0.00253343  0.74931815  0.75279467  1
  Zn  Zn89  1  0.37707717  0.48723302  0.37349653  1
  Zn  Zn90  1  0.61471027  0.38302824  0.25513170  1
  Zn  Zn91  1  0.87371442  0.75134288  0.62721003  1
  Zn  Zn92  1  0.23739028  0.37396369  0.11769748  1
  Zn  Zn93  1  0.00505636  0.12457777  0.13361029  1
  Zn  Zn94  1  0.49906720  0.25404507  0.24604496  1
  Zn  Zn95  1  0.24921001  -0.00090219  0.25016097  1
  Zn  Zn96  1  0.50053763  0.37231927  0.87378473  1
  Zn  Zn97  1  0.75209018  0.87858538  0.63034909  1
  Zn  Zn98  1  0.24520099  0.74750503  0.01102466  1
  Zn  Zn99  1  0.75299137  0.25028204  0.00211032  1
  Zn  Zn100  1  0.37843610  0.24462756  0.62072474  1
  Zn  Zn101  1  0.88633118  0.37803320  0.00650642  1
  Zn  Zn102  1  0.37139278  0.62247543  0.24799774  1
  Zn  Zn103  1  -0.00375104  0.87352547  0.87375737  1
  Zn  Zn104  1  0.62515276  0.37512138  0.75199726  1
  Zn  Zn105  1  0.24868672  0.12294998  0.87067431  1
  Zn  Zn106  1  0.06862063  0.46425274  0.05923353  1
  Zn  Zn107  1  0.19621747  0.18252201  0.17832234  1
  Zn  Zn108  1  0.19163864  0.18436900  0.68527906  1
  Zn  Zn109  1  0.18390129  0.69298998  0.19444856  1
  Zn  Zn110  1  0.18726300  0.68879297  0.68564026  1
  Zn  Zn111  1  0.69261584  0.18755938  0.19118476  1
  Zn  Zn112  1  0.68871546  0.18800733  0.68659838  1
  Zn  Zn113  1  0.68402621  0.69035214  0.18476747  1
  Zn  Zn114  1  0.68737635  0.68915197  0.69122153  1
  Zn  Zn115  1  0.30363409  0.30538461  0.28851517  1
  Zn  Zn116  1  0.31507910  0.30787236  0.81102351  1
  Zn  Zn117  1  0.30767147  0.81402198  0.31369895  1
  Zn  Zn118  1  0.31809510  0.81632938  0.81067690  1
  Zn  Zn119  1  0.80739382  0.31521185  0.31294129  1
  Zn  Zn120  1  0.81305749  0.31671710  0.81962061  1
  Zn  Zn121  1  0.81220582  0.81343253  0.31393176  1
  Zn  Zn122  1  0.81300472  0.81292044  0.81425629  1
  Zn  Zn123  1  0.18119244  0.44267908  0.43171279  1
  Zn  Zn124  1  0.19044619  0.43061083  0.92628505  1
  Zn  Zn125  1  0.19083585  0.94381751  0.43909870  1
  Zn  Zn126  1  0.18896133  0.93197274  0.93860165  1
  Zn  Zn127  1  0.68715926  0.43819609  0.43986751  1
  Zn  Zn128  1  0.68860938  0.43841270  0.94237282  1
  Zn  Zn129  1  0.68937812  0.93679425  0.43871096  1
  Zn  Zn130  1  0.69117929  0.94114589  0.94103594  1
  Zn  Zn131  1  0.31112228  0.05635464  0.06172206  1
  Zn  Zn132  1  0.31208440  0.06287984  0.56210919  1
  Zn  Zn133  1  0.24821558  0.54670466  0.04222140  1
  Zn  Zn134  1  0.31432589  0.55898451  0.55933539  1
  Zn  Zn135  1  0.80755391  0.06492884  0.06504806  1
  Zn  Zn136  1  0.81012023  0.05950432  0.56012075  1
  Zn  Zn137  1  0.81119853  0.56724393  0.06216120  1
  Zn  Zn138  1  0.81180592  0.56161933  0.56393682  1
  Zn  Zn139  1  0.43235783  0.43603256  0.19007963  1
  Zn  Zn140  1  0.44087287  0.43383490  0.68591160  1
  Zn  Zn141  1  0.44220900  0.93663918  0.18505319  1
  Zn  Zn142  1  0.44336100  0.93490352  0.68644772  1
  Zn  Zn143  1  0.93644726  0.44328647  0.19007393  1
  Zn  Zn144  1  0.93753706  0.43724157  0.69112310  1
  Zn  Zn145  1  0.93985458  0.93668045  0.19031170  1
  Zn  Zn146  1  0.93892720  0.93768971  0.68163683  1
  Zn  Zn147  1  0.06750591  0.18676376  0.31109486  1
  Zn  Zn148  1  0.05625468  0.06051635  0.81035978  1
  Zn  Zn149  1  0.06123048  0.56538856  0.31118720  1
  Zn  Zn150  1  0.06418461  0.55909048  0.81020161  1
  Zn  Zn151  1  0.56106037  0.06417071  0.31693702  1
  Zn  Zn152  1  0.56459052  0.06234536  0.81555786  1
  Zn  Zn153  1  0.56085774  0.56577166  0.31253328  1
  Zn  Zn154  1  0.56065913  0.56353722  0.81194488  1
  Zn  Zn155  1  0.44273391  0.17704513  0.43313777  1
  Zn  Zn156  1  0.44143214  0.18047243  0.93138647  1
  Zn  Zn157  1  0.43733472  0.68372144  0.43578418  1
  Zn  Zn158  1  0.43219875  0.68407493  0.93891928  1
  Zn  Zn159  1  0.93454954  0.18458165  0.44429501  1
  Zn  Zn160  1  0.93488906  0.18843373  0.94151625  1
  Zn  Zn161  1  0.93480106  0.68618799  0.43861346  1
  Zn  Zn162  1  0.93471189  0.68958669  0.93918438  1
  Zn  Zn163  1  0.06321134  0.29893073  0.06359643  1
  Zn  Zn164  1  0.06014172  0.31193277  0.56719970  1
  Zn  Zn165  1  0.06185602  0.80926750  0.06256926  1
  Zn  Zn166  1  0.06107163  0.81275628  0.56315434  1
  Zn  Zn167  1  0.56197046  0.31718013  0.06316366  1
  Zn  Zn168  1  0.56699376  0.31262955  0.56522244  1
  Zn  Zn169  1  0.56320244  0.81388976  0.06565808  1
  Zn  Zn170  1  0.56442556  0.81480341  0.56727693  1
  O  O171  1  0.12652451  0.10813885  0.11518842  1
  O  O172  1  0.12097959  0.11746142  0.61919023  1
  O  O173  1  0.11802976  0.63193488  0.12135917  1
  O  O174  1  0.11907892  0.61901167  0.61680025  1
  O  O175  1  0.63385861  0.11741446  0.12026541  1
  O  O176  1  0.63010416  0.11877198  0.61376504  1
  O  O177  1  0.61809383  0.61546594  0.12004972  1
  O  O178  1  0.62162991  0.61972724  0.62000165  1
  O  O179  1  0.36152355  0.36475319  0.38238163  1
  O  O180  1  0.37480816  0.38119582  0.88134133  1
  O  O181  1  0.36834722  0.88429613  0.38459272  1
  O  O182  1  0.37330798  0.88674242  0.88337840  1
  O  O183  1  0.88050346  0.38284894  0.38134405  1
  O  O184  1  0.88088167  0.38778178  0.88011674  1
  O  O185  1  0.86882698  0.88338504  0.38756523  1
  O  O186  1  0.87107673  0.88552186  0.88580874  1
  O  O187  1  0.26178816  0.00851576  0.37392561  1
  O  O188  1  0.25943290  -0.00204172  0.86682175  1
  O  O189  1  0.25302365  0.50626834  0.36843793  1
  O  O190  1  0.26109041  0.50811620  0.86323607  1
  O  O191  1  0.76049874  0.01087549  0.38618140  1
  O  O192  1  0.75578677  0.01432282  0.87846089  1
  O  O193  1  0.75408956  0.50399829  0.36877446  1
  O  O194  1  0.75765830  0.49417144  0.86485199  1
  O  O195  1  0.25748905  0.49657442  0.14128389  1
  O  O196  1  0.24617377  0.49133743  0.62678978  1
  O  O197  1  0.24139136  0.98911260  0.12777563  1
  O  O198  1  0.24181409  0.99438909  0.62900968  1
  O  O199  1  0.74437515  0.49871756  0.13234829  1
  O  O200  1  0.74570738  0.49366566  0.63391724  1
  O  O201  1  0.73973880  0.98795051  0.12309735  1
  O  O202  1  0.73462879  0.99901757  0.62057408  1
  O  O203  1  -0.00165719  0.37782105  0.26530406  1
  O  O204  1  0.00793153  0.35879968  0.74340293  1
  O  O205  1  0.01134246  0.86733695  0.24929120  1
  O  O206  1  0.00837660  0.87274881  0.74729622  1
  O  O207  1  0.50356969  0.36804838  0.24311248  1
  O  O208  1  0.50444900  0.36551901  0.75435610  1
  O  O209  1  0.51287383  0.86723650  0.24637625  1
  O  O210  1  0.50977230  0.86145869  0.74818049  1
  O  O211  1  0.48613079  0.13091302  0.25838511  1
  O  O212  1  0.49482967  0.13201621  0.75390939  1
  O  O213  1  0.49763358  0.63367326  0.24304002  1
  O  O214  1  0.49746443  0.63446001  0.74256064  1
  O  O215  1  0.98574458  0.12477213  0.25429459  1
  O  O216  1  1.00189181  0.13595852  0.73881573  1
  O  O217  1  1.00729752  0.64187740  0.24315799  1
  O  O218  1  0.99161170  0.62281871  0.74172463  1
  O  O219  1  0.37345370  0.25174734  -0.00230172  1
  O  O220  1  0.38031203  0.24999225  0.50105289  1
  O  O221  1  0.37448154  0.76550022  -0.00487695  1
  O  O222  1  0.37029771  0.75686020  0.50165810  1
  O  O223  1  0.87164524  0.25344392  0.01309307  1
  O  O224  1  0.86679130  0.26210407  0.49729530  1
  O  O225  1  0.86783792  0.75938463  0.01108525  1
  O  O226  1  0.86750522  0.75684665  0.50034360  1
  O  O227  1  0.12218982  0.23870377  0.50463218  1
  O  O228  1  0.13505035  0.23261848  1.00320781  1
  O  O229  1  0.13374373  0.74197381  0.50668582  1
  O  O230  1  0.13536121  0.76704695  0.99113933  1
  O  O231  1  0.63020635  0.24327875  0.49391465  1
  O  O232  1  0.62548435  0.24388219  0.99493081  1
  O  O233  1  0.63000011  0.74808616  0.49372995  1
  O  O234  1  0.63289009  0.74348360  1.00713538  1
  O  O235  1  0.48788198  0.24820555  0.11810323  1
  O  O236  1  0.50059433  0.25325063  0.63766469  1
  O  O237  1  0.50685390  0.74198918  0.13737077  1
  O  O238  1  0.49528809  0.74322745  0.62910806  1
  O  O239  1  0.98522290  0.24253744  0.12795372  1
  O  O240  1  0.99966664  0.23656382  0.63245119  1
  O  O241  1  0.99292487  0.74325494  0.13297922  1
  O  O242  1  0.99770012  0.73530100  0.62496408  1
  O  O243  1  -0.00408115  0.25825836  0.37688807  1
  O  O244  1  -0.00531878  0.24869028  0.85989130  1
  O  O245  1  -0.00453829  0.74571433  0.36234376  1
  O  O246  1  -0.00178571  0.75514153  0.87138976  1
  O  O247  1  0.51686262  0.24660589  0.37850004  1
  O  O248  1  0.51045571  0.24906717  0.86623643  1
  O  O249  1  0.51183311  0.74431514  0.36953572  1
  O  O250  1  0.49550544  0.74417275  0.86048319  1
  O  O251  1  0.24199288  0.12004071  0.49167605  1
  O  O252  1  0.24279639  0.12524852  0.99596361  1
  O  O253  1  0.24327430  0.63080124  0.49608791  1
  O  O254  1  0.26686466  0.63624340  0.97739810  1
  O  O255  1  0.74550275  0.13353551  0.49457026  1
  O  O256  1  0.73722460  0.12670788  0.99377201  1
  O  O257  1  0.74468191  0.63037745  0.49335598  1
  O  O258  1  0.73799857  0.63701438  1.00770074  1
  O  O259  1  0.25744215  0.36255294  -0.00375341  1
  O  O260  1  0.24738467  0.37164749  0.50341085  1
  O  O261  1  0.26202635  0.87739303  0.00986025  1
  O  O262  1  0.25637677  0.86869775  0.50384573  1
  O  O263  1  0.75391696  0.37701612  0.01604119  1
  O  O264  1  0.75711627  0.37000303  0.50635573  1
  O  O265  1  0.75706952  0.87161229  0.00975155  1
  O  O266  1  0.75661510  0.86630120  0.50334292  1
  O  O267  1  0.13866745  0.49864152  0.25808245  1
  O  O268  1  0.13128054  0.49015320  0.74125179  1
  O  O269  1  0.12384392  0.98600609  0.23955463  1
  O  O270  1  0.12723268  0.99587016  0.73907384  1
  O  O271  1  0.63274646  0.50303545  0.24359693  1
  O  O272  1  0.63269353  0.49971994  0.74646566  1
  O  O273  1  0.61881583  0.99363619  0.24655986  1
  O  O274  1  0.61580701  0.98598532  0.74376191  1
  O  O275  1  0.37758012  0.00259017  0.25774417  1
  O  O276  1  0.37543888  0.00063328  0.75507099  1
  O  O277  1  0.36212950  0.50096411  0.25696695  1
  O  O278  1  0.37181759  0.50290923  0.75398641  1
  O  O279  1  0.87902027  0.00394348  0.26453030  1
  O  O280  1  0.87950865  -0.00501095  0.76245042  1
  O  O281  1  0.86020150  0.49764508  0.25903471  1
  O  O282  1  0.86919201  0.50488379  0.75953539  1
  O  O283  1  0.10599186  0.37511053  0.37642573  1
  O  O284  1  0.12258619  0.37490421  0.85433167  1
  O  O285  1  0.12736717  0.88341276  0.36374331  1
  O  O286  1  0.12332311  0.88056733  0.85865104  1
  O  O287  1  0.63186157  0.35968781  0.37596775  1
  O  O288  1  0.62776178  0.36196058  0.87714202  1
  O  O289  1  0.62916556  0.86648956  0.36960835  1
  O  O290  1  0.62866254  0.88126822  0.86320954  1
  O  O291  1  0.37229249  0.12689769  0.13104526  1
  O  O292  1  0.37388884  0.12231381  0.63829705  1
  O  O293  1  0.38780957  0.62439948  0.12606806  1
  O  O294  1  0.38045537  0.62969733  0.62804976  1
  O  O295  1  0.86993340  0.13139117  0.13812731  1
  O  O296  1  0.88785028  0.12119423  0.61971037  1
  O  O297  1  0.87294092  0.64000048  0.12787045  1
  O  O298  1  0.88298659  0.62306493  0.63261503  1
  O  O299  1  0.26468029  0.24874179  0.10771495  1
  O  O300  1  0.25619184  0.25703131  0.62450379  1
  O  O301  1  0.25015343  0.76321780  0.12996064  1
  O  O302  1  0.25794869  0.75341626  0.61418283  1
  O  O303  1  0.75609689  0.26041606  0.12656022  1
  O  O304  1  0.74525690  0.25835125  0.61318840  1
  O  O305  1  0.75603763  0.76204670  0.12384392  1
  O  O306  1  0.74970288  0.74775202  0.61121511  1
  O  O307  1  0.26073244  0.24550398  0.38438402  1
  O  O308  1  0.25559569  0.24252211  0.88549775  1
  O  O309  1  0.25069173  0.74283341  0.38722093  1
  O  O310  1  0.25294472  0.73641633  0.86253598  1
  O  O311  1  0.74260770  0.24438918  0.38681587  1
  O  O312  1  0.74558345  0.24133470  0.87868770  1
  O  O313  1  0.74360247  0.74562605  0.38464841  1
  O  O314  1  0.75449355  0.75324252  0.89268827  1
  O  O315  1  0.00581671  0.11686403  0.00371180  1
  O  O316  1  0.00716624  0.12051491  0.51069225  1
  O  O317  1  -0.00325088  0.63195435  0.01781784  1
  O  O318  1  0.00587027  0.62053951  0.50533498  1
  O  O319  1  0.51578741  0.11426316  -0.00547337  1
  O  O320  1  0.50994563  0.11380119  0.50054275  1
  O  O321  1  0.50359616  0.62191498  0.00690053  1
  O  O322  1  0.50652034  0.61940364  0.50597935  1
  O  O323  1  0.50648744  0.38963645  0.50451110  1
  O  O324  1  0.49193639  0.38423114  0.99529171  1
  O  O325  1  0.48940231  0.87859213  0.50213523  1
  O  O326  1  0.49495634  0.88707112  1.00752035  1
  O  O327  1  0.99250437  0.37737440  0.49430934  1
  O  O328  1  1.00432952  0.37862378  1.00272007  1
  O  O329  1  0.99191736  0.88516473  0.50646941  1
  O  O330  1  0.98474645  0.88262805  1.00282214  1
  O  O331  1  0.49989397  0.50234450  0.38802123  1
  O  O332  1  0.48721472  0.50099243  0.87950889  1
  O  O333  1  0.48885069  1.00327191  0.38739317  1
  O  O334  1  0.49480201  1.00058710  0.88565583  1
  O  O335  1  0.99130210  0.49484585  0.37957653  1
  O  O336  1  0.98943567  0.49577659  0.87052953  1
  O  O337  1  0.98974248  1.00689846  0.39056594  1
  O  O338  1  0.98939854  0.99822089  0.88540856  1
  O  O339  1  0.00469474  0.00147581  0.11676920  1
  O  O340  1  0.00647288  0.01227627  0.62004212  1
  O  O341  1  -0.00238946  0.52151879  0.13268176  1
  O  O342  1  0.00368816  0.50772684  0.61962503  1
  O  O343  1  0.51516158  0.00031407  0.11856989  1
  O  O344  1  0.51066837  -0.00567980  0.61289910  1
  O  O345  1  0.50505722  0.50713021  0.11946360  1
  O  O346  1  0.50665530  0.50549356  0.61829093  1
  O  O347  1  0.24135230  0.38613257  0.24477094  1
  O  O348  1  0.24279733  0.37457895  0.74231525  1
  O  O349  1  0.23784702  0.87615761  0.24587152  1
  O  O350  1  0.24467383  0.87928854  0.74149580  1
  O  O351  1  0.74216838  0.38517263  0.24125532  1
  O  O352  1  0.75020816  0.38181924  0.74386042  1
  O  O353  1  0.73672445  0.87081347  0.24534030  1
  O  O354  1  0.73439117  0.86655740  0.74802220  1
  O  O355  1  0.26264749  0.12011173  0.25805270  1
  O  O356  1  0.25830542  0.11542932  0.75089119  1
  O  O357  1  0.24781623  0.61866032  0.25806109  1
  O  O358  1  0.25824534  0.61922986  0.75114575  1
  O  O359  1  0.75778862  0.12585959  0.26657667  1
  O  O360  1  0.74732104  0.12755805  0.76490040  1
  O  O361  1  0.74369600  0.61940193  0.25792583  1
  O  O362  1  0.76063399  0.61625039  0.74513281  1
  O  O363  1  0.36685462  0.11687413  0.36974275  1
  O  O364  1  0.37476502  0.11036546  0.86402579  1
  O  O365  1  0.36049520  0.62344136  0.37513025  1
  O  O366  1  0.37000867  0.61719001  0.86415062  1
  O  O367  1  0.86810268  0.11934651  0.37345237  1
  O  O368  1  0.86112148  0.11893915  0.88164452  1
  O  O369  1  0.86832208  0.61011828  0.38188013  1
  O  O370  1  0.87931693  0.61336666  0.86648621  1
  O  O371  1  0.12103095  0.37753005  0.12376519  1
  O  O372  1  0.13308472  0.37763914  0.63165756  1
  O  O373  1  0.13069745  0.88235769  0.12847151  1
  O  O374  1  0.12914016  0.88257249  0.63170301  1
  O  O375  1  0.63136300  0.39012701  0.12332742  1
  O  O376  1  0.63935316  0.38221273  0.62634351  1
  O  O377  1  0.63209968  0.88303421  0.13481853  1
  O  O378  1  0.62805270  0.88246866  0.63432925  1
  O  O379  1  0.13450135  0.24670223  0.24620681  1
  O  O380  1  0.12014124  0.25607772  0.74392740  1
  O  O381  1  0.11230552  0.76530980  0.25070270  1
  O  O382  1  0.12224563  0.75913502  0.74966103  1
  O  O383  1  0.62643414  0.24631662  0.26695176  1
  O  O384  1  0.62047386  0.25013852  0.75788207  1
  O  O385  1  0.61804919  0.75691662  0.25888274  1
  O  O386  1  0.61413213  0.75966729  0.74831647  1
  O  O387  1  0.37579326  0.23917491  0.23394248  1
  O  O388  1  0.38545834  0.23861487  0.75031062  1
  O  O389  1  0.38823844  0.75078483  0.25934496  1
  O  O390  1  0.38723814  0.74851163  0.74272993  1
  O  O391  1  0.86566016  0.24136699  0.24552475  1
  O  O392  1  0.88419041  0.25481547  0.74868455  1
  O  O393  1  0.88968224  0.76187653  0.24382003  1
  O  O394  1  0.87384031  0.74006616  0.74739577  1
  O  O395  1  0.39089467  0.50067778  0.49630559  1
  O  O396  1  0.37121052  0.49037623  0.99009623  1
  O  O397  1  0.38226256  0.99325484  0.49659133  1
  O  O398  1  0.38530874  0.99608169  0.99305916  1
  O  O399  1  0.87767386  0.48968397  0.49387470  1
  O  O400  1  0.86961984  0.50329417  0.98584909  1
  O  O401  1  0.88138454  0.99301821  0.49531860  1
  O  O402  1  0.87915811  0.99579644  0.99933584  1
  O  O403  1  0.11404890  -0.00172255  0.00529645  1
  O  O404  1  0.11905587  0.00441920  0.50962189  1
  O  O405  1  0.15146334  0.50598918  -0.00250357  1
  O  O406  1  0.11728942  0.50685059  0.50573435  1
  O  O407  1  0.62062507  0.00517881  0.00865030  1
  O  O408  1  0.61824983  0.00457976  0.50462331  1
  O  O409  1  0.61867138  0.50802935  0.00672437  1
  O  O410  1  0.61830395  0.50611560  0.50475872  1
  O  O411  1  0.37208182  0.36658937  0.10926768  1
  O  O412  1  0.36224814  0.37282773  0.62746499  1
  O  O413  1  0.36641152  0.88321957  0.11647306  1
  O  O414  1  0.37037845  0.87081110  0.61626496  1
  O  O415  1  0.86870429  0.36948247  0.12944785  1
  O  O416  1  0.86455907  0.38229049  0.61705849  1
  O  O417  1  0.86723839  0.87240687  0.12205465  1
  O  O418  1  0.87096673  0.87327928  0.61402854  1
  O  O419  1  0.13931508  0.12570021  0.38331411  1
  O  O420  1  0.12569456  0.11199690  0.88692541  1
  O  O421  1  0.13358246  0.62002650  0.38912455  1
  O  O422  1  0.14200730  0.62584715  0.86375722  1
  O  O423  1  0.63210401  0.13030131  0.38658814  1
  O  O424  1  0.63503899  0.13328652  0.88120323  1
  O  O425  1  0.63074301  0.63401884  0.38107140  1
  O  O426  1  0.62054101  0.62192479  0.88925525  1
