# generated using pymatgen
data_V85Zn86O256
_symmetry_space_group_name_H-M   'P 1'
_cell_length_a   16.93182383
_cell_length_b   16.92468969
_cell_length_c   16.92497005
_cell_angle_alpha   89.97668971
_cell_angle_beta   90.00120543
_cell_angle_gamma   89.99854944
_symmetry_Int_Tables_number   1
_chemical_formula_structural   V85Zn86O256
_chemical_formula_sum   'V85 Zn86 O256'
_cell_volume   4850.11826626
_cell_formula_units_Z   1
loop_
 _symmetry_equiv_pos_site_id
 _symmetry_equiv_pos_as_xyz
  1  'x, y, z'
loop_
 _atom_site_type_symbol
 _atom_site_label
 _atom_site_symmetry_multiplicity
 _atom_site_fract_x
 _atom_site_fract_y
 _atom_site_fract_z
 _atom_site_occupancy
  V  V0  1  0.12215589  0.49907335  0.12305206  1
  V  V1  1  0.49853298  0.12109666  0.11532083  1
  V  V2  1  0.00448179  0.76447139  0.24707546  1
  V  V3  1  0.37594238  0.37148817  0.50738906  1
  V  V4  1  0.62684245  -0.00372688  0.62844809  1
  V  V5  1  0.36964663  0.62608941  0.75268094  1
  V  V6  1  0.12048319  -0.00417404  0.12258362  1
  V  V7  1  0.75833334  0.35824254  0.12093358  1
  V  V8  1  0.49807441  0.24918163  0.24998821  1
  V  V9  1  0.38309068  -0.00493141  0.88875087  1
  V  V10  1  0.24657113  0.87099547  0.12390637  1
  V  V11  1  0.24839801  0.74816802  0.49725127  1
  V  V12  1  0.00241636  0.50076636  0.50067334  1
  V  V13  1  0.62514093  0.25113638  0.88120729  1
  V  V14  1  0.51283080  0.63107400  0.14544597  1
  V  V15  1  0.37644868  0.37462902  -0.00471833  1
  V  V16  1  0.74971657  0.50271792  0.24743997  1
  V  V17  1  0.87168244  0.13632039  0.25517979  1
  V  V18  1  -0.00122394  0.63683213  0.62077709  1
  V  V19  1  0.87597525  0.25020863  0.62702991  1
  V  V20  1  0.24969835  0.87431074  0.62545753  1
  V  V21  1  0.74898301  0.37628144  0.62520868  1
  V  V22  1  0.24900660  0.12567782  0.87743883  1
  V  V23  1  0.24345747  -0.00449762  0.24996703  1
  V  V24  1  0.75851702  0.61620149  0.87447638  1
  V  V25  1  0.24832556  0.49535397  0.25090140  1
  V  V26  1  0.50257433  0.62880924  0.62321031  1
  V  V27  1  0.62336099  -0.00267676  0.12184038  1
  V  V28  1  0.87258680  0.75424999  0.12048823  1
  V  V29  1  0.00832433  0.25320057  0.75196895  1
  V  V30  1  0.37601865  -0.00103956  0.37526695  1
  V  V31  1  0.74828037  -0.00237185  0.25901037  1
  V  V32  1  0.37273672  0.50034797  0.87387811  1
  V  V33  1  0.12362793  0.11839179  0.50148290  1
  V  V34  1  0.62883312  0.24551798  0.37456546  1
  V  V35  1  0.25380644  -0.00157811  0.75263548  1
  V  V36  1  0.87511472  0.50458024  0.37501356  1
  V  V37  1  0.12622648  0.87420230  0.75814987  1
  V  V38  1  0.11483970  0.36816576  0.24816548  1
  V  V39  1  0.87729661  0.12535481  0.75768505  1
  V  V40  1  0.24825406  0.74998382  -0.00209421  1
  V  V41  1  0.75202103  0.75545470  -0.01102928  1
  V  V42  1  0.37843360  0.87317364  0.50008264  1
  V  V43  1  0.62865889  0.49616503  0.11906549  1
  V  V44  1  0.11722753  0.24725948  0.37372989  1
  V  V45  1  0.49808355  0.25328000  0.75211027  1
  V  V46  1  0.62205289  0.37555474  0.75447907  1
  V  V47  1  0.62446156  0.87144402  0.75844712  1
  V  V48  1  0.75167534  0.87735495  0.12693528  1
  V  V49  1  0.50202663  -0.00238975  0.49833405  1
  V  V50  1  0.37435807  0.49923501  0.37317996  1
  V  V51  1  0.37534054  0.12669174  0.74691377  1
  V  V52  1  0.00735967  0.38476079  0.86952448  1
  V  V53  1  0.75473092  0.00076118  0.75870785  1
  V  V54  1  0.62702155  0.62629698  -0.01173648  1
  V  V55  1  0.62966921  0.12351826  0.49745215  1
  V  V56  1  0.62648703  0.50455521  0.62481492  1
  V  V57  1  0.51220927  0.85773964  0.36653450  1
  V  V58  1  0.50356403  0.74960000  0.76027071  1
  V  V59  1  0.25370165  0.24718840  0.50305290  1
  V  V60  1  -0.01380084  0.87533717  0.88139422  1
  V  V61  1  -0.01509278  0.00148284  -0.00214926  1
  V  V62  1  0.76785291  0.87115481  0.62421006  1
  V  V63  1  0.37392524  0.12536281  0.24986282  1
  V  V64  1  0.75268618  0.12820990  0.88527779  1
  V  V65  1  0.87166951  0.36987259  -0.01193823  1
  V  V66  1  0.87545294  0.37439601  0.49992086  1
  V  V67  1  0.73635619  0.63173997  0.38206882  1
  V  V68  1  -0.00028649  0.87929749  0.38827453  1
  V  V69  1  0.49791209  0.12899888  0.62476262  1
  V  V70  1  0.42435309  0.80871141  0.06243225  1
  V  V71  1  0.62510071  0.37461232  0.24823509  1
  V  V72  1  -0.00500932  0.13701654  0.13031296  1
  V  V73  1  0.12686928  0.62436658  -0.00624942  1
  V  V74  1  0.24197814  0.37385914  0.62810419  1
  V  V75  1  0.36887780  0.63684426  0.24245648  1
  V  V76  1  0.50416714  0.50484297  0.49822285  1
  V  V77  1  0.24921263  0.37172673  0.12245666  1
  V  V78  1  0.50031024  0.49949611  -0.00371205  1
  V  V79  1  0.50002685  0.37665841  0.37475273  1
  V  V80  1  -0.00262727  0.62497692  0.12659702  1
  V  V81  1  0.75212382  0.75542308  0.49831428  1
  V  V82  1  0.87677374  0.62552570  0.74619796  1
  V  V83  1  0.74949462  0.24874907  0.49950920  1
  V  V84  1  0.24320087  0.49983202  0.75108467  1
  Zn  Zn85  1  0.12339219  0.12655889  0.00024005  1
  Zn  Zn86  1  0.12739907  0.75136768  0.36668454  1
  Zn  Zn87  1  0.12674140  0.74906473  0.87482716  1
  Zn  Zn88  1  0.75529712  0.49767668  0.75303576  1
  Zn  Zn89  1  -0.00886315  0.50377006  -0.00393381  1
  Zn  Zn90  1  0.87002721  -0.00072696  0.38043718  1
  Zn  Zn91  1  -0.00368651  0.75489738  0.74867714  1
  Zn  Zn92  1  -0.00448852  0.37229448  0.37030526  1
  Zn  Zn93  1  0.24666009  0.62495565  0.37540636  1
  Zn  Zn94  1  0.12891488  0.25480159  0.87370294  1
  Zn  Zn95  1  0.12367249  0.00023500  0.62634595  1
  Zn  Zn96  1  0.24864632  0.12351822  0.37511739  1
  Zn  Zn97  1  0.12604932  0.62532286  0.49767400  1
  Zn  Zn98  1  0.37726303  0.74997844  0.62689535  1
  Zn  Zn99  1  0.37450085  0.24951941  0.12289961  1
  Zn  Zn100  1  0.62472136  0.12462650  0.00010290  1
  Zn  Zn101  1  0.12123042  0.50006991  0.62920182  1
  Zn  Zn102  1  0.87306424  0.62947783  0.25030554  1
  Zn  Zn103  1  0.50204000  0.87641913  0.88638810  1
  Zn  Zn104  1  0.24835031  0.24982088  -0.00200691  1
  Zn  Zn105  1  0.00169598  0.12399956  0.62799648  1
  Zn  Zn106  1  -0.01576760  -0.00212274  0.51121177  1
  Zn  Zn107  1  0.18439008  0.18526927  0.18647411  1
  Zn  Zn108  1  0.18998607  0.18841336  0.68557903  1
  Zn  Zn109  1  0.18546216  0.68812512  0.18142526  1
  Zn  Zn110  1  0.18461228  0.68780591  0.68483993  1
  Zn  Zn111  1  0.68619561  0.18040765  0.19044697  1
  Zn  Zn112  1  0.68773752  0.18669093  0.69015959  1
  Zn  Zn113  1  0.68680825  0.68345037  0.18299671  1
  Zn  Zn114  1  0.68946721  0.69056635  0.68669510  1
  Zn  Zn115  1  0.30804743  0.31173058  0.31587024  1
  Zn  Zn116  1  0.31462284  0.31312934  0.81140754  1
  Zn  Zn117  1  0.31525158  0.81558412  0.31290986  1
  Zn  Zn118  1  0.31563721  0.81180202  0.81692790  1
  Zn  Zn119  1  0.81005290  0.31480252  0.31270237  1
  Zn  Zn120  1  0.81168031  0.31063767  0.81254757  1
  Zn  Zn121  1  0.81618991  0.81358745  0.31217316  1
  Zn  Zn122  1  0.81352554  0.80820358  0.80784678  1
  Zn  Zn123  1  0.18557613  0.43403569  0.43615658  1
  Zn  Zn124  1  0.18749705  0.44146097  0.93661402  1
  Zn  Zn125  1  0.18315528  0.93238702  0.43249252  1
  Zn  Zn126  1  0.18806299  0.93915671  0.94160725  1
  Zn  Zn127  1  0.68682788  0.43949800  0.43669873  1
  Zn  Zn128  1  0.69020428  0.43359897  0.93634203  1
  Zn  Zn129  1  0.68866054  0.93210431  0.44076976  1
  Zn  Zn130  1  0.68946458  0.93967672  0.93992869  1
  Zn  Zn131  1  0.31091215  0.06092423  0.06356142  1
  Zn  Zn132  1  0.31218999  0.06101559  0.56345991  1
  Zn  Zn133  1  0.31326530  0.56629854  0.06474543  1
  Zn  Zn134  1  0.31499917  0.56109214  0.56509679  1
  Zn  Zn135  1  0.81316445  0.06627465  0.06871372  1
  Zn  Zn136  1  0.81274641  0.06245067  0.56790427  1
  Zn  Zn137  1  0.81508075  0.55967732  0.05962601  1
  Zn  Zn138  1  0.81461861  0.56775509  0.56186199  1
  Zn  Zn139  1  0.43780996  0.44163600  0.18349556  1
  Zn  Zn140  1  0.43598613  0.43794643  0.68676470  1
  Zn  Zn141  1  0.44109009  0.94034277  0.19479724  1
  Zn  Zn142  1  0.43914134  0.93854795  0.68953142  1
  Zn  Zn143  1  0.93343451  0.43752818  0.18347592  1
  Zn  Zn144  1  0.93628891  0.44234354  0.68859301  1
  Zn  Zn145  1  0.93085910  0.94213817  0.18714877  1
  Zn  Zn146  1  0.94166488  0.94379700  0.69536969  1
  Zn  Zn147  1  0.06024074  0.06189628  0.31170918  1
  Zn  Zn148  1  0.06281438  0.05932350  0.81406375  1
  Zn  Zn149  1  0.06284722  0.56670420  0.31260485  1
  Zn  Zn150  1  0.05947040  0.56470515  0.81102343  1
  Zn  Zn151  1  0.56287058  0.05844593  0.31110377  1
  Zn  Zn152  1  0.56368740  0.06302546  0.81517736  1
  Zn  Zn153  1  0.56494873  0.57611747  0.30570131  1
  Zn  Zn154  1  0.56146217  0.56113611  0.81214868  1
  Zn  Zn155  1  0.43877481  0.18727051  0.43674032  1
  Zn  Zn156  1  0.43462453  0.18951566  0.93373203  1
  Zn  Zn157  1  0.43249175  0.68486427  0.43491878  1
  Zn  Zn158  1  0.44131406  0.67777088  0.93389337  1
  Zn  Zn159  1  0.93790696  0.18196538  0.43845060  1
  Zn  Zn160  1  0.93829792  0.19365938  0.93984806  1
  Zn  Zn161  1  0.93293634  0.69163986  0.43659598  1
  Zn  Zn162  1  0.93653835  0.68906309  0.93673002  1
  Zn  Zn163  1  0.06121199  0.31175136  0.05325473  1
  Zn  Zn164  1  0.06252727  0.31006540  0.56040691  1
  Zn  Zn165  1  0.06278988  0.81540679  0.06088900  1
  Zn  Zn166  1  0.06673018  0.81472779  0.56386454  1
  Zn  Zn167  1  0.55956747  0.31247937  0.06410141  1
  Zn  Zn168  1  0.56184100  0.31339992  0.56527349  1
  Zn  Zn169  1  0.58570845  0.81159255  0.06589778  1
  Zn  Zn170  1  0.56880772  0.80865145  0.56054836  1
  O  O171  1  0.11236546  0.11427212  0.12708440  1
  O  O172  1  0.12673910  0.12265235  0.61594192  1
  O  O173  1  0.11600744  0.61896840  0.11731041  1
  O  O174  1  0.11472461  0.62080389  0.61994338  1
  O  O175  1  0.61595419  0.11998811  0.12132061  1
  O  O176  1  0.61953948  0.11446069  0.62216571  1
  O  O177  1  0.63036063  0.61164702  0.10200959  1
  O  O178  1  0.61785177  0.61261237  0.63289359  1
  O  O179  1  0.38029866  0.37985025  0.38354998  1
  O  O180  1  0.37386958  0.38205706  0.88756724  1
  O  O181  1  0.38230234  0.87899634  0.38720113  1
  O  O182  1  0.38034939  0.89090670  0.87146807  1
  O  O183  1  0.87299151  0.38663686  0.38008253  1
  O  O184  1  0.87897174  0.37422240  0.88258781  1
  O  O185  1  0.89465805  0.87771901  0.36682555  1
  O  O186  1  0.88768869  0.87507169  0.87042151  1
  O  O187  1  0.25672638  -0.00268232  0.36650677  1
  O  O188  1  0.26102282  0.00459443  0.87091068  1
  O  O189  1  0.25333164  0.49914975  0.36682239  1
  O  O190  1  0.26278248  0.49541353  0.86665320  1
  O  O191  1  0.74550246  -0.00406830  0.36199955  1
  O  O192  1  0.74509572  0.00884172  0.86526435  1
  O  O193  1  0.75426884  0.50802786  0.36917523  1
  O  O194  1  0.74776993  0.51203113  0.87353569  1
  O  O195  1  0.24464674  0.48921916  0.13064451  1
  O  O196  1  0.24866776  0.49182275  0.63197515  1
  O  O197  1  0.24161563  0.99425290  0.12968328  1
  O  O198  1  0.25161872  0.98760453  0.63248364  1
  O  O199  1  0.74663022  0.49411790  0.13249407  1
  O  O200  1  0.74094454  0.49632779  0.62350262  1
  O  O201  1  0.74610939  0.99377190  0.13166736  1
  O  O202  1  0.74421502  0.99169763  0.63657268  1
  O  O203  1  0.01134869  0.37963157  0.24832609  1
  O  O204  1  -0.00767227  0.36999367  0.76244940  1
  O  O205  1  -0.00068718  0.86555413  0.24543461  1
  O  O206  1  0.00822998  0.87763903  0.76475900  1
  O  O207  1  0.50546870  0.37111765  0.25236444  1
  O  O208  1  0.50664349  0.36418866  0.74177032  1
  O  O209  1  0.49562809  0.87297531  0.26767908  1
  O  O210  1  0.50785911  0.86618137  0.74856754  1
  O  O211  1  0.48846044  0.12814549  0.24575413  1
  O  O212  1  0.49516711  0.12895568  0.74276065  1
  O  O213  1  0.46856802  0.59233822  0.24696856  1
  O  O214  1  0.49528741  0.63157242  0.74359123  1
  O  O215  1  0.98896703  0.11895818  0.23773431  1
  O  O216  1  0.99284672  0.13257477  0.75390429  1
  O  O217  1  0.99729152  0.63253552  0.23777932  1
  O  O218  1  0.99266200  0.62755351  0.74198066  1
  O  O219  1  0.37338648  0.26091030  0.00139504  1
  O  O220  1  0.36732584  0.25864977  0.49373576  1
  O  O221  1  0.37016666  0.74515472  0.00044043  1
  O  O222  1  0.36619239  0.75717218  0.50281369  1
  O  O223  1  0.87935641  0.26957175  0.00366291  1
  O  O224  1  0.86920832  0.25243090  0.50504616  1
  O  O225  1  0.86697357  0.74606658  0.01252004  1
  O  O226  1  0.85543023  0.74014678  0.50320519  1
  O  O227  1  0.13232033  0.24000690  0.49448871  1
  O  O228  1  0.12925502  0.24418051  0.99275936  1
  O  O229  1  0.14009382  0.75124860  0.50055449  1
  O  O230  1  0.13185265  0.74280366  1.00180943  1
  O  O231  1  0.62660659  0.24364561  0.49447235  1
  O  O232  1  0.61623978  0.25200946  0.98449572  1
  O  O233  1  0.64847752  0.74610095  0.51204644  1
  O  O234  1  0.63921966  0.73806234  1.00009890  1
  O  O235  1  0.49791244  0.24170791  0.13427399  1
  O  O236  1  0.50758327  0.23648201  0.63416302  1
  O  O237  1  0.49120552  0.75059868  0.11516621  1
  O  O238  1  0.49996266  0.74051667  0.63055879  1
  O  O239  1  1.00595082  0.23480366  0.12307796  1
  O  O240  1  0.99327588  0.25029009  0.63306212  1
  O  O241  1  0.99283473  0.74803997  0.12979515  1
  O  O242  1  1.00378454  0.74041942  0.62566442  1
  O  O243  1  0.01306213  0.25316283  0.38165657  1
  O  O244  1  0.00209975  0.26154831  0.86751447  1
  O  O245  1  -0.00302938  0.75799882  0.36114409  1
  O  O246  1  0.00306320  0.76573691  0.87821797  1
  O  O247  1  0.50886071  0.25675209  0.37079446  1
  O  O248  1  0.50796332  0.24264606  0.85985233  1
  O  O249  1  0.49958171  0.75844675  0.38085515  1
  O  O250  1  0.49715118  0.75236321  0.86384240  1
  O  O251  1  0.24693772  0.13212828  0.49896643  1
  O  O252  1  0.25037291  0.12700818  0.99112185  1
  O  O253  1  0.25254386  0.63417961  0.50092085  1
  O  O254  1  0.23923563  0.63445902  1.00957015  1
  O  O255  1  0.73511605  0.13191495  0.50887360  1
  O  O256  1  0.75120092  0.12202595  0.98879485  1
  O  O257  1  0.75103510  0.62690667  0.48595909  1
  O  O258  1  0.74787446  0.62927409  0.99098765  1
  O  O259  1  0.25667513  0.37647833  0.00718353  1
  O  O260  1  0.25684457  0.36912593  0.50552834  1
  O  O261  1  0.24915904  0.86918301  0.01350819  1
  O  O262  1  0.25759026  0.87149866  0.50653019  1
  O  O263  1  0.75805590  0.37536712  0.01025974  1
  O  O264  1  0.75449634  0.37008996  0.50512998  1
  O  O265  1  0.74390058  0.86429063  0.00828924  1
  O  O266  1  0.75228048  0.87181676  0.51541019  1
  O  O267  1  0.13295528  0.49362075  0.24496123  1
  O  O268  1  0.13965093  0.50503830  0.75204545  1
  O  O269  1  0.13790684  1.00557048  0.24398205  1
  O  O270  1  0.13492695  0.98924680  0.75178842  1
  O  O271  1  0.63541792  0.49603812  0.24452057  1
  O  O272  1  0.62474095  0.49122391  0.74310802  1
  O  O273  1  0.64119819  1.01256368  0.23956081  1
  O  O274  1  0.63200570  0.99649812  0.74422386  1
  O  O275  1  0.36592940  0.00774111  0.25467851  1
  O  O276  1  0.37239070  0.01041777  0.75527668  1
  O  O277  1  0.35729211  0.49022161  0.25386879  1
  O  O278  1  0.37066933  0.50573258  0.75645865  1
  O  O279  1  0.86202156  0.00777939  0.25274065  1
  O  O280  1  0.86623310  0.01216219  0.75109846  1
  O  O281  1  0.86316026  0.49990087  0.25607183  1
  O  O282  1  0.87180103  0.51674532  0.74783341  1
  O  O283  1  0.12263875  0.36669626  0.36495091  1
  O  O284  1  0.11109826  0.37627045  0.87639985  1
  O  O285  1  0.10766976  0.86806914  0.37360932  1
  O  O286  1  0.12022851  0.87535520  0.87032860  1
  O  O287  1  0.61935179  0.36940126  0.36822083  1
  O  O288  1  0.62886606  0.36866861  0.86204060  1
  O  O289  1  0.61089443  0.87506808  0.38024019  1
  O  O290  1  0.62071757  0.88339104  0.86289813  1
  O  O291  1  0.38028585  0.12518885  0.13299473  1
  O  O292  1  0.38601416  0.11923461  0.63302763  1
  O  O293  1  0.38558544  0.62417150  0.13649257  1
  O  O294  1  0.38651675  0.62357370  0.63582706  1
  O  O295  1  0.88741048  0.12395852  0.13505658  1
  O  O296  1  0.87322169  0.13522267  0.64014758  1
  O  O297  1  0.88086297  0.63211201  0.12636384  1
  O  O298  1  0.88323509  0.62334870  0.63526602  1
  O  O299  1  0.25122515  0.26181652  0.12513798  1
  O  O300  1  0.24904721  0.25772420  0.61262306  1
  O  O301  1  0.24842366  0.76002610  0.11699578  1
  O  O302  1  0.25393160  0.76147315  0.62030034  1
  O  O303  1  0.74310100  0.26093497  0.12768742  1
  O  O304  1  0.75380618  0.25645851  0.62073653  1
  O  O305  1  0.75448518  0.75547585  0.12219103  1
  O  O306  1  0.75178126  0.76714735  0.62519654  1
  O  O307  1  0.24004363  0.24973217  0.38787159  1
  O  O308  1  0.24991000  0.24058578  0.87285447  1
  O  O309  1  0.24967975  0.75120565  0.38276584  1
  O  O310  1  0.24859218  0.75693121  0.89238245  1
  O  O311  1  0.73603241  0.25512111  0.38166157  1
  O  O312  1  0.73778668  0.24012831  0.86711533  1
  O  O313  1  0.75236904  0.73994822  0.37866027  1
  O  O314  1  0.75645759  0.74184343  0.88507154  1
  O  O315  1  -0.00253749  0.11583489  0.00917794  1
  O  O316  1  0.01117016  0.12345876  0.50496497  1
  O  O317  1  0.00431578  0.62579307  0.01098840  1
  O  O318  1  -0.00224970  0.61909226  0.50518561  1
  O  O319  1  0.49708656  0.12973398  0.01278352  1
  O  O320  1  0.50840237  0.12103174  0.50757882  1
  O  O321  1  0.50882023  0.61761565  0.00777918  1
  O  O322  1  0.49222170  0.61603265  0.50996965  1
  O  O323  1  0.49317348  0.38013196  0.49713178  1
  O  O324  1  0.49091947  0.39056389  1.00957025  1
  O  O325  1  0.49413847  0.87814938  0.49856712  1
  O  O326  1  0.49299343  0.86102525  1.00611141  1
  O  O327  1  0.99210195  0.38251355  0.49821500  1
  O  O328  1  0.99144733  0.37750641  0.98564456  1
  O  O329  1  0.99986189  0.87561053  0.49211813  1
  O  O330  1  1.00120842  0.88646313  0.99041269  1
  O  O331  1  0.49798259  0.49626224  0.38229126  1
  O  O332  1  0.48722057  0.50509581  0.88382616  1
  O  O333  1  0.49412960  0.99547669  0.38223232  1
  O  O334  1  0.48795219  1.00031308  0.87462161  1
  O  O335  1  0.99042259  0.49948061  0.37944803  1
  O  O336  1  0.99925794  0.48831822  0.87435107  1
  O  O337  1  1.00282419  0.98606012  0.37712976  1
  O  O338  1  1.00211105  0.99299560  0.88987936  1
  O  O339  1  0.00394834  0.00135068  0.11511016  1
  O  O340  1  0.00613100  0.00463186  0.62600397  1
  O  O341  1  0.00410465  0.50909485  0.12500653  1
  O  O342  1  0.00097942  0.50724809  0.61583113  1
  O  O343  1  0.51000079  0.00888738  0.13427845  1
  O  O344  1  0.50827674  0.00761266  0.62009766  1
  O  O345  1  0.51008187  0.51074192  0.11969366  1
  O  O346  1  0.50601084  0.50705188  0.61905655  1
  O  O347  1  0.23991484  0.37876571  0.24325147  1
  O  O348  1  0.26033788  0.38404489  0.73826422  1
  O  O349  1  0.25852512  0.88365410  0.23753229  1
  O  O350  1  0.24718166  0.87667937  0.74468732  1
  O  O351  1  0.74480051  0.38126991  0.23997110  1
  O  O352  1  0.74163128  0.37656737  0.74295809  1
  O  O353  1  0.75405956  0.88860875  0.24457739  1
  O  O354  1  0.74464097  0.88062776  0.74466502  1
  O  O355  1  0.26044882  0.11881920  0.24973903  1
  O  O356  1  0.25893795  0.12057547  0.75361371  1
  O  O357  1  0.25758805  0.61574864  0.24379108  1
  O  O358  1  0.26022116  0.61687693  0.74073917  1
  O  O359  1  0.76349676  0.11413753  0.24349562  1
  O  O360  1  0.75571523  0.11807700  0.75794979  1
  O  O361  1  0.75069377  0.61888144  0.25945441  1
  O  O362  1  0.75899792  0.62610195  0.75604513  1
  O  O363  1  0.37367457  0.11820076  0.36784132  1
  O  O364  1  0.36774973  0.11628421  0.86824206  1
  O  O365  1  0.36791132  0.61620800  0.36240156  1
  O  O366  1  0.37590204  0.61696723  0.86186752  1
  O  O367  1  0.88257615  0.12155536  0.35839252  1
  O  O368  1  0.86756614  0.13578582  0.86602615  1
  O  O369  1  0.86814068  0.61413458  0.37137741  1
  O  O370  1  0.86975785  0.62596918  0.86540559  1
  O  O371  1  0.12957702  0.37782759  0.12848485  1
  O  O372  1  0.13793602  0.37807691  0.61937083  1
  O  O373  1  0.13128230  0.88683833  0.12404422  1
  O  O374  1  0.13458730  0.87735431  0.63474735  1
  O  O375  1  0.63390069  0.37817813  0.12831696  1
  O  O376  1  0.62786451  0.38371127  0.63331302  1
  O  O377  1  0.63835723  0.88297620  0.13313180  1
  O  O378  1  0.62781833  0.88688956  0.63414150  1
  O  O379  1  0.13082247  0.25704898  0.25982270  1
  O  O380  1  0.11207530  0.24641792  0.75017562  1
  O  O381  1  0.10784172  0.74697230  0.24469427  1
  O  O382  1  0.12363626  0.76165281  0.75338629  1
  O  O383  1  0.61983650  0.25148351  0.25832052  1
  O  O384  1  0.61784744  0.25643741  0.75528403  1
  O  O385  1  0.57858615  0.67512993  0.21992460  1
  O  O386  1  0.61726496  0.76005302  0.74560844  1
  O  O387  1  0.37821071  0.24271311  0.25099523  1
  O  O388  1  0.38361336  0.23659122  0.75420308  1
  O  O389  1  0.37358367  0.73484304  0.25183400  1
  O  O390  1  0.38171074  0.74257788  0.74867521  1
  O  O391  1  0.86831303  0.23621414  0.25375356  1
  O  O392  1  0.88376090  0.24591163  0.74537165  1
  O  O393  1  0.88414283  0.74894160  0.23795890  1
  O  O394  1  0.87918119  0.73420896  0.75157341  1
  O  O395  1  0.38433652  0.49313829  0.49420223  1
  O  O396  1  0.37972536  0.49919900  0.99343100  1
  O  O397  1  0.38069963  0.99279129  0.49570701  1
  O  O398  1  0.37489759  1.00215595  0.98731287  1
  O  O399  1  0.88280795  0.49669845  0.49300256  1
  O  O400  1  0.87753084  0.47900939  1.00932092  1
  O  O401  1  0.87314983  1.01038468  0.49298476  1
  O  O402  1  0.88648827  1.00111083  1.00400038  1
  O  O403  1  0.11743794  0.00563484  0.00932118  1
  O  O404  1  0.13033756  0.01193327  0.49944916  1
  O  O405  1  0.12123778  0.50715761  0.00634100  1
  O  O406  1  0.11072985  0.49934475  0.49677131  1
  O  O407  1  0.62795527  0.00218695  0.01623391  1
  O  O408  1  0.62307303  0.00600522  0.50785974  1
  O  O409  1  0.61670969  0.50097395  -0.00246277  1
  O  O410  1  0.61186132  0.49312318  0.50876919  1
  O  O411  1  0.36643564  0.37677787  0.11466364  1
  O  O412  1  0.36797891  0.37957906  0.61172697  1
  O  O413  1  0.37242494  0.87443361  0.12316396  1
  O  O414  1  0.37102443  0.87556209  0.61506439  1
  O  O415  1  0.86146918  0.37086355  0.12362703  1
  O  O416  1  0.86928438  0.37009815  0.62014616  1
  O  O417  1  0.86233324  0.86835040  0.12670362  1
  O  O418  1  0.86530994  0.87891026  0.63508252  1
  O  O419  1  0.12711036  0.13066499  0.38021094  1
  O  O420  1  0.14064279  0.12170417  0.87276839  1
  O  O421  1  0.12885176  0.63227730  0.37812436  1
  O  O422  1  0.11738098  0.62758472  0.88942774  1
  O  O423  1  0.61718580  0.13325183  0.38535484  1
  O  O424  1  0.63246110  0.13233175  0.87808916  1
  O  O425  1  0.63820413  0.62088417  0.37924093  1
  O  O426  1  0.63259053  0.62114158  0.88189343  1
