# generated using pymatgen
data_V85Zn86O256
_symmetry_space_group_name_H-M   'P 1'
_cell_length_a   16.94381690
_cell_length_b   16.94840257
_cell_length_c   16.94204718
_cell_angle_alpha   90.00111858
_cell_angle_beta   90.03670574
_cell_angle_gamma   89.90139364
_symmetry_Int_Tables_number   1
_chemical_formula_structural   V85Zn86O256
_chemical_formula_sum   'V85 Zn86 O256'
_cell_volume   4865.25015462
_cell_formula_units_Z   1
loop_
 _symmetry_equiv_pos_site_id
 _symmetry_equiv_pos_as_xyz
  1  'x, y, z'
loop_
 _atom_site_type_symbol
 _atom_site_label
 _atom_site_symmetry_multiplicity
 _atom_site_fract_x
 _atom_site_fract_y
 _atom_site_fract_z
 _atom_site_occupancy
  V  V0  1  0.37230111  0.74688955  0.12685528  1
  V  V1  1  0.00302378  0.86097545  0.87291646  1
  V  V2  1  0.25030220  0.62181821  0.37407358  1
  V  V3  1  0.25568176  0.38184439  0.63437815  1
  V  V4  1  0.75503497  0.49642790  0.25973486  1
  V  V5  1  0.12310330  0.62319928  0.49793663  1
  V  V6  1  0.87385632  0.37843789  0.49420201  1
  V  V7  1  0.62677045  0.12423703  0.00052561  1
  V  V8  1  0.25018702  -0.00355942  0.24893063  1
  V  V9  1  -0.00359890  0.49976136  0.48941291  1
  V  V10  1  0.62354160  0.50089049  0.13052606  1
  V  V11  1  0.62511794  0.62843315  0.49690854  1
  V  V12  1  0.61761123  0.87517062  0.27024198  1
  V  V13  1  0.50235807  0.12636706  0.12560859  1
  V  V14  1  0.74915006  0.00409199  0.74720408  1
  V  V15  1  0.25162370  0.75023239  0.49837917  1
  V  V16  1  0.87922637  0.50010011  0.88165172  1
  V  V17  1  0.61393113  0.38063011  0.75586248  1
  V  V18  1  0.37365726  0.00164462  0.87377537  1
  V  V19  1  0.49503819  0.49785376  0.49931101  1
  V  V20  1  0.37805760  0.12666053  0.73872066  1
  V  V21  1  0.24978109  0.52713075  0.75403025  1
  V  V22  1  0.12032760  0.49873683  0.11483335  1
  V  V23  1  0.25181558  0.24844550  -0.00152279  1
  V  V24  1  0.25174998  0.49983128  0.24743387  1
  V  V25  1  0.12511586  0.62567258  -0.01318023  1
  V  V26  1  0.87959569  -0.00009586  0.87663314  1
  V  V27  1  0.88479196  0.12723128  0.74546997  1
  V  V28  1  0.62601125  0.36881299  0.26052193  1
  V  V29  1  0.12372407  0.75127077  0.37532610  1
  V  V30  1  0.74835086  0.87755263  0.62385618  1
  V  V31  1  0.61618709  0.00749766  0.62435670  1
  V  V32  1  0.88745009  0.37705652  0.00226924  1
  V  V33  1  0.86382190  0.86995118  0.00665759  1
  V  V34  1  0.87966360  0.62026672  0.25129653  1
  V  V35  1  0.74810624  0.12319062  0.37590862  1
  V  V36  1  0.25417761  0.37809382  0.11891351  1
  V  V37  1  0.36980584  0.36218760  0.50285433  1
  V  V38  1  0.12382012  0.25222201  0.87495553  1
  V  V39  1  0.62722096  0.63888220  -0.00157791  1
  V  V40  1  0.38177062  -0.00385689  0.37125291  1
  V  V41  1  0.12064764  0.87583455  0.24724819  1
  V  V42  1  0.75639234  0.62341690  0.37680382  1
  V  V43  1  0.24556786  0.88059321  0.62528011  1
  V  V44  1  0.00581259  0.00625764  0.00630199  1
  V  V45  1  0.50093073  0.75283449  0.26450098  1
  V  V46  1  -0.00782611  0.87584251  0.38221442  1
  V  V47  1  0.75296417  -0.00560239  0.25289200  1
  V  V48  1  0.37187076  0.87318306  -0.00096693  1
  V  V49  1  0.61504265  0.13266686  0.49928187  1
  V  V50  1  0.88432827  0.24887965  0.62239419  1
  V  V51  1  0.49967026  -0.00069067  0.00110173  1
  V  V52  1  0.02378378  0.01563176  0.50817920  1
  V  V53  1  0.62301228  0.87743113  0.75627953  1
  V  V54  1  0.74552361  0.25112621  0.49417826  1
  V  V55  1  0.23600371  0.22712888  0.53153035  1
  V  V56  1  0.24467235  0.12258584  0.88070883  1
  V  V57  1  0.00083497  0.62633099  0.11873535  1
  V  V58  1  0.87942640  0.88536733  0.50068853  1
  V  V59  1  0.12548840  0.37437540  0.24712159  1
  V  V60  1  0.49935634  0.75284704  0.75741302  1
  V  V61  1  0.12590766  0.24691324  0.37596148  1
  V  V62  1  0.37480011  0.74782017  0.62822671  1
  V  V63  1  0.50072798  0.62835473  0.62787834  1
  V  V64  1  0.38271240  0.87593825  0.49619415  1
  V  V65  1  0.62907042  -0.01220944  0.12699646  1
  V  V66  1  0.49764194  0.00144969  0.49947597  1
  V  V67  1  0.74896764  0.12819941  0.87327085  1
  V  V68  1  0.50225132  0.24782468  0.25980500  1
  V  V69  1  0.25156601  0.12967103  0.36936783  1
  V  V70  1  0.50411620  0.49146562  -0.00547566  1
  V  V71  1  0.24351156  0.74561337  -0.01376353  1
  V  V72  1  0.88239835  0.24339558  0.12691850  1
  V  V73  1  0.61645298  0.25396184  0.87534925  1
  V  V74  1  -0.00338607  0.62394596  0.62153076  1
  V  V75  1  0.75156663  0.37241565  0.12429130  1
  V  V76  1  0.74942875  0.37402368  0.62547880  1
  V  V77  1  -0.00220390  0.37066993  0.36720330  1
  V  V78  1  0.74577690  0.75388503  0.49230996  1
  V  V79  1  0.87165813  0.74991821  0.62746849  1
  V  V80  1  0.74843267  0.49988113  0.75545105  1
  V  V81  1  0.62427920  0.50278229  0.62803623  1
  V  V82  1  0.87711723  0.62440602  0.75096340  1
  V  V83  1  0.87775696  0.12199397  0.25310656  1
  V  V84  1  0.49610182  0.24841411  0.73831756  1
  Zn  Zn85  1  0.11456640  0.87648651  0.75047214  1
  Zn  Zn86  1  0.12088140  0.01857860  0.12914291  1
  Zn  Zn87  1  0.37976980  0.12370408  0.24534891  1
  Zn  Zn88  1  0.00036099  0.75115065  0.24705793  1
  Zn  Zn89  1  0.38272508  0.37373040  -0.01209287  1
  Zn  Zn90  1  0.49997347  0.36922636  0.37974878  1
  Zn  Zn91  1  0.50045790  0.62541118  0.12959158  1
  Zn  Zn92  1  0.23892074  0.00271419  0.74785928  1
  Zn  Zn93  1  0.38100047  0.25422400  0.12209917  1
  Zn  Zn94  1  0.12259558  0.49914971  0.62492834  1
  Zn  Zn95  1  0.03750504  0.19674595  0.21149250  1
  Zn  Zn96  1  0.75007343  0.25216890  -0.00043667  1
  Zn  Zn97  1  0.37027722  0.50508097  0.86806713  1
  Zn  Zn98  1  0.37800367  0.62337836  0.25114481  1
  Zn  Zn99  1  0.12361131  0.38004101  0.75046535  1
  Zn  Zn100  1  0.37329741  0.49485733  0.37586415  1
  Zn  Zn101  1  0.75247761  0.64138801  0.88973111  1
  Zn  Zn102  1  0.00457195  0.25291009  0.74652779  1
  Zn  Zn103  1  0.00300536  0.37789214  0.87426382  1
  Zn  Zn104  1  0.50372496  0.87232976  0.87898516  1
  Zn  Zn105  1  0.24153231  0.87500738  0.12115351  1
  Zn  Zn106  1  0.86220431  0.74449371  0.11553000  1
  Zn  Zn107  1  0.20057850  0.19099844  0.18779513  1
  Zn  Zn108  1  0.19668821  0.19152218  0.69786859  1
  Zn  Zn109  1  0.18674387  0.68768291  0.18441637  1
  Zn  Zn110  1  0.17501884  0.69951025  0.68691181  1
  Zn  Zn111  1  0.68860938  0.18628151  0.18839148  1
  Zn  Zn112  1  0.68737528  0.19096655  0.68507358  1
  Zn  Zn113  1  0.68486529  0.68837878  0.18592210  1
  Zn  Zn114  1  0.70394970  0.70619218  0.72341243  1
  Zn  Zn115  1  0.31709951  0.31280259  0.31025681  1
  Zn  Zn116  1  0.31819086  0.31672105  0.81566941  1
  Zn  Zn117  1  0.31228346  0.81331101  0.31168748  1
  Zn  Zn118  1  0.31282016  0.81178940  0.80930387  1
  Zn  Zn119  1  0.81457725  0.30601469  0.31186391  1
  Zn  Zn120  1  0.81135539  0.31369117  0.81296165  1
  Zn  Zn121  1  0.79276239  0.79156374  0.28130795  1
  Zn  Zn122  1  0.81639974  0.81418502  0.81514724  1
  Zn  Zn123  1  0.18676297  0.43310543  0.44006755  1
  Zn  Zn124  1  0.19236877  0.43914926  0.93213670  1
  Zn  Zn125  1  0.18872532  0.93734107  0.43831153  1
  Zn  Zn126  1  0.18270211  0.93507291  0.93488819  1
  Zn  Zn127  1  0.68456272  0.43935097  0.43852820  1
  Zn  Zn128  1  0.68802448  0.44232569  0.93859818  1
  Zn  Zn129  1  0.68837308  0.94248825  0.43810828  1
  Zn  Zn130  1  0.68981976  0.94047515  0.93650205  1
  Zn  Zn131  1  0.31177349  0.06150642  0.06402002  1
  Zn  Zn132  1  0.29253703  0.06738174  0.56437147  1
  Zn  Zn133  1  0.31488435  0.56491117  0.05912170  1
  Zn  Zn134  1  0.31387253  0.56109101  0.56472611  1
  Zn  Zn135  1  0.81277657  0.05971060  0.06481738  1
  Zn  Zn136  1  0.81081705  0.06569525  0.56269503  1
  Zn  Zn137  1  0.80845321  0.56045457  0.06616836  1
  Zn  Zn138  1  0.81039220  0.55969505  0.56306568  1
  Zn  Zn139  1  0.43855143  0.43532660  0.18826960  1
  Zn  Zn140  1  0.43237807  0.44305738  0.69234926  1
  Zn  Zn141  1  0.43842018  0.93280142  0.18420346  1
  Zn  Zn142  1  0.43419861  0.93830209  0.68563928  1
  Zn  Zn143  1  0.93868997  0.43816130  0.18520659  1
  Zn  Zn144  1  0.93797438  0.43642228  0.68722646  1
  Zn  Zn145  1  0.93608717  0.93782992  0.18803336  1
  Zn  Zn146  1  0.94119460  0.94189082  0.68518415  1
  Zn  Zn147  1  0.06508193  0.05421007  0.32715689  1
  Zn  Zn148  1  0.06459110  0.05883273  0.81028573  1
  Zn  Zn149  1  0.06455267  0.55907709  0.30953287  1
  Zn  Zn150  1  0.06031325  0.56030905  0.80844504  1
  Zn  Zn151  1  0.56554278  0.06362509  0.31602364  1
  Zn  Zn152  1  0.55786813  0.06381160  0.81296424  1
  Zn  Zn153  1  0.56368756  0.56419453  0.31569540  1
  Zn  Zn154  1  0.53183432  0.58426128  0.83418319  1
  Zn  Zn155  1  0.42927276  0.18414972  0.43831355  1
  Zn  Zn156  1  0.43659159  0.18757725  0.93569160  1
  Zn  Zn157  1  0.43412768  0.68401470  0.43955331  1
  Zn  Zn158  1  0.43564163  0.68116760  0.94350815  1
  Zn  Zn159  1  0.93656450  0.18654629  0.43463103  1
  Zn  Zn160  1  0.93280895  0.19069121  0.93445297  1
  Zn  Zn161  1  0.93182483  0.69208668  0.43637927  1
  Zn  Zn162  1  0.93690413  0.68630259  0.93962348  1
  Zn  Zn163  1  0.06703195  0.18625454  0.04841757  1
  Zn  Zn164  1  0.06592397  0.31728176  0.56194383  1
  Zn  Zn165  1  0.05574396  0.81282494  0.06058922  1
  Zn  Zn166  1  0.06694163  0.80661785  0.58242683  1
  Zn  Zn167  1  0.56826224  0.31155541  0.06834994  1
  Zn  Zn168  1  0.56171654  0.31507575  0.56572034  1
  Zn  Zn169  1  0.55676632  0.81270388  0.06946316  1
  Zn  Zn170  1  0.56428994  0.81491913  0.56510757  1
  O  O171  1  0.11386965  0.13468423  0.13922631  1
  O  O172  1  0.19945934  0.14563273  0.59464407  1
  O  O173  1  0.11811102  0.61855537  0.11860908  1
  O  O174  1  0.11153242  0.62261397  0.61443111  1
  O  O175  1  0.61762500  0.11781300  0.12035552  1
  O  O176  1  0.63160001  0.11588608  0.61537002  1
  O  O177  1  0.62501313  0.61613602  0.12245110  1
  O  O178  1  0.61935723  0.61871212  0.61073616  1
  O  O179  1  0.37660193  0.37566063  0.38731066  1
  O  O180  1  0.37401986  0.39070950  0.87594937  1
  O  O181  1  0.36933882  0.88677935  0.38154995  1
  O  O182  1  0.37387051  0.88340461  0.88375087  1
  O  O183  1  0.88496937  0.36560072  0.38208770  1
  O  O184  1  0.87032187  0.38170534  0.88604814  1
  O  O185  1  0.88913629  0.86603105  0.38505837  1
  O  O186  1  0.87860200  0.88374911  0.88368409  1
  O  O187  1  0.25533303  0.00646728  0.36372216  1
  O  O188  1  0.25628068  0.00537719  0.87658113  1
  O  O189  1  0.24648438  0.50560748  0.36652893  1
  O  O190  1  0.24757490  0.51050476  0.85810952  1
  O  O191  1  0.74695858  0.01204141  0.36771539  1
  O  O192  1  0.76045213  0.00868134  0.86917900  1
  O  O193  1  0.74836696  0.50266560  0.36582334  1
  O  O194  1  0.75749256  0.50584456  0.86761674  1
  O  O195  1  0.24652130  0.49748455  0.12991870  1
  O  O196  1  0.24569202  0.49711379  0.63214739  1
  O  O197  1  0.24397706  0.99950385  0.13634468  1
  O  O198  1  0.26856547  0.98212252  0.63269090  1
  O  O199  1  0.74278813  0.49212076  0.13905032  1
  O  O200  1  0.74409778  0.49134613  0.63038439  1
  O  O201  1  0.73822101  1.00669424  0.13757102  1
  O  O202  1  0.74196987  0.99659861  0.62941545  1
  O  O203  1  0.00501666  0.37993924  0.26094288  1
  O  O204  1  0.00313884  0.37144162  0.75323363  1
  O  O205  1  0.00438906  0.87646015  0.26166382  1
  O  O206  1  -0.01128069  0.88305149  0.77130836  1
  O  O207  1  0.50875031  0.36634025  0.25260802  1
  O  O208  1  0.50850862  0.37130970  0.74613287  1
  O  O209  1  0.50328018  0.86317085  0.24974320  1
  O  O210  1  0.50527801  0.87147954  0.75127041  1
  O  O211  1  0.50478250  0.13087145  0.24200635  1
  O  O212  1  0.48680240  0.13200056  0.75312642  1
  O  O213  1  0.49974272  0.63695132  0.25140035  1
  O  O214  1  0.51636217  0.63795673  0.73198915  1
  O  O215  1  0.98302220  0.11390633  0.26680160  1
  O  O216  1  0.98746691  0.12975109  0.75486223  1
  O  O217  1  0.99552685  0.61889537  0.23914618  1
  O  O218  1  0.98512845  0.61642895  0.73671756  1
  O  O219  1  0.36728533  0.25358050  0.00033852  1
  O  O220  1  0.36310370  0.25847629  0.50206834  1
  O  O221  1  0.36759477  0.75318158  0.00490378  1
  O  O222  1  0.37079454  0.75748774  0.50362720  1
  O  O223  1  0.86920944  0.25779996  0.00652956  1
  O  O224  1  0.86796765  0.25794305  0.50518962  1
  O  O225  1  0.87150183  0.76375328  -0.00177368  1
  O  O226  1  0.86028294  0.75674373  0.50655943  1
  O  O227  1  0.13918591  0.25772665  0.49149550  1
  O  O228  1  0.14100242  0.24817004  0.98856439  1
  O  O229  1  0.13247104  0.74309949  0.49468805  1
  O  O230  1  0.13758474  0.74415231  1.00556440  1
  O  O231  1  0.63203314  0.24368247  0.50787738  1
  O  O232  1  0.62781115  0.24447029  0.99267506  1
  O  O233  1  0.63656805  0.74346018  0.50588322  1
  O  O234  1  0.61944261  0.73791419  1.00931105  1
  O  O235  1  0.50210168  0.24093367  0.13261607  1
  O  O236  1  0.50193623  0.25046528  0.63893620  1
  O  O237  1  0.48507009  0.74915422  0.13395963  1
  O  O238  1  0.49230630  0.74554934  0.62669782  1
  O  O239  1  0.98686467  0.24687507  0.11935379  1
  O  O240  1  0.98799897  0.25430891  0.62148961  1
  O  O241  1  0.99281237  0.74023843  0.12778160  1
  O  O242  1  0.98109725  0.72982818  0.60338402  1
  O  O243  1  0.01330416  0.25768037  0.38135786  1
  O  O244  1  0.01256977  0.25047848  0.87728976  1
  O  O245  1  0.01060904  0.75634440  0.37834154  1
  O  O246  1  -0.00657000  0.76251213  0.87508242  1
  O  O247  1  0.49554007  0.24711708  0.36356959  1
  O  O248  1  0.51300943  0.24481288  0.86749275  1
  O  O249  1  0.49126835  0.74848432  0.36327901  1
  O  O250  1  0.49636655  0.75310684  0.86046117  1
  O  O251  1  0.27524802  0.13563653  0.47439147  1
  O  O252  1  0.25619117  0.13365816  0.99323096  1
  O  O253  1  0.24464925  0.62742920  0.49235841  1
  O  O254  1  0.24288769  0.63768585  1.00165326  1
  O  O255  1  0.74238618  0.13299802  0.49456841  1
  O  O256  1  0.74527978  0.12390338  0.98888451  1
  O  O257  1  0.74497560  0.63054140  0.49560091  1
  O  O258  1  0.73458047  0.62442429  1.00482749  1
  O  O259  1  0.25310013  0.36921843  0.00551475  1
  O  O260  1  0.25610523  0.37390761  0.51258870  1
  O  O261  1  0.25288598  0.86406440  0.00059838  1
  O  O262  1  0.26496991  0.87125695  0.50241483  1
  O  O263  1  0.75094546  0.37624686  0.01587689  1
  O  O264  1  0.75521094  0.37001387  0.50188227  1
  O  O265  1  0.76483349  0.88195083  -0.00136334  1
  O  O266  1  0.75391066  0.86945544  0.50307881  1
  O  O267  1  0.13657531  0.49517405  0.24147573  1
  O  O268  1  0.13609210  0.50144246  0.74512235  1
  O  O269  1  0.13117911  0.99248067  0.25114543  1
  O  O270  1  0.12654617  0.99096603  0.74942468  1
  O  O271  1  0.63269163  0.49354379  0.24781577  1
  O  O272  1  0.63073144  0.49439509  0.74777439  1
  O  O273  1  0.62702224  0.99274972  0.24529255  1
  O  O274  1  0.62627604  0.99907757  0.74207641  1
  O  O275  1  0.36807412  -0.00470145  0.25392388  1
  O  O276  1  0.37658413  0.00910418  0.76031511  1
  O  O277  1  0.36388690  0.50046809  0.25295397  1
  O  O278  1  0.35397546  0.50877706  0.74342144  1
  O  O279  1  0.86274777  0.00638378  0.24497653  1
  O  O280  1  0.87032188  0.00911553  0.75560859  1
  O  O281  1  0.86740484  0.50731852  0.24710998  1
  O  O282  1  0.86680323  0.50352612  0.75628756  1
  O  O283  1  0.12002054  0.36726141  0.36861750  1
  O  O284  1  0.12508928  0.36661967  0.87286243  1
  O  O285  1  0.12090632  0.86908391  0.36748217  1
  O  O286  1  0.10764441  0.87209820  0.87479964  1
  O  O287  1  0.62232861  0.37670720  0.36455593  1
  O  O288  1  0.63602322  0.36502889  0.86583633  1
  O  O289  1  0.61861368  0.88108046  0.36977438  1
  O  O290  1  0.62323976  0.88566590  0.86080468  1
  O  O291  1  0.39167578  0.12275849  0.12457819  1
  O  O292  1  0.37067840  0.11995924  0.64118646  1
  O  O293  1  0.37716725  0.63348453  0.12943395  1
  O  O294  1  0.38618409  0.63816317  0.61451185  1
  O  O295  1  0.86724788  0.13241687  0.13690974  1
  O  O296  1  0.86629169  0.13620352  0.63442881  1
  O  O297  1  0.88239623  0.62324163  0.13250007  1
  O  O298  1  0.87632945  0.62885795  0.62886170  1
  O  O299  1  0.25500997  0.26000185  0.11546060  1
  O  O300  1  0.25897040  0.27230852  0.63043423  1
  O  O301  1  0.26049034  0.75269009  0.12019778  1
  O  O302  1  0.25895724  0.75829397  0.61595250  1
  O  O303  1  0.75758103  0.25806785  0.12517110  1
  O  O304  1  0.75660216  0.25634016  0.61443128  1
  O  O305  1  0.76606542  0.75966766  0.17158553  1
  O  O306  1  0.75556516  0.75820133  0.62092165  1
  O  O307  1  0.24241563  0.24329122  0.36724540  1
  O  O308  1  0.24705308  0.24326420  0.88030911  1
  O  O309  1  0.24410679  0.74219920  0.37830679  1
  O  O310  1  0.25480305  0.75025347  0.88765408  1
  O  O311  1  0.74922751  0.24683066  0.38854378  1
  O  O312  1  0.74075781  0.24064911  0.87406349  1
  O  O313  1  0.75126461  0.73872422  0.38220487  1
  O  O314  1  0.74032417  0.73648835  0.83150298  1
  O  O315  1  -0.00503375  0.11154168  -0.00409258  1
  O  O316  1  -0.00256257  0.11248372  0.49586658  1
  O  O317  1  0.00605503  0.62795221  0.01170899  1
  O  O318  1  -0.00063058  0.61517922  0.49810654  1
  O  O319  1  0.50701073  0.12013095  0.00564823  1
  O  O320  1  0.50913479  0.12289339  0.49614305  1
  O  O321  1  0.51436895  0.61253747  0.01001096  1
  O  O322  1  0.50664819  0.61970349  0.50503092  1
  O  O323  1  0.49071071  0.38044010  0.50188691  1
  O  O324  1  0.50063220  0.38808479  1.01646599  1
  O  O325  1  0.48921349  0.88046687  0.50391828  1
  O  O326  1  0.49071863  0.88000340  0.99884778  1
  O  O327  1  0.99349716  0.38083174  0.49095936  1
  O  O328  1  0.98564291  0.37617734  0.99758713  1
  O  O329  1  0.99376661  0.87364918  0.49972124  1
  O  O330  1  0.99177717  0.88493177  0.98863496  1
  O  O331  1  0.49878574  0.49902090  0.38905012  1
  O  O332  1  0.52240707  0.48427720  0.89676633  1
  O  O333  1  0.49069115  1.00386056  0.38167745  1
  O  O334  1  0.49055342  0.99915682  0.88386474  1
  O  O335  1  1.00394147  0.49024616  0.38304983  1
  O  O336  1  0.98289697  0.49884368  0.87064003  1
  O  O337  1  1.00517340  0.98573329  0.39601175  1
  O  O338  1  0.98829919  1.00124211  0.88463398  1
  O  O339  1  -0.00052538  -0.00210984  0.10958255  1
  O  O340  1  0.00075908  -0.00425675  0.60587190  1
  O  O341  1  0.01483077  0.50448406  0.12719415  1
  O  O342  1  -0.00443126  0.50847750  0.61062024  1
  O  O343  1  0.50767078  0.00606858  0.12054640  1
  O  O344  1  0.50794116  -0.00175645  0.61755595  1
  O  O345  1  0.51393069  0.50119368  0.12893125  1
  O  O346  1  0.50145192  0.50903617  0.61790405  1
  O  O347  1  0.24751276  0.38272365  0.24321158  1
  O  O348  1  0.25065429  0.38122188  0.73966647  1
  O  O349  1  0.24033209  0.88176462  0.24861908  1
  O  O350  1  0.24711430  0.86921804  0.73370716  1
  O  O351  1  0.74661807  0.37793613  0.24571224  1
  O  O352  1  0.74338906  0.38483139  0.74636401  1
  O  O353  1  0.73670917  0.89030885  0.26376714  1
  O  O354  1  0.74255122  0.88609115  0.74347849  1
  O  O355  1  0.25694713  0.11648260  0.25514828  1
  O  O356  1  0.26463610  0.12228478  0.76286180  1
  O  O357  1  0.24914937  0.61715264  0.25709251  1
  O  O358  1  0.24145019  0.62601969  0.74210978  1
  O  O359  1  0.75250227  0.11772842  0.25884309  1
  O  O360  1  0.75369710  0.12249477  0.75794132  1
  O  O361  1  0.75644905  0.61418994  0.25977931  1
  O  O362  1  0.76243984  0.60737423  0.73737447  1
  O  O363  1  0.37239182  0.11241733  0.36446964  1
  O  O364  1  0.36826691  0.11385719  0.87417770  1
  O  O365  1  0.36057247  0.62053077  0.37455997  1
  O  O366  1  0.42107045  0.60632686  0.86436586  1
  O  O367  1  0.85817603  0.13370883  0.36781575  1
  O  O368  1  0.86613058  0.12115403  0.86759355  1
  O  O369  1  0.86323369  0.61875193  0.37469024  1
  O  O370  1  0.87215474  0.61991629  0.86776173  1
  O  O371  1  0.13989965  0.38597119  0.13071806  1
  O  O372  1  0.13919838  0.37947701  0.62589267  1
  O  O373  1  0.12017332  0.87431410  0.13897627  1
  O  O374  1  0.14984485  0.88806744  0.59823782  1
  O  O375  1  0.63475855  0.38078226  0.13780524  1
  O  O376  1  0.62980378  0.38199082  0.63518866  1
  O  O377  1  0.61897054  0.88589874  0.13395886  1
  O  O378  1  0.62999483  0.88969304  0.62927681  1
  O  O379  1  0.12509051  0.25837499  0.25665898  1
  O  O380  1  0.12553682  0.25232822  0.76094679  1
  O  O381  1  0.12263081  0.75678315  0.25707319  1
  O  O382  1  0.10016466  0.77892220  0.69470047  1
  O  O383  1  0.61779607  0.25828216  0.24596547  1
  O  O384  1  0.61817126  0.25760681  0.75518250  1
  O  O385  1  0.60830960  0.75943301  0.24976096  1
  O  O386  1  0.61006782  0.77023201  0.73168437  1
  O  O387  1  0.38678370  0.24777153  0.24315042  1
  O  O388  1  0.38242962  0.23602365  0.75738230  1
  O  O389  1  0.38168771  0.75036445  0.24412252  1
  O  O390  1  0.38446940  0.75544438  0.73743523  1
  O  O391  1  0.87354892  0.23750676  0.24096780  1
  O  O392  1  0.87334128  0.24455898  0.74044874  1
  O  O393  1  0.88743989  0.72621828  0.26622861  1
  O  O394  1  0.87500021  0.74029112  0.73480023  1
  O  O395  1  0.38190342  0.49258186  0.49871119  1
  O  O396  1  0.39546351  0.50299329  1.00269928  1
  O  O397  1  0.37878441  0.99484466  0.49172793  1
  O  O398  1  0.37719733  0.99120713  0.99475820  1
  O  O399  1  0.87848659  0.48563795  0.50068958  1
  O  O400  1  0.86616481  0.49125344  0.99339559  1
  O  O401  1  0.86927364  0.98618001  0.50330312  1
  O  O402  1  0.88104199  0.99406282  0.99390602  1
  O  O403  1  0.10994367  -0.00226497  0.00376612  1
  O  O404  1  0.12447475  0.01178479  0.49711040  1
  O  O405  1  0.13681763  0.51035875  0.00798737  1
  O  O406  1  0.11389518  0.50543633  0.49937995  1
  O  O407  1  0.62122952  0.00363596  0.00807420  1
  O  O408  1  0.61770190  0.00880702  0.50626466  1
  O  O409  1  0.62144849  0.50140592  0.01497710  1
  O  O410  1  0.61620835  0.50412733  0.50750661  1
  O  O411  1  0.36321494  0.37731080  0.12262020  1
  O  O412  1  0.36334687  0.38589531  0.61733464  1
  O  O413  1  0.37071599  0.86972900  0.11108154  1
  O  O414  1  0.37095811  0.86524408  0.61597382  1
  O  O415  1  0.86950744  0.36822467  0.12170808  1
  O  O416  1  0.86863428  0.36817124  0.61645459  1
  O  O417  1  0.88132026  0.87396275  0.10883201  1
  O  O418  1  0.87039461  0.86722938  0.62039982  1
  O  O419  1  0.13591265  0.13689862  0.36870880  1
  O  O420  1  0.13902090  0.13097459  0.87043963  1
  O  O421  1  0.13317573  0.62951637  0.37726328  1
  O  O422  1  0.11095564  0.62435998  0.88824663  1
  O  O423  1  0.63517046  0.12505342  0.38677427  1
  O  O424  1  0.63158451  0.12986270  0.87860771  1
  O  O425  1  0.63707550  0.61697362  0.38972820  1
  O  O426  1  0.62454545  0.62286571  0.89565447  1
