# generated using pymatgen
data_V85Zn86O256
_symmetry_space_group_name_H-M   'P 1'
_cell_length_a   16.96721924
_cell_length_b   16.98069875
_cell_length_c   16.96576624
_cell_angle_alpha   89.96065049
_cell_angle_beta   90.08621716
_cell_angle_gamma   90.04120908
_symmetry_Int_Tables_number   1
_chemical_formula_structural   V85Zn86O256
_chemical_formula_sum   'V85 Zn86 O256'
_cell_volume   4888.08783774
_cell_formula_units_Z   1
loop_
 _symmetry_equiv_pos_site_id
 _symmetry_equiv_pos_as_xyz
  1  'x, y, z'
loop_
 _atom_site_type_symbol
 _atom_site_label
 _atom_site_symmetry_multiplicity
 _atom_site_fract_x
 _atom_site_fract_y
 _atom_site_fract_z
 _atom_site_occupancy
  V  V0  1  0.12271438  0.49981272  0.62300853  1
  V  V1  1  0.87110250  0.37744792  0.49800416  1
  V  V2  1  0.37949339  0.87413424  0.00204071  1
  V  V3  1  0.12439848  0.87534289  0.75085925  1
  V  V4  1  0.24921941  0.87819092  0.62691017  1
  V  V5  1  0.61121403  0.24853567  0.35777140  1
  V  V6  1  0.87598719  0.12623531  0.74993959  1
  V  V7  1  0.62689142  0.87908271  0.74013643  1
  V  V8  1  0.12622323  0.00276479  0.62723855  1
  V  V9  1  0.62415985  0.62235276  -0.00071218  1
  V  V10  1  0.62996425  0.75228942  0.87693382  1
  V  V11  1  0.74743416  0.37411866  0.12568367  1
  V  V12  1  -0.00655622  0.00211781  0.49814248  1
  V  V13  1  0.24895319  0.87514268  0.12765713  1
  V  V14  1  -0.00956003  0.75272994  0.24822334  1
  V  V15  1  -0.00152780  0.11689371  0.12081123  1
  V  V16  1  0.00151929  0.25511839  0.74794092  1
  V  V17  1  0.25352082  0.00418834  0.25046121  1
  V  V18  1  0.25548067  0.50392549  0.74973214  1
  V  V19  1  0.12421747  0.74952695  0.87492421  1
  V  V20  1  0.49842968  0.61959827  0.13109526  1
  V  V21  1  0.51452661  0.00709321  0.50419892  1
  V  V22  1  -0.00701428  0.87999741  0.37523722  1
  V  V23  1  0.51055164  0.12320631  0.63251476  1
  V  V24  1  0.75111015  0.89301333  0.13497477  1
  V  V25  1  0.12522678  0.25224745  0.37526627  1
  V  V26  1  0.50229326  0.75024389  0.75072790  1
  V  V27  1  0.75147041  0.74274026  0.50947709  1
  V  V28  1  0.28527363  0.16742100  0.90197454  1
  V  V29  1  0.74390909  0.49709848  0.74886456  1
  V  V30  1  0.24683969  0.75214082  0.50032231  1
  V  V31  1  0.62735461  0.49512299  0.12712042  1
  V  V32  1  0.48943533  0.48834531  -0.00904885  1
  V  V33  1  0.87844546  -0.00250914  0.88225334  1
  V  V34  1  0.87324965  0.24950516  0.62369680  1
  V  V35  1  0.12197597  0.25121161  0.88079521  1
  V  V36  1  -0.00998975  0.50443109  0.49823466  1
  V  V37  1  0.12346492  0.62455935  0.49507468  1
  V  V38  1  0.73895922  0.37129227  0.62840511  1
  V  V39  1  0.25837206  0.12733666  0.37384837  1
  V  V40  1  0.61121753  0.24974300  0.87446866  1
  V  V41  1  0.37345086  -0.00798692  0.87331181  1
  V  V42  1  0.37733375  0.75023061  0.62805476  1
  V  V43  1  0.00249148  0.50139344  0.00100998  1
  V  V44  1  0.48537699  0.25703092  0.23901234  1
  V  V45  1  0.87674235  0.11264970  0.26198192  1
  V  V46  1  -0.00445556  0.62959955  0.62413077  1
  V  V47  1  0.61297226  0.37265172  0.75752080  1
  V  V48  1  0.37719383  0.74994079  0.13175652  1
  V  V49  1  0.50250521  0.75032621  0.25204115  1
  V  V50  1  0.74942509  0.00239590  0.73547853  1
  V  V51  1  0.25567127  0.25325350  0.50741235  1
  V  V52  1  -0.00738964  0.63061992  0.12482051  1
  V  V53  1  0.48039531  0.11679201  0.13375351  1
  V  V54  1  0.11670552  0.11489875  -0.00845423  1
  V  V55  1  0.51122451  0.61748241  0.62177854  1
  V  V56  1  0.12282702  0.87749402  0.25141880  1
  V  V57  1  0.62683650  0.74422589  0.37833443  1
  V  V58  1  -0.00305702  0.38290049  0.37347593  1
  V  V59  1  0.50545235  0.87459067  0.87769438  1
  V  V60  1  -0.00662084  0.75193322  0.74800458  1
  V  V61  1  0.87169695  0.87076331  0.50643119  1
  V  V62  1  0.87843026  0.24987035  0.12847148  1
  V  V63  1  0.87197494  0.62677746  0.74039933  1
  V  V64  1  0.87541434  0.50154250  0.87322259  1
  V  V65  1  0.75701180  0.62555621  0.37126290  1
  V  V66  1  0.73671239  0.24572766  0.48742358  1
  V  V67  1  0.37765625  0.24930318  0.63396945  1
  V  V68  1  0.75574487  0.75107494  0.01410140  1
  V  V69  1  0.49958892  0.87628741  0.37667819  1
  V  V70  1  0.12629083  0.62484648  -0.00004575  1
  V  V71  1  0.00334847  0.12872495  0.62586548  1
  V  V72  1  0.12563854  0.12614002  0.50161771  1
  V  V73  1  0.63150159  0.11798063  0.01456762  1
  V  V74  1  0.24877734  0.35261573  0.11545360  1
  V  V75  1  0.37449151  0.88158869  0.50248143  1
  V  V76  1  0.75672788  0.49516624  0.25753180  1
  V  V77  1  0.12939926  0.37691230  0.74734699  1
  V  V78  1  0.87686800  0.37521254  0.00011851  1
  V  V79  1  0.12910329  0.38036087  0.25315295  1
  V  V80  1  0.25818131  0.62823541  0.36066475  1
  V  V81  1  0.25902071  0.62320007  0.87757276  1
  V  V82  1  0.12805494  0.49891444  0.12821946  1
  V  V83  1  0.74838913  0.12648165  0.87406761  1
  V  V84  1  0.25131819  0.74679369  0.00166898  1
  Zn  Zn85  1  0.72294369  0.07844276  0.34322685  1
  Zn  Zn86  1  0.30830859  0.47760601  0.27724473  1
  Zn  Zn87  1  0.75007114  0.25190410  -0.00138000  1
  Zn  Zn88  1  0.11932851  -0.00353608  0.11836700  1
  Zn  Zn89  1  0.58424789  0.57407639  0.46968813  1
  Zn  Zn90  1  0.37514339  0.00621980  0.37541194  1
  Zn  Zn91  1  0.75147477  0.87338589  0.62290966  1
  Zn  Zn92  1  0.37821782  0.12189568  0.75315624  1
  Zn  Zn93  1  0.12260694  0.75222243  0.37551115  1
  Zn  Zn94  1  0.29234135  0.41051966  0.59234013  1
  Zn  Zn95  1  0.00453405  0.38014470  0.87429558  1
  Zn  Zn96  1  0.37911588  0.62226119  0.75354664  1
  Zn  Zn97  1  0.88168944  0.87215004  0.00979921  1
  Zn  Zn98  1  0.43270969  0.43667952  0.44006082  1
  Zn  Zn99  1  0.87386194  0.62682859  0.24642391  1
  Zn  Zn100  1  0.24808754  0.01046205  0.75879369  1
  Zn  Zn101  1  0.37962667  0.34173910  -0.01521229  1
  Zn  Zn102  1  0.51266484  -0.00800211  0.01106578  1
  Zn  Zn103  1  0.00071934  0.25085353  0.24896923  1
  Zn  Zn104  1  0.62560712  0.90079771  0.24311831  1
  Zn  Zn105  1  0.00198803  0.88021192  0.88224346  1
  Zn  Zn106  1  0.75161338  0.62645433  0.87526354  1
  Zn  Zn107  1  0.17953315  0.18229466  0.18945372  1
  Zn  Zn108  1  0.19771589  0.18590108  0.70067246  1
  Zn  Zn109  1  0.17828453  0.69272445  0.18561956  1
  Zn  Zn110  1  0.18605546  0.68743035  0.68728484  1
  Zn  Zn111  1  0.69346957  0.18938613  0.19187169  1
  Zn  Zn112  1  0.68571391  0.18955240  0.69033430  1
  Zn  Zn113  1  0.68280149  0.68636575  0.19107906  1
  Zn  Zn114  1  0.68746621  0.68622866  0.68948016  1
  Zn  Zn115  1  0.31332193  0.30843148  0.30964896  1
  Zn  Zn116  1  0.31985122  0.32261319  0.80426660  1
  Zn  Zn117  1  0.31269546  0.81170868  0.31422223  1
  Zn  Zn118  1  0.31137022  0.81217230  0.81289810  1
  Zn  Zn119  1  0.81105406  0.31237196  0.31322043  1
  Zn  Zn120  1  0.81170596  0.31361408  0.81307691  1
  Zn  Zn121  1  0.81275860  0.81756226  0.31455623  1
  Zn  Zn122  1  0.81039541  0.81428018  0.81240009  1
  Zn  Zn123  1  0.26206058  0.44040958  0.43322847  1
  Zn  Zn124  1  0.22720311  0.41713034  0.92048702  1
  Zn  Zn125  1  0.18354033  0.94061219  0.43664662  1
  Zn  Zn126  1  0.18758868  0.93383523  0.93989594  1
  Zn  Zn127  1  0.60257124  0.41953451  0.44003059  1
  Zn  Zn128  1  0.68774776  0.43661337  0.93754966  1
  Zn  Zn129  1  0.68223930  0.93898549  0.41572116  1
  Zn  Zn130  1  0.69623672  0.93745165  0.93677976  1
  Zn  Zn131  1  0.30704733  0.05776297  0.05777043  1
  Zn  Zn132  1  0.31379034  0.06729319  0.56591238  1
  Zn  Zn133  1  0.32782076  0.54702656  0.09690654  1
  Zn  Zn134  1  0.31489065  0.57441166  0.55883218  1
  Zn  Zn135  1  0.81411687  0.06562659  0.06422460  1
  Zn  Zn136  1  0.78495852  0.04534494  0.52778691  1
  Zn  Zn137  1  0.81221018  0.56272276  0.06219841  1
  Zn  Zn138  1  0.76017758  0.52806414  0.53119142  1
  Zn  Zn139  1  0.43373963  0.42389697  0.16500126  1
  Zn  Zn140  1  0.44214361  0.43992144  0.68775938  1
  Zn  Zn141  1  0.43718350  0.93863269  0.19136849  1
  Zn  Zn142  1  0.44146104  0.93959602  0.68791075  1
  Zn  Zn143  1  0.93732868  0.43853394  0.18826294  1
  Zn  Zn144  1  0.93548064  0.43876472  0.68515138  1
  Zn  Zn145  1  0.93152110  0.93747887  0.18539901  1
  Zn  Zn146  1  0.93656437  0.93980055  0.68669705  1
  Zn  Zn147  1  0.06116349  0.06417119  0.31156107  1
  Zn  Zn148  1  0.06055670  0.06362465  0.81139543  1
  Zn  Zn149  1  0.06420679  0.56399025  0.31337154  1
  Zn  Zn150  1  0.06442383  0.56441284  0.81287436  1
  Zn  Zn151  1  0.55641910  0.06801623  0.31606221  1
  Zn  Zn152  1  0.56400725  0.05818397  0.81570680  1
  Zn  Zn153  1  0.55908974  0.55304763  0.30359260  1
  Zn  Zn154  1  0.56246592  0.56292040  0.81226770  1
  Zn  Zn155  1  0.44248851  0.19662356  0.44245342  1
  Zn  Zn156  1  0.45236196  0.17339658  0.94408753  1
  Zn  Zn157  1  0.43274049  0.68968372  0.43955294  1
  Zn  Zn158  1  0.44058202  0.68621451  0.94176447  1
  Zn  Zn159  1  0.93956169  0.19364428  0.43959763  1
  Zn  Zn160  1  0.93816921  0.18915328  0.93761948  1
  Zn  Zn161  1  0.93386682  0.69183983  0.43374903  1
  Zn  Zn162  1  0.93685456  0.68837800  0.93357946  1
  Zn  Zn163  1  0.06512292  0.31152414  0.06150918  1
  Zn  Zn164  1  0.06410885  0.31718934  0.55874464  1
  Zn  Zn165  1  0.05981420  0.81385673  0.06223055  1
  Zn  Zn166  1  0.05934219  0.81315146  0.56458480  1
  Zn  Zn167  1  0.56238476  0.30630084  0.06376062  1
  Zn  Zn168  1  0.55598934  0.30919226  0.56540410  1
  Zn  Zn169  1  0.57045584  0.81327864  0.06820893  1
  Zn  Zn170  1  0.56373506  0.80836749  0.55894589  1
  O  O171  1  0.11540172  0.12244687  0.11280022  1
  O  O172  1  0.12378030  0.12169490  0.62472456  1
  O  O173  1  0.11626328  0.61802598  0.12014870  1
  O  O174  1  0.11580808  0.61882069  0.62065420  1
  O  O175  1  0.63511117  0.12467665  0.11431832  1
  O  O176  1  0.60960775  0.13078203  0.62822701  1
  O  O177  1  0.61859171  0.61725672  0.11828107  1
  O  O178  1  0.61099579  0.62682146  0.62955180  1
  O  O179  1  0.34875697  0.40227105  0.36122998  1
  O  O180  1  0.33498714  0.38691442  0.89221661  1
  O  O181  1  0.38572934  0.87271903  0.38536694  1
  O  O182  1  0.38518942  0.87233194  0.88346944  1
  O  O183  1  0.88563043  0.36775960  0.38476275  1
  O  O184  1  0.87747191  0.38707285  0.87941120  1
  O  O185  1  0.88667289  0.87359872  0.38674477  1
  O  O186  1  0.87125090  0.89110736  0.87377883  1
  O  O187  1  0.24874839  0.01033322  0.37032566  1
  O  O188  1  0.26845872  -0.01744812  0.87572872  1
  O  O189  1  0.23749979  0.52340227  0.35931719  1
  O  O190  1  0.23501570  0.51615684  0.86164663  1
  O  O191  1  0.76489364  0.01149828  0.42210943  1
  O  O192  1  0.75900366  0.01081567  0.86553281  1
  O  O193  1  0.74607796  0.50826945  0.35738688  1
  O  O194  1  0.75854570  0.50116553  0.86739324  1
  O  O195  1  0.22882610  0.49422179  0.11556219  1
  O  O196  1  0.23759072  0.50848238  0.63230906  1
  O  O197  1  0.24562502  0.99325735  0.13298537  1
  O  O198  1  0.24305922  0.99624146  0.63045252  1
  O  O199  1  0.74603378  0.49342014  0.12914820  1
  O  O200  1  0.75713709  0.48325895  0.64121129  1
  O  O201  1  0.75153328  0.99169079  0.12562195  1
  O  O202  1  0.75446180  0.99935508  0.63241071  1
  O  O203  1  0.00435148  0.37455681  0.25921094  1
  O  O204  1  0.01113019  0.37425956  0.74993890  1
  O  O205  1  0.00274180  0.87358602  0.25615329  1
  O  O206  1  0.00845629  0.86933242  0.75137521  1
  O  O207  1  0.49823181  0.35634538  0.22919805  1
  O  O208  1  0.51368798  0.38249244  0.75423468  1
  O  O209  1  0.50527711  0.87178527  0.26066361  1
  O  O210  1  0.50936364  0.87023302  0.75621142  1
  O  O211  1  0.49573591  0.12676820  0.23752266  1
  O  O212  1  0.49901577  0.11290558  0.73628665  1
  O  O213  1  0.50485381  0.63210595  0.23701414  1
  O  O214  1  0.49835725  0.63214640  0.74248350  1
  O  O215  1  0.99393886  0.12939541  0.24083606  1
  O  O216  1  0.99628166  0.13418298  0.74341868  1
  O  O217  1  1.00035378  0.63498188  0.24348567  1
  O  O218  1  0.99289410  0.63279355  0.74667018  1
  O  O219  1  0.35507174  0.22788072  -0.03769776  1
  O  O220  1  0.36557583  0.24680142  0.51262736  1
  O  O221  1  0.37285187  0.76028369  0.00570233  1
  O  O222  1  0.36946187  0.76339850  0.50887285  1
  O  O223  1  0.87472317  0.25627462  0.01017066  1
  O  O224  1  0.87670921  0.26017491  0.50988152  1
  O  O225  1  0.85706730  0.74774229  -0.00776044  1
  O  O226  1  0.86236960  0.75694608  0.49661695  1
  O  O227  1  0.12866094  0.24292636  0.49572169  1
  O  O228  1  0.11605726  0.24032114  0.98455670  1
  O  O229  1  0.12640996  0.74007587  0.50345239  1
  O  O230  1  0.13241564  0.74456605  0.99603521  1
  O  O231  1  0.63406303  0.25133345  0.49003338  1
  O  O232  1  0.62795385  0.23744025  0.99095516  1
  O  O233  1  0.63949481  0.74982258  0.49311576  1
  O  O234  1  0.63381924  0.74321397  0.99539508  1
  O  O235  1  0.50289400  0.23127992  0.13169460  1
  O  O236  1  0.48846871  0.23265082  0.62079943  1
  O  O237  1  0.49799255  0.74569916  0.13375880  1
  O  O238  1  0.49361974  0.74778843  0.63218821  1
  O  O239  1  0.99390415  0.24087349  0.12510946  1
  O  O240  1  0.99543538  0.24987269  0.62918624  1
  O  O241  1  1.00720195  0.74093453  0.13530048  1
  O  O242  1  1.00298836  0.74511682  0.63972709  1
  O  O243  1  0.01299849  0.26309481  0.37907466  1
  O  O244  1  0.00519929  0.25581646  0.86534428  1
  O  O245  1  0.00217906  0.76069030  0.36737515  1
  O  O246  1  0.00686662  0.74997883  0.86292013  1
  O  O247  1  0.50343008  0.24619484  0.35709319  1
  O  O248  1  0.51281936  0.24539969  0.87683506  1
  O  O249  1  0.50349004  0.75377773  0.37069496  1
  O  O250  1  0.51224902  0.75334953  0.87235274  1
  O  O251  1  0.24285414  0.13247402  0.49405535  1
  O  O252  1  0.23967133  0.11776856  0.98314718  1
  O  O253  1  0.23899379  0.63428675  0.49311916  1
  O  O254  1  0.24464876  0.63017812  0.99347966  1
  O  O255  1  0.75598315  0.15467024  0.52361087  1
  O  O256  1  0.74376783  0.12688802  0.99270453  1
  O  O257  1  0.75705443  0.63693725  0.48883001  1
  O  O258  1  0.74024577  0.63299025  1.00034690  1
  O  O259  1  0.21309027  0.36707133  0.02131934  1
  O  O260  1  0.23234674  0.35643079  0.50647032  1
  O  O261  1  0.25790501  0.86686535  0.00858504  1
  O  O262  1  0.25370842  0.87229088  0.50603300  1
  O  O263  1  0.75985276  0.37536256  0.00794500  1
  O  O264  1  0.75783934  0.35570847  0.51463703  1
  O  O265  1  0.75169100  0.86415757  0.01052921  1
  O  O266  1  0.75715477  0.86097152  0.50153277  1
  O  O267  1  0.11740629  0.49220908  0.24049005  1
  O  O268  1  0.12840762  0.49677525  0.74180604  1
  O  O269  1  0.13134592  0.98971254  0.24975434  1
  O  O270  1  0.12689086  0.99214774  0.74738097  1
  O  O271  1  0.63744142  0.50192252  0.23319230  1
  O  O272  1  0.63551101  0.49005070  0.76086668  1
  O  O273  1  0.64199584  0.99546800  0.30321581  1
  O  O274  1  0.63710089  0.98973762  0.75750330  1
  O  O275  1  0.35751042  -0.00945621  0.25691156  1
  O  O276  1  0.37223972  -0.00483489  0.76001222  1
  O  O277  1  0.37558014  0.51311824  0.19848119  1
  O  O278  1  0.35955988  0.50247460  0.74228598  1
  O  O279  1  0.88096408  0.01350167  0.25548901  1
  O  O280  1  0.86719958  0.00749490  0.75452527  1
  O  O281  1  0.86040582  0.50502272  0.24383253  1
  O  O282  1  0.86985479  0.50544261  0.75745459  1
  O  O283  1  0.12078707  0.36988562  0.36347650  1
  O  O284  1  0.12623770  0.36888996  0.86371371  1
  O  O285  1  0.11431725  0.87470724  0.36889370  1
  O  O286  1  0.12402947  0.86862536  0.86673919  1
  O  O287  1  0.64215378  0.34534470  0.36387579  1
  O  O288  1  0.63261748  0.35676572  0.87418735  1
  O  O289  1  0.60925962  0.85849931  0.38342646  1
  O  O290  1  0.62409081  0.86877804  0.87087525  1
  O  O291  1  0.38272197  0.11912891  0.11881827  1
  O  O292  1  0.38259230  0.13161786  0.63098929  1
  O  O293  1  0.38722341  0.64569562  0.11219004  1
  O  O294  1  0.38036204  0.64109128  0.62665957  1
  O  O295  1  0.88147644  0.13220157  0.13051138  1
  O  O296  1  0.88436616  0.13976332  0.63319773  1
  O  O297  1  0.88895907  0.62260864  0.12404515  1
  O  O298  1  0.88105950  0.62130662  0.63942845  1
  O  O299  1  0.24024383  0.25437360  0.12567302  1
  O  O300  1  0.26400481  0.24153232  0.62065716  1
  O  O301  1  0.25892637  0.75492524  0.12296876  1
  O  O302  1  0.25664968  0.75685074  0.62091933  1
  O  O303  1  0.75812602  0.25956822  0.12334077  1
  O  O304  1  0.76048222  0.25934293  0.63585785  1
  O  O305  1  0.74634411  0.74780411  0.11475757  1
  O  O306  1  0.74768472  0.74784855  0.61232943  1
  O  O307  1  0.24172403  0.24555189  0.38228334  1
  O  O308  1  0.23413945  0.25262735  0.86285934  1
  O  O309  1  0.24530664  0.74682825  0.38347727  1
  O  O310  1  0.24324083  0.74415892  0.88034324  1
  O  O311  1  0.75614680  0.24265244  0.38645012  1
  O  O312  1  0.75187885  0.23563961  0.87634505  1
  O  O313  1  0.74256395  0.74486276  0.37826608  1
  O  O314  1  0.73980137  0.75063264  0.88272849  1
  O  O315  1  0.00546862  0.12581910  0.00660042  1
  O  O316  1  0.00525730  0.11976778  0.50610525  1
  O  O317  1  0.00379821  0.62231920  0.00585702  1
  O  O318  1  0.00123010  0.62355531  0.50206338  1
  O  O319  1  0.51523796  0.11753515  0.01831435  1
  O  O320  1  0.49602498  0.11193130  0.50754130  1
  O  O321  1  0.51231091  0.62366574  0.00939544  1
  O  O322  1  0.50083949  0.63751142  0.51549881  1
  O  O323  1  0.50974502  0.36772464  0.48524985  1
  O  O324  1  0.49351501  0.38205875  1.00507373  1
  O  O325  1  0.49238433  0.88319532  0.49869577  1
  O  O326  1  0.49631122  0.87345299  0.99907237  1
  O  O327  1  0.99183260  0.38465398  0.49450657  1
  O  O328  1  0.99539136  0.38558424  0.99894958  1
  O  O329  1  0.99603308  0.88078602  0.49381261  1
  O  O330  1  0.99308717  0.86864432  0.99442254  1
  O  O331  1  0.52097284  0.50400601  0.39445229  1
  O  O332  1  0.50444663  0.50528367  0.89355918  1
  O  O333  1  0.49267341  0.99375565  0.38950852  1
  O  O334  1  0.49245017  0.99003736  0.88154020  1
  O  O335  1  1.00336138  0.49048906  0.38205213  1
  O  O336  1  0.99387193  0.50170687  0.88247441  1
  O  O337  1  1.00770559  0.99272289  0.38671010  1
  O  O338  1  0.98167478  1.00019201  0.86616907  1
  O  O339  1  -0.00033339  0.01255793  0.12806944  1
  O  O340  1  0.00920717  0.00771059  0.62197720  1
  O  O341  1  0.00502001  0.50680372  0.11821090  1
  O  O342  1  0.00248855  0.50928862  0.61810882  1
  O  O343  1  0.50029315  0.01083064  0.12859715  1
  O  O344  1  0.49544834  0.00964357  0.61303278  1
  O  O345  1  0.51228282  0.50512455  0.11316670  1
  O  O346  1  0.49308933  0.51926282  0.62429586  1
  O  O347  1  0.24193377  0.37606695  0.23289560  1
  O  O348  1  0.23723014  0.38649578  0.74106817  1
  O  O349  1  0.24047681  0.87849327  0.24797245  1
  O  O350  1  0.23654112  0.87255280  0.74422384  1
  O  O351  1  0.75704330  0.38701127  0.24097860  1
  O  O352  1  0.74314999  0.38051216  0.74752234  1
  O  O353  1  0.74821520  0.87272717  0.23854929  1
  O  O354  1  0.74491280  0.88309422  0.74503547  1
  O  O355  1  0.24018739  0.11492209  0.26058547  1
  O  O356  1  0.25874611  0.12618556  0.77934026  1
  O  O357  1  0.24791539  0.64390880  0.26200010  1
  O  O358  1  0.25102370  0.62138778  0.75788083  1
  O  O359  1  0.77071854  0.12851924  0.25084219  1
  O  O360  1  0.75461483  0.11923213  0.75506409  1
  O  O361  1  0.75133130  0.61703105  0.25288298  1
  O  O362  1  0.75565380  0.61653445  0.75183262  1
  O  O363  1  0.36075367  0.12785323  0.38245594  1
  O  O364  1  0.38038357  0.10815651  0.87597454  1
  O  O365  1  0.35752092  0.62896341  0.37933027  1
  O  O366  1  0.36307144  0.63287515  0.87436261  1
  O  O367  1  0.88864297  0.13182887  0.35987136  1
  O  O368  1  0.86916817  0.11851440  0.86958024  1
  O  O369  1  0.86134734  0.62952798  0.36850018  1
  O  O370  1  0.87346905  0.61357117  0.86755985  1
  O  O371  1  0.11896044  0.37968702  0.13962542  1
  O  O372  1  0.11699601  0.39249071  0.62916121  1
  O  O373  1  0.13047821  0.87688418  0.13345865  1
  O  O374  1  0.12745885  0.88222665  0.63231163  1
  O  O375  1  0.63915115  0.38016717  0.11500086  1
  O  O376  1  0.63352916  0.36007154  0.63995616  1
  O  O377  1  0.64192531  0.87585714  0.12948908  1
  O  O378  1  0.62570488  0.86913207  0.63774544  1
  O  O379  1  0.12238011  0.25692262  0.26050860  1
  O  O380  1  0.11931196  0.25971747  0.75171743  1
  O  O381  1  0.11439811  0.76518073  0.25157495  1
  O  O382  1  0.11811958  0.75730078  0.75403907  1
  O  O383  1  0.61241551  0.24320999  0.25208762  1
  O  O384  1  0.62862047  0.25554067  0.76774580  1
  O  O385  1  0.61362633  0.75205770  0.25891969  1
  O  O386  1  0.62413557  0.75700325  0.75992496  1
  O  O387  1  0.38605230  0.24757987  0.24789026  1
  O  O388  1  0.37298049  0.24549558  0.73892599  1
  O  O389  1  0.38946973  0.75865039  0.24340816  1
  O  O390  1  0.38226383  0.75169646  0.74305281  1
  O  O391  1  0.87880934  0.25018460  0.23734109  1
  O  O392  1  0.88337519  0.24844542  0.74547990  1
  O  O393  1  0.88725156  0.75114602  0.25307292  1
  O  O394  1  0.88152389  0.74069333  0.75839442  1
  O  O395  1  0.34588202  0.47971605  0.50872392  1
  O  O396  1  0.39263389  0.50922145  1.00608151  1
  O  O397  1  0.37291915  0.98846253  0.50089324  1
  O  O398  1  0.37709038  0.98393501  0.99679473  1
  O  O399  1  0.86832158  0.48316687  0.50461554  1
  O  O400  1  0.88364464  0.49847637  0.99311343  1
  O  O401  1  0.89191244  0.99339619  0.51186474  1
  O  O402  1  0.86775180  1.00057157  0.98412362  1
  O  O403  1  0.12508508  0.00998326  -0.00276935  1
  O  O404  1  0.11700993  0.00660685  0.50821106  1
  O  O405  1  0.10960108  0.50760114  0.00487019  1
  O  O406  1  0.11491107  0.51604366  0.50823863  1
  O  O407  1  0.62876039  0.01496439  -0.00872685  1
  O  O408  1  0.61115717  -0.00535185  0.50152177  1
  O  O409  1  0.62309826  0.50671003  0.00669091  1
  O  O410  1  0.65625748  0.49602228  0.50347960  1
  O  O411  1  0.35240297  0.36567369  0.09971040  1
  O  O412  1  0.38346373  0.35657060  0.63316222  1
  O  O413  1  0.37310787  0.86711449  0.12014960  1
  O  O414  1  0.37150543  0.86810796  0.62143085  1
  O  O415  1  0.87020247  0.36938153  0.11968126  1
  O  O416  1  0.87017112  0.36537931  0.62167873  1
  O  O417  1  0.85871822  0.87554203  0.12434199  1
  O  O418  1  0.87671966  0.87538867  0.61155814  1
  O  O419  1  0.12893124  0.13557391  0.38064454  1
  O  O420  1  0.11717489  0.13412447  0.88077038  1
  O  O421  1  0.12893303  0.63199922  0.38290582  1
  O  O422  1  0.13025925  0.63389938  0.88058179  1
  O  O423  1  0.62901898  0.14360355  0.37287582  1
  O  O424  1  0.63116524  0.13311090  0.87977788  1
  O  O425  1  0.63289220  0.63455639  0.37286921  1
  O  O426  1  0.62757229  0.63370307  0.88315656  1
