# generated using pymatgen
data_V85Zn86O256
_symmetry_space_group_name_H-M   'P 1'
_cell_length_a   16.94643693
_cell_length_b   16.94370625
_cell_length_c   16.94776976
_cell_angle_alpha   89.93083052
_cell_angle_beta   90.00682674
_cell_angle_gamma   89.95308029
_symmetry_Int_Tables_number   1
_chemical_formula_structural   V85Zn86O256
_chemical_formula_sum   'V85 Zn86 O256'
_cell_volume   4866.30027248
_cell_formula_units_Z   1
loop_
 _symmetry_equiv_pos_site_id
 _symmetry_equiv_pos_as_xyz
  1  'x, y, z'
loop_
 _atom_site_type_symbol
 _atom_site_label
 _atom_site_symmetry_multiplicity
 _atom_site_fract_x
 _atom_site_fract_y
 _atom_site_fract_z
 _atom_site_occupancy
  V  V0  1  0.62287403  0.49968194  0.62933715  1
  V  V1  1  0.37183885  0.62742650  0.74835142  1
  V  V2  1  0.62426063  0.37273353  0.25453609  1
  V  V3  1  0.50202687  0.73403452  0.24681971  1
  V  V4  1  0.37388509  0.37388028  0.00906225  1
  V  V5  1  0.50004442  0.50320529  0.00233436  1
  V  V6  1  0.69231766  0.92732262  0.58671059  1
  V  V7  1  0.74121980  -0.01079839  0.75335249  1
  V  V8  1  0.12113103  0.01643573  0.61813146  1
  V  V9  1  0.49939304  0.37666702  0.87261421  1
  V  V10  1  0.49493637  0.25036514  0.24588607  1
  V  V11  1  0.73647472  0.24310028  0.50315598  1
  V  V12  1  -0.01156670  0.75267276  0.24341269  1
  V  V13  1  0.74704627  0.37020992  0.62600787  1
  V  V14  1  0.87244007  0.37752923  -0.00098138  1
  V  V15  1  0.87644321  0.86496534  0.00027333  1
  V  V16  1  0.25193292  0.87396050  0.12479827  1
  V  V17  1  0.37330601  0.50094060  0.87392044  1
  V  V18  1  -0.00810635  0.62748346  0.12215571  1
  V  V19  1  0.25049158  0.62788354  0.87054317  1
  V  V20  1  0.25042523  0.23586356  0.50514179  1
  V  V21  1  0.25720714  0.12779939  0.86998902  1
  V  V22  1  0.25195311  0.25363250  0.00789576  1
  V  V23  1  0.38225169  0.73497144  0.12541430  1
  V  V24  1  -0.00104741  0.75197647  0.74380227  1
  V  V25  1  0.49821690  0.37586674  0.38349106  1
  V  V26  1  0.00165079  0.49548217  0.00195604  1
  V  V27  1  0.38975605  -0.00017333  0.37365610  1
  V  V28  1  0.74711310  0.36964748  0.12149317  1
  V  V29  1  0.00060155  -0.00065420  -0.00217666  1
  V  V30  1  0.12935984  0.75312593  0.87180475  1
  V  V31  1  0.88951800  0.24774945  0.62505135  1
  V  V32  1  0.88051794  0.87323479  0.51990506  1
  V  V33  1  -0.00268360  0.12692358  0.12383848  1
  V  V34  1  0.88719708  0.12875681  0.74724990  1
  V  V35  1  0.50618691  0.87636485  0.87663020  1
  V  V36  1  0.37334343  0.75203995  0.62332038  1
  V  V37  1  0.75250143  0.12947878  0.87509766  1
  V  V38  1  0.12673066  0.12952461  -0.00320839  1
  V  V39  1  0.24957509  0.88252551  0.61975554  1
  V  V40  1  0.86949985  0.37502653  0.48919359  1
  V  V41  1  0.61837194  0.87590798  0.25039794  1
  V  V42  1  0.12918001  0.23007462  0.37615202  1
  V  V43  1  0.93472194  0.44276087  0.82688303  1
  V  V44  1  0.24797524  0.48556063  0.74519845  1
  V  V45  1  0.62269577  0.75151105  0.37622025  1
  V  V46  1  0.75796222  0.62215925  0.37737921  1
  V  V47  1  0.62996057  0.75232400  0.87321179  1
  V  V48  1  0.13046787  0.48630504  0.62245022  1
  V  V49  1  0.13439618  0.49512383  0.13349586  1
  V  V50  1  -0.01465048  0.87863328  0.37556814  1
  V  V51  1  0.24988262  -0.00109854  0.26192613  1
  V  V52  1  0.12543788  0.88017666  0.74564427  1
  V  V53  1  0.50104083  0.75520079  0.75005565  1
  V  V54  1  0.87534804  0.63065723  0.74945337  1
  V  V55  1  0.24860099  0.74949481  0.49784585  1
  V  V56  1  0.75428705  0.86643375  0.12641911  1
  V  V57  1  0.12760725  -0.00050833  0.12369038  1
  V  V58  1  0.62631899  0.00022622  0.12631794  1
  V  V59  1  0.75444287  0.61690604  0.87581946  1
  V  V60  1  0.49140817  0.23195963  0.75589055  1
  V  V61  1  0.25248090  0.75182520  -0.00361544  1
  V  V62  1  -0.00249426  0.62752381  0.62200347  1
  V  V63  1  0.50334446  0.11460534  0.60987266  1
  V  V64  1  0.00348371  0.37501784  0.36791740  1
  V  V65  1  0.37899782  0.87771010  0.00193637  1
  V  V66  1  -0.00427336  0.01543175  0.49789059  1
  V  V67  1  0.11356951  0.26533008  0.86594564  1
  V  V68  1  0.75447276  0.74763676  0.51562485  1
  V  V69  1  -0.00521302  0.50125142  0.49011960  1
  V  V70  1  0.87738635  -0.00030490  0.87421733  1
  V  V71  1  0.75825305  0.49645564  0.25618294  1
  V  V72  1  0.62261309  0.50407549  0.12738541  1
  V  V73  1  0.12040392  0.75132736  0.37343220  1
  V  V74  1  0.74932835  0.11826655  0.37678572  1
  V  V75  1  0.36885538  0.50624796  0.36833106  1
  V  V76  1  0.37051879  0.12652054  0.24707186  1
  V  V77  1  0.62771746  0.25153351  0.88041868  1
  V  V78  1  0.87201387  0.24897897  0.12206317  1
  V  V79  1  0.12117570  0.87493952  0.24976621  1
  V  V80  1  0.12657338  0.62402904  0.49836598  1
  V  V81  1  0.38005452  0.87549063  0.48608550  1
  V  V82  1  0.62997751  0.12770833  0.00315812  1
  V  V83  1  0.62298313  0.62393845  0.50195510  1
  V  V84  1  0.62215188  0.62626344  0.00247779  1
  Zn  Zn85  1  0.49342923  0.49949898  0.50395781  1
  Zn  Zn86  1  0.75679031  0.74410064  0.00293983  1
  Zn  Zn87  1  0.49745565  0.62414383  0.62656129  1
  Zn  Zn88  1  0.35540945  0.38134209  0.51208558  1
  Zn  Zn89  1  0.50026464  0.00294657  0.00205099  1
  Zn  Zn90  1  0.24627008  0.61296594  0.35170940  1
  Zn  Zn91  1  0.31484072  0.31254753  0.17434490  1
  Zn  Zn92  1  0.75236093  0.49681919  0.75189437  1
  Zn  Zn93  1  0.87496136  0.12149194  0.25524482  1
  Zn  Zn94  1  0.36951253  0.24875258  0.63174578  1
  Zn  Zn95  1  0.87264737  0.62570584  0.24830548  1
  Zn  Zn96  1  0.14691922  0.37285625  0.25108635  1
  Zn  Zn97  1  0.25618155  0.01283866  0.74233199  1
  Zn  Zn98  1  0.12500024  0.62416890  -0.00000517  1
  Zn  Zn99  1  0.49821802  0.12870249  0.12459827  1
  Zn  Zn100  1  0.61818546  0.24239879  0.38326073  1
  Zn  Zn101  1  0.75930412  -0.00327643  0.25251587  1
  Zn  Zn102  1  0.00198340  0.87467824  0.87399293  1
  Zn  Zn103  1  0.37968573  0.00637797  0.87116623  1
  Zn  Zn104  1  0.62453991  0.37296049  0.75180532  1
  Zn  Zn105  1  0.00154884  0.25255285  0.24888413  1
  Zn  Zn106  1  0.51617593  -0.00839064  0.49906741  1
  Zn  Zn107  1  0.18337801  0.18372010  0.19322159  1
  Zn  Zn108  1  0.18468285  0.19646013  0.68950945  1
  Zn  Zn109  1  0.18038336  0.68651028  0.18243193  1
  Zn  Zn110  1  0.18629263  0.68663960  0.68334580  1
  Zn  Zn111  1  0.68782865  0.18863441  0.19278052  1
  Zn  Zn112  1  0.68395618  0.18218845  0.69181228  1
  Zn  Zn113  1  0.68913256  0.68640856  0.18888320  1
  Zn  Zn114  1  0.68569714  0.68623373  0.69201592  1
  Zn  Zn115  1  0.30892905  0.31355207  0.33972138  1
  Zn  Zn116  1  0.31153725  0.31001229  0.82187013  1
  Zn  Zn117  1  0.30028487  0.78376054  0.29748246  1
  Zn  Zn118  1  0.31863981  0.83046359  0.80636346  1
  Zn  Zn119  1  0.80951849  0.30198904  0.31210192  1
  Zn  Zn120  1  0.81018624  0.30575652  0.80668017  1
  Zn  Zn121  1  0.80866820  0.81140088  0.31601903  1
  Zn  Zn122  1  0.81443550  0.81073323  0.81308339  1
  Zn  Zn123  1  0.18783857  0.43223496  0.43473791  1
  Zn  Zn124  1  0.18861937  0.43860059  0.94098272  1
  Zn  Zn125  1  0.18081648  0.93948402  0.43769708  1
  Zn  Zn126  1  0.19033648  0.94071678  0.93543808  1
  Zn  Zn127  1  0.68438942  0.43733070  0.43987127  1
  Zn  Zn128  1  0.68828050  0.43809976  0.93917181  1
  Zn  Zn129  1  0.69657530  0.93118461  0.42397870  1
  Zn  Zn130  1  0.68988132  0.93802260  0.94073114  1
  Zn  Zn131  1  0.31300688  0.06236753  0.06430602  1
  Zn  Zn132  1  0.32003647  0.06881607  0.56047644  1
  Zn  Zn133  1  0.31009289  0.56325684  0.05910191  1
  Zn  Zn134  1  0.31191279  0.56304267  0.55881447  1
  Zn  Zn135  1  0.81030553  0.05786720  0.06222072  1
  Zn  Zn136  1  0.81875307  0.06810157  0.56065979  1
  Zn  Zn137  1  0.81163681  0.55740534  0.06296093  1
  Zn  Zn138  1  0.81129658  0.56018432  0.56536341  1
  Zn  Zn139  1  0.44207018  0.44577868  0.19341763  1
  Zn  Zn140  1  0.43485844  0.43460416  0.68670958  1
  Zn  Zn141  1  0.43963768  0.93513647  0.18801227  1
  Zn  Zn142  1  0.43556686  0.94016950  0.68764664  1
  Zn  Zn143  1  0.93790306  0.43882141  0.18356037  1
  Zn  Zn144  1  0.93892011  0.43712583  0.66359678  1
  Zn  Zn145  1  0.93407431  0.94027239  0.18413590  1
  Zn  Zn146  1  0.94142168  0.94647157  0.68862725  1
  Zn  Zn147  1  0.05284186  0.05725600  0.30856205  1
  Zn  Zn148  1  0.06841506  0.06572925  0.81262555  1
  Zn  Zn149  1  0.06022442  0.56467056  0.30952485  1
  Zn  Zn150  1  0.07101779  0.56588394  0.80624369  1
  Zn  Zn151  1  0.56640620  0.06560904  0.31241166  1
  Zn  Zn152  1  0.56712007  0.05998548  0.81606103  1
  Zn  Zn153  1  0.56515662  0.55890970  0.31794463  1
  Zn  Zn154  1  0.56242071  0.56602297  0.81268289  1
  Zn  Zn155  1  0.43428386  0.18314103  0.43515969  1
  Zn  Zn156  1  0.43904064  0.18989600  0.94395665  1
  Zn  Zn157  1  0.43839557  0.68735610  0.43286240  1
  Zn  Zn158  1  0.43902833  0.68904131  0.93743061  1
  Zn  Zn159  1  0.93115032  0.19592554  0.43530591  1
  Zn  Zn160  1  0.93703887  0.19172131  0.93871342  1
  Zn  Zn161  1  0.93492689  0.69227711  0.43689689  1
  Zn  Zn162  1  0.94224433  0.68397987  0.93054260  1
  Zn  Zn163  1  0.06348396  0.31528756  0.06087554  1
  Zn  Zn164  1  0.06591751  0.31021754  0.54920655  1
  Zn  Zn165  1  0.06210593  0.81118686  0.06097102  1
  Zn  Zn166  1  0.06206697  0.81572380  0.56273106  1
  Zn  Zn167  1  0.56107739  0.31346266  0.06260098  1
  Zn  Zn168  1  0.55044318  0.31240558  0.57436924  1
  Zn  Zn169  1  0.56466806  0.81054416  0.06393295  1
  Zn  Zn170  1  0.55772749  0.80794084  0.56112671  1
  O  O171  1  0.11759558  0.12164762  0.11418333  1
  O  O172  1  0.12684765  0.11391747  0.63056926  1
  O  O173  1  0.11211795  0.61762155  0.12164265  1
  O  O174  1  0.11908334  0.62027224  0.61129845  1
  O  O175  1  0.62878253  0.11891244  0.11911767  1
  O  O176  1  0.60100526  0.12328133  0.63900514  1
  O  O177  1  0.63496403  0.61591733  0.11467485  1
  O  O178  1  0.62480306  0.61837161  0.61870074  1
  O  O179  1  0.38539921  0.38715373  0.38432419  1
  O  O180  1  0.38250574  0.38220392  0.88512107  1
  O  O181  1  0.36849773  0.87750067  0.38405270  1
  O  O182  1  0.38680493  0.86836082  0.89164738  1
  O  O183  1  0.87730127  0.36546144  0.38549647  1
  O  O184  1  0.87041798  0.37736398  0.87895637  1
  O  O185  1  0.88283570  0.87172155  0.38430937  1
  O  O186  1  0.87828798  0.88393059  0.88041908  1
  O  O187  1  0.25388152  -0.00846141  0.36397459  1
  O  O188  1  0.24778621  0.01948157  0.87516126  1
  O  O189  1  0.26181338  0.50161536  0.37717134  1
  O  O190  1  0.25250819  0.50775617  0.86666219  1
  O  O191  1  0.75369404  0.01325239  0.37567941  1
  O  O192  1  0.75777617  0.00511710  0.86838201  1
  O  O193  1  0.74178297  0.50820363  0.36753667  1
  O  O194  1  0.74487531  0.51235535  0.87127731  1
  O  O195  1  0.23266424  0.50771596  0.12069306  1
  O  O196  1  0.23838127  0.50193781  0.62878942  1
  O  O197  1  0.24448975  0.99167669  0.13083750  1
  O  O198  1  0.24119788  0.99723654  0.62188827  1
  O  O199  1  0.74072339  0.48987242  0.13320725  1
  O  O200  1  0.74281243  0.48837496  0.62736674  1
  O  O201  1  0.73986474  0.98860209  0.12435422  1
  O  O202  1  0.75104782  1.00005424  0.63648564  1
  O  O203  1  -0.00721542  0.37639108  0.26250557  1
  O  O204  1  -0.01395744  0.38993627  0.76176128  1
  O  O205  1  0.00005826  0.87204585  0.25579480  1
  O  O206  1  0.01107229  0.87075547  0.74813995  1
  O  O207  1  0.50609881  0.37119593  0.26055631  1
  O  O208  1  0.50244362  0.37268204  0.76533040  1
  O  O209  1  0.51583575  0.86622290  0.24452325  1
  O  O210  1  0.49664307  0.86218171  0.75966851  1
  O  O211  1  0.49525211  0.13456973  0.24887156  1
  O  O212  1  0.49263261  0.13217188  0.76621704  1
  O  O213  1  0.51010083  0.63519768  0.24910995  1
  O  O214  1  0.48989865  0.63751190  0.75334553  1
  O  O215  1  0.99825819  0.12628715  0.23326936  1
  O  O216  1  0.98625896  0.11935749  0.75488642  1
  O  O217  1  0.99480921  0.63407747  0.24225279  1
  O  O218  1  0.99569274  0.63314891  0.74513176  1
  O  O219  1  0.36712202  0.26141203  -0.00119434  1
  O  O220  1  0.35897306  0.24679785  0.49330766  1
  O  O221  1  0.37422768  0.75600672  0.00783752  1
  O  O222  1  0.36706616  0.75557953  0.50154933  1
  O  O223  1  0.87898865  0.26477429  0.00975994  1
  O  O224  1  0.86224532  0.25779584  0.50876212  1
  O  O225  1  0.87788278  0.76168743  -0.01014641  1
  O  O226  1  0.86509506  0.76041491  0.49802410  1
  O  O227  1  0.13140734  0.24493161  0.48531644  1
  O  O228  1  0.13195248  0.24471825  0.99655910  1
  O  O229  1  0.12798267  0.74282619  0.49679187  1
  O  O230  1  0.13151724  0.75124144  0.98806104  1
  O  O231  1  0.63438064  0.25526903  0.50670231  1
  O  O232  1  0.62125784  0.24397768  0.98972829  1
  O  O233  1  0.63185153  0.74498612  0.49368664  1
  O  O234  1  0.62785804  0.74134637  0.99115405  1
  O  O235  1  0.50336598  0.25235141  0.14078656  1
  O  O236  1  0.50306582  0.23667715  0.64622486  1
  O  O237  1  0.49730694  0.74816342  0.13498957  1
  O  O238  1  0.49316566  0.74685250  0.63499129  1
  O  O239  1  0.99312742  0.24316015  0.12343696  1
  O  O240  1  0.98815567  0.25871819  0.61614764  1
  O  O241  1  1.00224450  0.74184599  0.13135537  1
  O  O242  1  1.00746515  0.74352325  0.63590710  1
  O  O243  1  0.00843179  0.25809254  0.37494823  1
  O  O244  1  0.01459969  0.25049663  0.88197194  1
  O  O245  1  0.00288280  0.75816706  0.36781020  1
  O  O246  1  0.01080549  0.75226305  0.86207145  1
  O  O247  1  0.50026953  0.25709272  0.36666761  1
  O  O248  1  0.50504484  0.25680530  0.87153363  1
  O  O249  1  0.51072446  0.74514299  0.36201305  1
  O  O250  1  0.50792310  0.75775208  0.87108482  1
  O  O251  1  0.24851276  0.13467182  0.49898322  1
  O  O252  1  0.24307246  0.13106050  0.99575735  1
  O  O253  1  0.24047574  0.63549743  0.49832020  1
  O  O254  1  0.24847709  0.63377618  0.98802654  1
  O  O255  1  0.75163087  0.13176383  0.49225037  1
  O  O256  1  0.74021569  0.11916611  0.98859412  1
  O  O257  1  0.74285886  0.62860510  0.49615429  1
  O  O258  1  0.74522864  0.62447882  0.99307786  1
  O  O259  1  0.26137930  0.36748465  -0.00144289  1
  O  O260  1  0.24714194  0.35186282  0.48691720  1
  O  O261  1  0.25917542  0.87184458  0.00280843  1
  O  O262  1  0.25140838  0.87250872  0.50844095  1
  O  O263  1  0.75753227  0.38114383  0.01070336  1
  O  O264  1  0.75340712  0.36975452  0.50761921  1
  O  O265  1  0.75957080  0.87126706  0.00609251  1
  O  O266  1  0.75531211  0.87159164  0.51435830  1
  O  O267  1  0.12326054  0.50087988  0.23748518  1
  O  O268  1  0.13271019  0.50420098  0.73145189  1
  O  O269  1  0.13090157  0.99433090  0.24474266  1
  O  O270  1  0.12820554  0.99492961  0.73837001  1
  O  O271  1  0.63054497  0.49044781  0.24472733  1
  O  O272  1  0.62647455  0.50139154  0.73955617  1
  O  O273  1  0.63080808  0.99174972  0.24461210  1
  O  O274  1  0.64185442  0.99848005  0.75616445  1
  O  O275  1  0.36931965  -0.00089193  0.25733006  1
  O  O276  1  0.35938725  -0.03120337  0.76429876  1
  O  O277  1  0.38074707  0.50279472  0.26858067  1
  O  O278  1  0.36842277  0.50667682  0.75372202  1
  O  O279  1  0.87233468  0.00785630  0.24465082  1
  O  O280  1  0.87038618  0.00576710  0.76040232  1
  O  O281  1  0.86075660  0.49985119  0.24640462  1
  O  O282  1  0.87995843  0.50167221  0.75691173  1
  O  O283  1  0.11486693  0.36958877  0.36947118  1
  O  O284  1  0.12785748  0.36416015  0.88030165  1
  O  O285  1  0.11111096  0.87117855  0.36938718  1
  O  O286  1  0.12721722  0.87260195  0.86312460  1
  O  O287  1  0.61869571  0.37480919  0.36703206  1
  O  O288  1  0.61908345  0.36833291  0.87692593  1
  O  O289  1  0.63179344  0.86062350  0.36550508  1
  O  O290  1  0.61871364  0.86523129  0.88287990  1
  O  O291  1  0.38093720  0.11527841  0.14055863  1
  O  O292  1  0.39424847  0.13057773  0.62448319  1
  O  O293  1  0.37493609  0.63587119  0.11928805  1
  O  O294  1  0.37347422  0.63416533  0.63014437  1
  O  O295  1  0.88104454  0.13352829  0.11552039  1
  O  O296  1  0.87268507  0.13604485  0.63426522  1
  O  O297  1  0.88662992  0.62010939  0.12532810  1
  O  O298  1  0.88263387  0.61485939  0.63966583  1
  O  O299  1  0.24668988  0.24240140  0.11282611  1
  O  O300  1  0.25064681  0.24580364  0.61199849  1
  O  O301  1  0.25793521  0.75668497  0.11368833  1
  O  O302  1  0.25059342  0.75855018  0.61332539  1
  O  O303  1  0.75487114  0.26164924  0.12836201  1
  O  O304  1  0.74991408  0.25523691  0.62220864  1
  O  O305  1  0.74681729  0.76151485  0.12210133  1
  O  O306  1  0.75164970  0.73876086  0.61469627  1
  O  O307  1  0.23455593  0.23648422  0.38008819  1
  O  O308  1  0.24263696  0.24126895  0.88684957  1
  O  O309  1  0.23669286  0.76581546  0.39305631  1
  O  O310  1  0.24811412  0.75020437  0.87551181  1
  O  O311  1  0.74175511  0.24507939  0.38717274  1
  O  O312  1  0.74175262  0.24033392  0.87238565  1
  O  O313  1  0.74176433  0.74160284  0.38416430  1
  O  O314  1  0.74391901  0.73959615  0.87534464  1
  O  O315  1  0.00666358  0.12108989  0.00652635  1
  O  O316  1  -0.01051577  0.11346394  0.49422394  1
  O  O317  1  0.00008800  0.61507767  0.00380329  1
  O  O318  1  0.00369885  0.61957408  0.49965525  1
  O  O319  1  0.51331175  0.12431322  0.00381313  1
  O  O320  1  0.50557561  0.11778106  0.50518389  1
  O  O321  1  0.51375442  0.61875269  -0.00686851  1
  O  O322  1  0.51433156  0.62819036  0.50147270  1
  O  O323  1  0.51087775  0.37508666  0.48720873  1
  O  O324  1  0.49581433  0.38113131  0.99082643  1
  O  O325  1  0.48688345  0.87536161  0.50359565  1
  O  O326  1  0.49586866  0.87541733  0.99498178  1
  O  O327  1  0.99127059  0.38209718  0.48819119  1
  O  O328  1  0.99205223  0.38796621  1.00318689  1
  O  O329  1  0.99337631  0.87784154  0.49316917  1
  O  O330  1  0.99392657  0.88177309  0.99764451  1
  O  O331  1  0.49488351  0.49315368  0.38044501  1
  O  O332  1  0.49602401  0.49439241  0.88012684  1
  O  O333  1  0.49367928  0.99756171  0.37648085  1
  O  O334  1  0.50108884  0.98733992  0.87753722  1
  O  O335  1  1.00378681  0.49518251  0.38422851  1
  O  O336  1  1.00190851  0.50303682  0.87970089  1
  O  O337  1  1.00311324  0.99213170  0.38946734  1
  O  O338  1  0.99432969  0.99939859  0.87947507  1
  O  O339  1  0.00745472  0.00706121  0.11640788  1
  O  O340  1  0.01202656  0.00072416  0.61310273  1
  O  O341  1  0.00607639  0.50721467  0.11765262  1
  O  O342  1  0.01183099  0.50719870  0.61067821  1
  O  O343  1  0.51555661  0.00005929  0.12566590  1
  O  O344  1  0.49625208  0.00889778  0.61997463  1
  O  O345  1  0.51541664  0.49743594  0.12029550  1
  O  O346  1  0.50872052  0.50479904  0.62458381  1
  O  O347  1  0.25960206  0.36712310  0.25316325  1
  O  O348  1  0.25731210  0.38699213  0.75486530  1
  O  O349  1  0.24267766  0.87727824  0.24224071  1
  O  O350  1  0.23609362  0.86964957  0.73334675  1
  O  O351  1  0.74263512  0.37831864  0.24653526  1
  O  O352  1  0.74704920  0.37601374  0.73933693  1
  O  O353  1  0.74170896  0.87334085  0.24319132  1
  O  O354  1  0.75703522  0.88996727  0.75311459  1
  O  O355  1  0.25698266  0.11002556  0.24404885  1
  O  O356  1  0.24837729  0.13014514  0.76616667  1
  O  O357  1  0.25413694  0.67918736  0.26339113  1
  O  O358  1  0.25483622  0.62106688  0.75332469  1
  O  O359  1  0.75083152  0.12488434  0.26290255  1
  O  O360  1  0.75698214  0.11605488  0.76102526  1
  O  O361  1  0.75001233  0.61611324  0.25889398  1
  O  O362  1  0.75972057  0.62158603  0.75577746  1
  O  O363  1  0.37933822  0.11132666  0.35994453  1
  O  O364  1  0.36044970  0.12598358  0.88470203  1
  O  O365  1  0.37198791  0.61069889  0.38178920  1
  O  O366  1  0.36900704  0.62109482  0.86955190  1
  O  O367  1  0.85561477  0.13916718  0.37217351  1
  O  O368  1  0.86878654  0.12098192  0.87319486  1
  O  O369  1  0.86138194  0.62750845  0.37466208  1
  O  O370  1  0.86864543  0.62633073  0.86220288  1
  O  O371  1  0.11950031  0.39013290  0.13034568  1
  O  O372  1  0.11840140  0.38851607  0.61759018  1
  O  O373  1  0.12958505  0.88009504  0.12901495  1
  O  O374  1  0.13070819  0.88550037  0.62775490  1
  O  O375  1  0.63112720  0.38038000  0.13110352  1
  O  O376  1  0.62942574  0.38185832  0.62893736  1
  O  O377  1  0.63306442  0.88052810  0.12966109  1
  O  O378  1  0.63296416  0.86270102  0.63325752  1
  O  O379  1  0.12119763  0.25170367  0.26122021  1
  O  O380  1  0.12528408  0.25223967  0.76656876  1
  O  O381  1  0.10756064  0.75919702  0.25257475  1
  O  O382  1  0.12047159  0.75760464  0.75249226  1
  O  O383  1  0.61842008  0.26217072  0.25253290  1
  O  O384  1  0.61374195  0.24916415  0.76575996  1
  O  O385  1  0.61906029  0.75313260  0.25525329  1
  O  O386  1  0.61609671  0.74208964  0.76481134  1
  O  O387  1  0.37894430  0.24187541  0.25296087  1
  O  O388  1  0.38981805  0.25402678  0.75701707  1
  O  O389  1  0.39689137  0.75833574  0.23970463  1
  O  O390  1  0.37980264  0.74899019  0.74370512  1
  O  O391  1  0.87811709  0.24678395  0.23409533  1
  O  O392  1  0.87356778  0.24131184  0.73836959  1
  O  O393  1  0.88456963  0.75036772  0.25334278  1
  O  O394  1  0.88636765  0.74312717  0.75256690  1
  O  O395  1  0.37668134  0.49707399  0.49398912  1
  O  O396  1  0.37990081  0.49623096  0.99359117  1
  O  O397  1  0.37323755  0.99245926  0.48695263  1
  O  O398  1  0.37885666  0.99126256  0.99730160  1
  O  O399  1  0.88381269  0.48936734  0.50624662  1
  O  O400  1  0.88251409  0.48766179  1.00211370  1
  O  O401  1  0.88916962  0.99143278  0.50810542  1
  O  O402  1  0.87858850  0.99386996  0.98830180  1
  O  O403  1  0.12157941  0.00870867  0.00320863  1
  O  O404  1  0.11234592  -0.00015331  0.50986523  1
  O  O405  1  0.11709755  0.50170964  0.00841610  1
  O  O406  1  0.12130867  0.50621557  0.50432555  1
  O  O407  1  0.62483067  0.00856010  0.00799918  1
  O  O408  1  0.63542743  -0.02472211  0.51458003  1
  O  O409  1  0.62163681  0.50671067  0.00803375  1
  O  O410  1  0.62470304  0.50846230  0.51210863  1
  O  O411  1  0.38512348  0.38217082  0.11359159  1
  O  O412  1  0.39884052  0.35942129  0.61437842  1
  O  O413  1  0.37350383  0.86912527  0.11535469  1
  O  O414  1  0.36461148  0.87037973  0.61512424  1
  O  O415  1  0.86712873  0.37012019  0.11843711  1
  O  O416  1  0.86427426  0.36739013  0.61444941  1
  O  O417  1  0.86698014  0.87871579  0.11210284  1
  O  O418  1  0.88542629  0.87335045  0.61937199  1
  O  O419  1  0.11487964  0.13278433  0.36936952  1
  O  O420  1  0.13254496  0.13157880  0.88578081  1
  O  O421  1  0.12577721  0.63024965  0.38371287  1
  O  O422  1  0.13413012  0.63475207  0.87375129  1
  O  O423  1  0.64015942  0.12725720  0.37437678  1
  O  O424  1  0.63252073  0.13095905  0.88314990  1
  O  O425  1  0.63382090  0.63120905  0.38376394  1
  O  O426  1  0.63327735  0.63072596  0.88263931  1
