# generated using pymatgen
data_V85Zn86O256
_symmetry_space_group_name_H-M   'P 1'
_cell_length_a   16.95157963
_cell_length_b   16.94228503
_cell_length_c   16.92960809
_cell_angle_alpha   90.00859838
_cell_angle_beta   90.01639104
_cell_angle_gamma   90.01549411
_symmetry_Int_Tables_number   1
_chemical_formula_structural   V85Zn86O256
_chemical_formula_sum   'V85 Zn86 O256'
_cell_volume   4862.15750986
_cell_formula_units_Z   1
loop_
 _symmetry_equiv_pos_site_id
 _symmetry_equiv_pos_as_xyz
  1  'x, y, z'
loop_
 _atom_site_type_symbol
 _atom_site_label
 _atom_site_symmetry_multiplicity
 _atom_site_fract_x
 _atom_site_fract_y
 _atom_site_fract_z
 _atom_site_occupancy
  V  V0  1  0.12415142  0.61968661  0.00651655  1
  V  V1  1  0.24750989  0.75142761  -0.00232335  1
  V  V2  1  0.37549329  0.74990344  0.12393383  1
  V  V3  1  0.74223022  0.87858289  0.62311159  1
  V  V4  1  0.62587897  0.25042794  0.87478241  1
  V  V5  1  -0.00107413  0.62983912  0.63373559  1
  V  V6  1  0.12344269  0.37502544  0.24379997  1
  V  V7  1  0.12333215  0.13044585  0.50048901  1
  V  V8  1  0.37407549  0.12326253  0.75083103  1
  V  V9  1  0.76600323  0.37853254  0.62124945  1
  V  V10  1  0.12424503  0.87575660  0.24902758  1
  V  V11  1  0.75446994  0.74892462  0.50049262  1
  V  V12  1  0.75218394  0.12794279  0.87279341  1
  V  V13  1  0.24397169  0.00129354  0.75697471  1
  V  V14  1  0.75525459  0.00018812  0.25081269  1
  V  V15  1  0.62850127  0.75330847  0.37332651  1
  V  V16  1  0.24751267  0.38520144  0.11919821  1
  V  V17  1  0.87823098  0.87489650  0.50349205  1
  V  V18  1  0.87426189  0.87512335  0.00147005  1
  V  V19  1  0.74577799  0.74691034  0.00059293  1
  V  V20  1  -0.00478647  0.36758765  0.36842652  1
  V  V21  1  0.37148557  0.37569732  0.50340922  1
  V  V22  1  0.24868771  0.48429528  0.74161816  1
  V  V23  1  0.50916193  0.61728143  0.11982894  1
  V  V24  1  -0.00124330  0.14548881  0.12495373  1
  V  V25  1  0.50452843  0.11432725  0.62603637  1
  V  V26  1  0.87959735  0.75228906  0.64070198  1
  V  V27  1  0.62608527  0.25324427  0.37620025  1
  V  V28  1  0.62371882  0.12610547  0.00855441  1
  V  V29  1  0.37276297  0.74855586  0.62568061  1
  V  V30  1  0.50300424  0.87506825  0.37226523  1
  V  V31  1  0.50393303  0.62369694  0.63392162  1
  V  V32  1  0.50064981  0.87477086  0.87515976  1
  V  V33  1  0.50059715  0.50023908  0.50630279  1
  V  V34  1  0.74842678  0.39508398  0.12762092  1
  V  V35  1  0.36263035  0.50360110  0.37678288  1
  V  V36  1  0.74882908  0.50561214  0.74510405  1
  V  V37  1  0.86597147  0.62280186  0.24729325  1
  V  V38  1  0.62572574  0.39133675  0.24604135  1
  V  V39  1  0.11809443  0.74829230  0.86981924  1
  V  V40  1  0.86804299  0.49991617  0.37042063  1
  V  V41  1  0.76019140  0.25421576  0.50437224  1
  V  V42  1  0.62452859  0.74869098  0.87518058  1
  V  V43  1  0.25439324  0.24899455  0.50098036  1
  V  V44  1  -0.00018463  0.74706768  0.24776019  1
  V  V45  1  0.50288400  0.24696723  0.24512526  1
  V  V46  1  0.24651036  0.62250741  0.86955487  1
  V  V47  1  0.37522809  0.25156106  0.62603997  1
  V  V48  1  0.00001431  0.87682991  0.87219859  1
  V  V49  1  0.24880197  0.87688561  0.12231452  1
  V  V50  1  0.12733091  0.00361745  0.62329308  1
  V  V51  1  0.25138826  0.12737625  0.37183068  1
  V  V52  1  0.37413982  0.49726283  0.87775347  1
  V  V53  1  0.75943324  0.62878463  0.86995856  1
  V  V54  1  0.87155770  0.00157212  0.87017319  1
  V  V55  1  0.75286767  0.24936060  0.01262184  1
  V  V56  1  0.00016203  0.49940874  0.00553834  1
  V  V57  1  0.12520404  0.61729865  0.49084401  1
  V  V58  1  0.87642336  0.37209287  0.00092189  1
  V  V59  1  0.00126283  0.87431918  0.37474784  1
  V  V60  1  0.73952062  0.00293794  0.74624675  1
  V  V61  1  0.62654108  0.62164313  0.50484078  1
  V  V62  1  0.50056131  0.00284232  0.00554926  1
  V  V63  1  0.62104984  0.00053082  0.13443926  1
  V  V64  1  0.62531187  0.37616923  0.73944638  1
  V  V65  1  0.87905341  0.14119585  0.24797168  1
  V  V66  1  0.24712067  0.22686569  -0.00193226  1
  V  V67  1  0.37795289  0.00043427  0.37768604  1
  V  V68  1  0.36895079  0.62441817  0.25276168  1
  V  V69  1  0.37427192  0.00339556  0.87651562  1
  V  V70  1  0.11862837  0.87222951  0.74683928  1
  V  V71  1  0.00053133  0.00762357  0.00109560  1
  V  V72  1  0.00053944  0.00408813  0.50056740  1
  V  V73  1  0.62780861  0.12233645  0.50429737  1
  V  V74  1  -0.07030902  0.18014435  0.69139329  1
  V  V75  1  0.50467680  0.75136024  0.24790214  1
  V  V76  1  0.12218223  0.00936481  0.12376024  1
  V  V77  1  0.74546496  0.87470804  0.13038434  1
  V  V78  1  0.24903908  0.74665325  0.49137122  1
  V  V79  1  -0.00965825  0.49590009  0.49788818  1
  V  V80  1  0.37772893  0.24604427  0.12517346  1
  V  V81  1  0.49883907  0.37818429  0.37508579  1
  V  V82  1  0.50016461  0.37383094  0.87510315  1
  V  V83  1  0.87939894  0.49914922  0.86896058  1
  V  V84  1  0.24983002  0.00171846  0.25029561  1
  Zn  Zn85  1  0.12701042  0.23244665  0.86549774  1
  Zn  Zn86  1  0.51227220  0.49626163  0.00827855  1
  Zn  Zn87  1  0.24999728  0.87219731  0.62352160  1
  Zn  Zn88  1  0.00853695  0.34962661  0.85101402  1
  Zn  Zn89  1  0.87650107  0.00342878  0.37321930  1
  Zn  Zn90  1  0.75337069  0.12802777  0.37507169  1
  Zn  Zn91  1  0.38259871  0.12478261  0.24908990  1
  Zn  Zn92  1  0.74574423  0.61987894  0.37156804  1
  Zn  Zn93  1  0.37243519  0.87526474  -0.00059145  1
  Zn  Zn94  1  0.37451248  0.87336261  0.50020215  1
  Zn  Zn95  1  0.50161311  0.24769439  0.74941117  1
  Zn  Zn96  1  0.37472757  0.62504817  0.75155848  1
  Zn  Zn97  1  0.87589064  0.74932049  0.12433985  1
  Zn  Zn98  1  0.37517970  0.37116557  -0.00064208  1
  Zn  Zn99  1  0.11720639  0.24680621  0.36790164  1
  Zn  Zn100  1  0.49921696  0.75017960  0.75052102  1
  Zn  Zn101  1  0.61984668  0.87696151  0.74350096  1
  Zn  Zn102  1  0.24160606  0.50540994  0.25062492  1
  Zn  Zn103  1  0.50785528  -0.00519009  0.50299687  1
  Zn  Zn104  1  0.12996772  0.74460058  0.37074604  1
  Zn  Zn105  1  0.00210123  0.62041523  0.12875271  1
  Zn  Zn106  1  0.12026187  0.49393891  0.63344775  1
  Zn  Zn107  1  0.18722091  0.19458316  0.18454936  1
  Zn  Zn108  1  0.18899687  0.18331175  0.69071321  1
  Zn  Zn109  1  0.18790801  0.68838257  0.18664909  1
  Zn  Zn110  1  0.18402608  0.68434115  0.68353585  1
  Zn  Zn111  1  0.68806945  0.18880135  0.19099682  1
  Zn  Zn112  1  0.69323853  0.19099195  0.68659901  1
  Zn  Zn113  1  0.68594627  0.68739550  0.18655877  1
  Zn  Zn114  1  0.68699357  0.69153470  0.68942236  1
  Zn  Zn115  1  0.31119393  0.31672883  0.31035286  1
  Zn  Zn116  1  0.30717568  0.30681026  0.81407892  1
  Zn  Zn117  1  0.31512310  0.81359513  0.31163526  1
  Zn  Zn118  1  0.31013434  0.81370621  0.81070400  1
  Zn  Zn119  1  0.80842497  0.31872070  0.31163815  1
  Zn  Zn120  1  0.81517942  0.31273062  0.81178697  1
  Zn  Zn121  1  0.81551075  0.81261188  0.31252338  1
  Zn  Zn122  1  0.80951537  0.81932296  0.81134745  1
  Zn  Zn123  1  0.14096661  0.38933319  0.49056726  1
  Zn  Zn124  1  0.18236172  0.43043946  0.93181741  1
  Zn  Zn125  1  0.18891002  0.93547046  0.43803965  1
  Zn  Zn126  1  0.18341717  0.94749901  0.93646975  1
  Zn  Zn127  1  0.68627803  0.43847485  0.43964472  1
  Zn  Zn128  1  0.69024666  0.43662099  0.93910932  1
  Zn  Zn129  1  0.68926587  0.93728878  0.43550746  1
  Zn  Zn130  1  0.68548102  0.93679234  0.94013653  1
  Zn  Zn131  1  0.32024371  0.06179969  0.06980441  1
  Zn  Zn132  1  0.31342931  0.06138010  0.56366479  1
  Zn  Zn133  1  0.31724538  0.56403253  0.05899646  1
  Zn  Zn134  1  0.31176903  0.56555654  0.56211354  1
  Zn  Zn135  1  0.81522262  0.06517160  0.06600370  1
  Zn  Zn136  1  0.81302214  0.06393912  0.56428552  1
  Zn  Zn137  1  0.81646265  0.56601450  0.05888612  1
  Zn  Zn138  1  0.81492619  0.56564110  0.56541529  1
  Zn  Zn139  1  0.43371071  0.43571682  0.18891000  1
  Zn  Zn140  1  0.43517428  0.43760621  0.69103538  1
  Zn  Zn141  1  0.43699119  0.93544739  0.19060745  1
  Zn  Zn142  1  0.43526563  0.93532112  0.68819250  1
  Zn  Zn143  1  0.93485516  0.43507657  0.18680655  1
  Zn  Zn144  1  0.93702484  0.44196542  0.68667118  1
  Zn  Zn145  1  0.93590165  0.93939129  0.18679880  1
  Zn  Zn146  1  0.93943534  0.95763669  0.68996187  1
  Zn  Zn147  1  0.06017773  0.06560971  0.31066534  1
  Zn  Zn148  1  0.04986534  0.09393173  0.81026302  1
  Zn  Zn149  1  0.06076874  0.55715826  0.31202180  1
  Zn  Zn150  1  0.06271132  0.55172502  0.81255363  1
  Zn  Zn151  1  0.56632374  0.06587068  0.31605622  1
  Zn  Zn152  1  0.56320754  0.06346947  0.81607299  1
  Zn  Zn153  1  0.55412265  0.56776299  0.31723348  1
  Zn  Zn154  1  0.58551460  0.54496736  0.85141023  1
  Zn  Zn155  1  0.44173881  0.18617993  0.43732418  1
  Zn  Zn156  1  0.43743163  0.18663205  0.93989159  1
  Zn  Zn157  1  0.43787132  0.68613130  0.43874067  1
  Zn  Zn158  1  0.43520091  0.68598140  0.93874429  1
  Zn  Zn159  1  0.93477385  0.18576432  0.44182871  1
  Zn  Zn160  1  0.93703638  0.19021791  0.93549797  1
  Zn  Zn161  1  0.93828124  0.68578718  0.43602774  1
  Zn  Zn162  1  0.93857206  0.68773901  0.93649176  1
  Zn  Zn163  1  0.07867693  0.31988860  0.03128972  1
  Zn  Zn164  1  0.07804028  0.32214741  0.68471444  1
  Zn  Zn165  1  0.06327146  0.81470971  0.06122066  1
  Zn  Zn166  1  0.06486513  0.80928716  0.56173739  1
  Zn  Zn167  1  0.56511196  0.31569985  0.06348063  1
  Zn  Zn168  1  0.56001493  0.30785435  0.56302387  1
  Zn  Zn169  1  0.56399631  0.81433936  0.06191531  1
  Zn  Zn170  1  0.56082093  0.80776455  0.55812825  1
  O  O171  1  0.11542569  0.11395346  0.13721794  1
  O  O172  1  0.13310066  0.11184955  0.61512722  1
  O  O173  1  0.12502392  0.62846328  0.11050170  1
  O  O174  1  0.11293050  0.62069277  0.61461987  1
  O  O175  1  0.62955596  0.11822980  0.11555599  1
  O  O176  1  0.61727537  0.13274843  0.61681585  1
  O  O177  1  0.60769464  0.62762007  0.12926137  1
  O  O178  1  0.61749151  0.63245919  0.61539874  1
  O  O179  1  0.38102898  0.38201485  0.38223053  1
  O  O180  1  0.38336084  0.37855962  0.87451429  1
  O  O181  1  0.38347446  0.88317969  0.37600498  1
  O  O182  1  0.38221328  0.88467898  0.87630182  1
  O  O183  1  0.88489641  0.38516424  0.36497773  1
  O  O184  1  0.87542521  0.38301361  0.88253390  1
  O  O185  1  0.88772942  0.87759724  0.38095966  1
  O  O186  1  0.87817928  0.88115339  0.88319239  1
  O  O187  1  0.25744101  0.00771777  0.37164103  1
  O  O188  1  0.26031850  -0.00651601  0.86480921  1
  O  O189  1  0.26420652  0.49826543  0.37328627  1
  O  O190  1  0.25341124  0.50289241  0.86917918  1
  O  O191  1  0.75105966  0.00151614  0.36121773  1
  O  O192  1  0.75162706  0.00634284  0.87195194  1
  O  O193  1  0.76311684  0.49972383  0.38036101  1
  O  O194  1  0.76113344  0.51057241  0.86887341  1
  O  O195  1  0.25866289  0.48806186  0.12644020  1
  O  O196  1  0.25319646  0.50504419  0.64008549  1
  O  O197  1  0.24279943  0.99774217  0.12992385  1
  O  O198  1  0.24490550  0.99502175  0.63231047  1
  O  O199  1  0.74605843  0.49330573  0.11645148  1
  O  O200  1  0.75292422  0.48975503  0.63012647  1
  O  O201  1  0.74445705  0.99515186  0.13341541  1
  O  O202  1  0.75544875  0.99230248  0.63414272  1
  O  O203  1  0.00578122  0.37884197  0.26012290  1
  O  O204  1  0.01421471  0.39638689  0.75003252  1
  O  O205  1  0.00256305  0.87024306  0.25646634  1
  O  O206  1  0.01176495  0.88717814  0.75574129  1
  O  O207  1  0.50748547  0.36871237  0.25498542  1
  O  O208  1  0.50742877  0.37222091  0.75779193  1
  O  O209  1  0.49739144  0.86568900  0.26211974  1
  O  O210  1  0.50060961  0.87592475  0.76358568  1
  O  O211  1  0.50348497  0.14282594  0.25663147  1
  O  O212  1  0.49280009  0.12341056  0.74422623  1
  O  O213  1  0.49055677  0.63279245  0.24127207  1
  O  O214  1  0.50148237  0.62243772  0.73736829  1
  O  O215  1  0.98788660  0.12655428  0.24222150  1
  O  O216  1  0.97136840  0.09250934  0.73577682  1
  O  O217  1  0.99583723  0.63302650  0.24864045  1
  O  O218  1  1.00607976  0.61682903  0.73215448  1
  O  O219  1  0.37240956  0.25049808  0.00971132  1
  O  O220  1  0.37297936  0.25230722  0.50591241  1
  O  O221  1  0.36598361  0.75285938  0.00491369  1
  O  O222  1  0.36659407  0.74730619  0.50630154  1
  O  O223  1  0.86445708  0.26029230  -0.00520833  1
  O  O224  1  0.85826083  0.25425093  0.49259254  1
  O  O225  1  0.87077860  0.76257079  0.00054939  1
  O  O226  1  0.87065546  0.75735879  0.50306577  1
  O  O227  1  0.13717141  0.23628983  0.49393813  1
  O  O228  1  0.14729426  0.22828072  1.01510514  1
  O  O229  1  0.13138231  0.73833999  0.49682682  1
  O  O230  1  0.12899213  0.74381629  0.99147245  1
  O  O231  1  0.62960856  0.24378693  0.49274902  1
  O  O232  1  0.62981173  0.24232001  0.99624161  1
  O  O233  1  0.63180657  0.74081457  0.49254788  1
  O  O234  1  0.63543864  0.75686004  0.99147384  1
  O  O235  1  0.49308418  0.25896170  0.13393924  1
  O  O236  1  0.48969005  0.23762886  0.62694004  1
  O  O237  1  0.49604293  0.74773241  0.13183861  1
  O  O238  1  0.49244984  0.74165687  0.62502139  1
  O  O239  1  1.00988284  0.24146571  0.10860319  1
  O  O240  1  1.00072422  0.23980037  0.65248325  1
  O  O241  1  0.99989502  0.75265734  0.13734809  1
  O  O242  1  0.99478303  0.73917671  0.62227546  1
  O  O243  1  -0.00524254  0.26566236  0.38134443  1
  O  O244  1  0.00546516  0.23471445  0.86317003  1
  O  O245  1  0.00174864  0.75764157  0.36371466  1
  O  O246  1  0.01172601  0.75782691  0.87877023  1
  O  O247  1  0.50765880  0.25890219  0.37106417  1
  O  O248  1  0.50644734  0.25543105  0.87315947  1
  O  O249  1  0.50577906  0.75555493  0.36887230  1
  O  O250  1  0.50655444  0.75621795  0.87735162  1
  O  O251  1  0.24752218  0.12850281  0.49068272  1
  O  O252  1  0.26333459  0.12846406  0.99862715  1
  O  O253  1  0.23318912  0.62905453  0.50420878  1
  O  O254  1  0.24283746  0.62731691  0.98879175  1
  O  O255  1  0.74492659  0.13769902  0.49950097  1
  O  O256  1  0.74385832  0.13157901  0.99783054  1
  O  O257  1  0.74192551  0.62995437  0.49931245  1
  O  O258  1  0.75812914  0.64145300  0.99149983  1
  O  O259  1  0.25324284  0.37335306  0.01286764  1
  O  O260  1  0.25599877  0.35464624  0.49098212  1
  O  O261  1  0.24779836  0.87223671  0.00565821  1
  O  O262  1  0.25128762  0.86342506  0.50269470  1
  O  O263  1  0.75421144  0.36989310  0.00823049  1
  O  O264  1  0.74193214  0.36970132  0.51454865  1
  O  O265  1  0.75679757  0.86885748  0.00611313  1
  O  O266  1  0.75787322  0.87253261  0.50551128  1
  O  O267  1  0.12712126  0.48414073  0.25468098  1
  O  O268  1  0.14462751  0.50365048  0.75028110  1
  O  O269  1  0.12890851  0.99457692  0.24425236  1
  O  O270  1  0.13293503  0.99463628  0.73903899  1
  O  O271  1  0.61753299  0.48966940  0.26068553  1
  O  O272  1  0.64060608  0.48943221  0.76021793  1
  O  O273  1  0.63291045  1.00914311  0.23941239  1
  O  O274  1  0.63513545  0.99564173  0.75573803  1
  O  O275  1  0.37013095  0.00203499  0.26049288  1
  O  O276  1  0.36889235  0.00297369  0.75770380  1
  O  O277  1  0.37630275  0.50860070  0.25954898  1
  O  O278  1  0.36370466  0.50364722  0.75931133  1
  O  O279  1  0.86807458  0.00784782  0.25074419  1
  O  O280  1  0.85726984  -0.01183629  0.76616910  1
  O  O281  1  0.88069935  0.51224077  0.25670849  1
  O  O282  1  0.86102815  0.49589984  0.75805007  1
  O  O283  1  0.10820170  0.37069448  0.37512809  1
  O  O284  1  0.10706330  0.34895644  0.91604938  1
  O  O285  1  0.11494827  0.87356971  0.36917920  1
  O  O286  1  0.12005896  0.86959987  0.86772453  1
  O  O287  1  0.62092792  0.36861979  0.37009991  1
  O  O288  1  0.61998198  0.36602551  0.86613962  1
  O  O289  1  0.61898210  0.86226686  0.37940013  1
  O  O290  1  0.61728409  0.86689962  0.87582463  1
  O  O291  1  0.37709791  0.13928468  0.13219202  1
  O  O292  1  0.38501285  0.12685242  0.63177969  1
  O  O293  1  0.38136269  0.63289693  0.13161674  1
  O  O294  1  0.38333358  0.63463630  0.62578872  1
  O  O295  1  0.88411215  0.12494871  0.13770027  1
  O  O296  1  0.87861669  0.14044493  0.61265322  1
  O  O297  1  0.87847115  0.62960407  0.13236894  1
  O  O298  1  0.88856254  0.63791462  0.62024915  1
  O  O299  1  0.26139982  0.25602300  0.11730018  1
  O  O300  1  0.26754182  0.23622645  0.61338266  1
  O  O301  1  0.25442747  0.75642310  0.11795818  1
  O  O302  1  0.25689621  0.74791879  0.61567925  1
  O  O303  1  0.74412787  0.25626719  0.11409239  1
  O  O304  1  0.74539871  0.26442972  0.61354008  1
  O  O305  1  0.74917936  0.75831299  0.11825811  1
  O  O306  1  0.75995369  0.75819403  0.62023983  1
  O  O307  1  0.25629515  0.23671143  0.37918072  1
  O  O308  1  0.25291065  0.25356614  0.89710942  1
  O  O309  1  0.25103944  0.75234579  0.38646292  1
  O  O310  1  0.24086771  0.74335435  0.87903675  1
  O  O311  1  0.74152059  0.25561447  0.38533036  1
  O  O312  1  0.74389794  0.24369210  0.88405808  1
  O  O313  1  0.74278089  0.75031040  0.38030235  1
  O  O314  1  0.74651600  0.74878865  0.88004887  1
  O  O315  1  -0.01390494  0.11199821  0.01116724  1
  O  O316  1  0.01176896  0.11688394  0.49204927  1
  O  O317  1  0.00715761  0.61909103  0.00153358  1
  O  O318  1  0.00936213  0.62128465  0.50322827  1
  O  O319  1  0.50927386  0.11176305  -0.00325290  1
  O  O320  1  0.50935040  0.12264487  0.50799404  1
  O  O321  1  0.49427259  0.62603662  0.01738186  1
  O  O322  1  0.50666768  0.61905807  0.50855140  1
  O  O323  1  0.49534392  0.38306911  0.49720957  1
  O  O324  1  0.49999045  0.37624090  0.98745606  1
  O  O325  1  0.49844886  0.87562434  0.48715206  1
  O  O326  1  0.49938788  0.88494599  0.99130218  1
  O  O327  1  0.99838485  0.39444155  0.48562204  1
  O  O328  1  0.98261979  0.38276372  1.00811315  1
  O  O329  1  0.99923344  0.87941667  0.49160975  1
  O  O330  1  0.99189488  0.88384203  0.99580509  1
  O  O331  1  0.49268821  0.49616197  0.38871957  1
  O  O332  1  0.48577914  0.48830175  0.86452444  1
  O  O333  1  0.49571714  0.99291784  0.37357873  1
  O  O334  1  0.49590581  0.99306361  0.88340215  1
  O  O335  1  0.98871882  0.49697934  0.38136675  1
  O  O336  1  0.98689390  0.50423393  0.88418362  1
  O  O337  1  1.00195031  0.99249473  0.38395876  1
  O  O338  1  0.98670837  0.99649224  0.88482208  1
  O  O339  1  0.00664662  0.00277032  0.11877323  1
  O  O340  1  0.01168202  -0.00698526  0.60749220  1
  O  O341  1  -0.00627702  0.50187161  0.11021580  1
  O  O342  1  -0.00654120  0.51360361  0.60999098  1
  O  O343  1  0.50884625  -0.00750393  0.11922047  1
  O  O344  1  0.49736530  0.00938452  0.62301838  1
  O  O345  1  0.49509396  0.51221180  0.12482566  1
  O  O346  1  0.49269483  0.50728543  0.61420701  1
  O  O347  1  0.24451018  0.37813436  0.23773975  1
  O  O348  1  0.25663406  0.38611195  0.74893272  1
  O  O349  1  0.24492620  0.88154668  0.24444244  1
  O  O350  1  0.23820730  0.88302063  0.74841301  1
  O  O351  1  0.74243928  0.37708444  0.23502845  1
  O  O352  1  0.74532034  0.37885309  0.73671323  1
  O  O353  1  0.75643537  0.88338903  0.24056174  1
  O  O354  1  0.74430172  0.88257033  0.73970380  1
  O  O355  1  0.25130634  0.11975202  0.25710694  1
  O  O356  1  0.26682653  0.11200694  0.74291749  1
  O  O357  1  0.26358008  0.62489667  0.24492937  1
  O  O358  1  0.24963344  0.62492619  0.76244270  1
  O  O359  1  0.76160200  0.11943080  0.24893883  1
  O  O360  1  0.74134012  0.11691545  0.76129424  1
  O  O361  1  0.76156952  0.63114376  0.25145690  1
  O  O362  1  0.74817024  0.61778864  0.75522610  1
  O  O363  1  0.37081587  0.11731735  0.37273455  1
  O  O364  1  0.38427620  0.11109727  0.86666858  1
  O  O365  1  0.38336699  0.61659454  0.36512704  1
  O  O366  1  0.36543358  0.61666314  0.87455772  1
  O  O367  1  0.87427222  0.12367890  0.36236604  1
  O  O368  1  0.85835466  0.11398530  0.88663619  1
  O  O369  1  0.87253323  0.61952462  0.36537103  1
  O  O370  1  0.86628202  0.62108162  0.87515857  1
  O  O371  1  0.14031566  0.37117799  0.12721971  1
  O  O372  1  0.12128443  0.38618580  0.60123130  1
  O  O373  1  0.12906122  0.88551466  0.13024185  1
  O  O374  1  0.12560527  0.88254943  0.63055847  1
  O  O375  1  0.63683028  0.37675819  0.13139041  1
  O  O376  1  0.62299055  0.37202514  0.63723041  1
  O  O377  1  0.63693566  0.88545826  0.12140050  1
  O  O378  1  0.63844151  0.86972799  0.61963058  1
  O  O379  1  0.13096488  0.26677030  0.25423108  1
  O  O380  1  0.14708995  0.26154847  0.75319316  1
  O  O381  1  0.11919580  0.75640835  0.25123483  1
  O  O382  1  0.12918948  0.75978842  0.75697815  1
  O  O383  1  0.62138490  0.25880389  0.25754220  1
  O  O384  1  0.62567139  0.25725826  0.75710015  1
  O  O385  1  0.61288181  0.74560295  0.25773667  1
  O  O386  1  0.62023028  0.75778974  0.75827452  1
  O  O387  1  0.38559948  0.25251480  0.24429851  1
  O  O388  1  0.37498451  0.23970222  0.74422927  1
  O  O389  1  0.38475934  0.74432770  0.24621738  1
  O  O390  1  0.37735274  0.74656362  0.74261322  1
  O  O391  1  0.86810584  0.23938088  0.25048408  1
  O  O392  1  0.86430429  0.23341275  0.75055270  1
  O  O393  1  0.88363737  0.74271793  0.24871031  1
  O  O394  1  0.87457964  0.75764983  0.73994057  1
  O  O395  1  0.37956877  0.49686538  0.49601496  1
  O  O396  1  0.37927050  0.49688973  0.98679168  1
  O  O397  1  0.37788642  0.99830248  0.48782673  1
  O  O398  1  0.38415586  0.99866747  0.99489690  1
  O  O399  1  0.88544993  0.51130934  0.48982416  1
  O  O400  1  0.87841954  0.49391180  0.99026510  1
  O  O401  1  0.88467303  0.99511960  0.49772381  1
  O  O402  1  0.87553147  0.99002688  0.99526290  1
  O  O403  1  0.11179232  -0.00235377  0.01035421  1
  O  O404  1  0.12283204  0.00834982  0.50361829  1
  O  O405  1  0.11359412  0.50942282  -0.00997500  1
  O  O406  1  0.11099783  0.51169173  0.49568560  1
  O  O407  1  0.62063264  0.00625656  0.01115231  1
  O  O408  1  0.62759582  0.01765227  0.49116409  1
  O  O409  1  0.61288243  0.51120086  -0.03962334  1
  O  O410  1  0.61585584  0.51297949  0.49485361  1
  O  O411  1  0.36511722  0.36644635  0.12469537  1
  O  O412  1  0.38186739  0.36321635  0.61780427  1
  O  O413  1  0.36777603  0.86864278  0.12402169  1
  O  O414  1  0.37540053  0.86135046  0.62242535  1
  O  O415  1  0.85758718  0.37993067  0.11795558  1
  O  O416  1  0.86416086  0.37727979  0.62211847  1
  O  O417  1  0.86451949  0.87488932  0.11772320  1
  O  O418  1  0.87196881  0.87146420  0.61974507  1
  O  O419  1  0.13395410  0.12620594  0.37953025  1
  O  O420  1  0.13743774  0.11659251  0.86350629  1
  O  O421  1  0.11994500  0.62648970  0.38665277  1
  O  O422  1  0.12840569  0.63203396  0.87948349  1
  O  O423  1  0.63018936  0.13938513  0.38057266  1
  O  O424  1  0.63319017  0.12833203  0.88769506  1
  O  O425  1  0.62416342  0.63665321  0.38214192  1
  O  O426  1  0.64157638  0.64406297  0.86833234  1
