# generated using pymatgen
data_V85Zn86O256
_symmetry_space_group_name_H-M   'P 1'
_cell_length_a   16.92385617
_cell_length_b   16.92119368
_cell_length_c   16.91659920
_cell_angle_alpha   89.99092746
_cell_angle_beta   90.01629343
_cell_angle_gamma   89.96515151
_symmetry_Int_Tables_number   1
_chemical_formula_structural   V85Zn86O256
_chemical_formula_sum   'V85 Zn86 O256'
_cell_volume   4844.43662127
_cell_formula_units_Z   1
loop_
 _symmetry_equiv_pos_site_id
 _symmetry_equiv_pos_as_xyz
  1  'x, y, z'
loop_
 _atom_site_type_symbol
 _atom_site_label
 _atom_site_symmetry_multiplicity
 _atom_site_fract_x
 _atom_site_fract_y
 _atom_site_fract_z
 _atom_site_occupancy
  V  V0  1  0.24446555  0.12798703  0.87236832  1
  V  V1  1  0.50415687  0.49731769  0.49833498  1
  V  V2  1  0.11781858  0.74741153  0.87117220  1
  V  V3  1  0.63114331  0.62642882  -0.00400008  1
  V  V4  1  0.75055148  0.87209059  0.12139322  1
  V  V5  1  0.37859692  0.62925724  0.25151168  1
  V  V6  1  0.75563413  0.25024190  0.50589169  1
  V  V7  1  0.37501137  0.62462544  0.75023132  1
  V  V8  1  0.87312700  0.49939391  0.36958730  1
  V  V9  1  0.81148162  0.06091227  0.80236964  1
  V  V10  1  0.24669210  0.37534505  0.12442806  1
  V  V11  1  0.37399286  0.24025216  0.12863912  1
  V  V12  1  0.75254888  0.38099511  0.63495887  1
  V  V13  1  0.87947053  0.74976621  0.63103605  1
  V  V14  1  0.53253499  0.16429351  0.65628759  1
  V  V15  1  0.24858800  0.87746173  0.12312532  1
  V  V16  1  0.75051295  0.87498910  0.63096282  1
  V  V17  1  0.12535662  0.50376230  0.62249767  1
  V  V18  1  0.64248659  0.13548153  -0.00969898  1
  V  V19  1  0.87702214  0.37391243  0.50314038  1
  V  V20  1  0.49969215  0.00183987  0.50108593  1
  V  V21  1  0.11853845  0.13524441  -0.00429594  1
  V  V22  1  -0.00428745  0.00939439  -0.00255416  1
  V  V23  1  0.50071936  0.63099162  0.12646085  1
  V  V24  1  0.75014554  0.74855252  0.49791487  1
  V  V25  1  0.11775084  0.87151395  0.74816211  1
  V  V26  1  0.24843854  0.50065815  0.24962697  1
  V  V27  1  0.24993462  0.25222770  0.49703720  1
  V  V28  1  0.12613627  0.36745825  0.75292574  1
  V  V29  1  0.87796327  0.62190320  0.24106046  1
  V  V30  1  0.62540897  0.62425476  0.49883031  1
  V  V31  1  0.37484003  0.49695026  0.87685520  1
  V  V32  1  -0.00263338  0.00001790  0.49805036  1
  V  V33  1  -0.01079410  0.13247457  0.62376984  1
  V  V34  1  0.25336364  0.00908228  0.24663779  1
  V  V35  1  0.37542989  0.75335994  0.12493052  1
  V  V36  1  0.00230803  0.25030742  0.25112362  1
  V  V37  1  0.62676305  0.12257114  0.50040870  1
  V  V38  1  -0.00367429  0.87918330  0.87193348  1
  V  V39  1  0.37743453  0.49508842  0.37483474  1
  V  V40  1  0.37755212  0.37034193  0.00139544  1
  V  V41  1  -0.00353127  0.87703799  0.37246609  1
  V  V42  1  0.87023757  0.23990501  0.12784283  1
  V  V43  1  0.12324290  0.74456401  0.37652991  1
  V  V44  1  0.75515162  0.11913991  0.37879303  1
  V  V45  1  0.85996630  0.50563051  0.87349960  1
  V  V46  1  0.00290137  0.50817859  0.49884139  1
  V  V47  1  0.87359654  0.87790562  0.49562411  1
  V  V48  1  0.24625983  0.62467098  0.87708396  1
  V  V49  1  0.00173456  0.62692427  0.63458295  1
  V  V50  1  0.11916809  0.62607493  0.01011776  1
  V  V51  1  0.62159293  -0.00594110  0.62833035  1
  V  V52  1  0.00263617  0.37294788  0.87682507  1
  V  V53  1  0.49540641  0.00661390  -0.00715647  1
  V  V54  1  0.88178870  0.11758808  0.25407993  1
  V  V55  1  0.24678744  0.74428009  0.49883056  1
  V  V56  1  0.49938669  0.87402081  0.37148751  1
  V  V57  1  0.61886133  0.87334453  0.24590953  1
  V  V58  1  0.37459242  0.87476581  0.49768691  1
  V  V59  1  0.62931574  0.50122568  0.63844542  1
  V  V60  1  0.85542929  0.34111907  -0.02148752  1
  V  V61  1  -0.00583479  0.50239155  0.00217236  1
  V  V62  1  0.75299239  -0.00336194  0.25458880  1
  V  V63  1  0.37063379  0.24774553  0.63330453  1
  V  V64  1  0.38328962  0.37260951  0.50071495  1
  V  V65  1  0.86120756  0.62361447  0.75188474  1
  V  V66  1  0.11803301  0.00640152  0.12355924  1
  V  V67  1  0.37674369  0.00819132  0.36919561  1
  V  V68  1  0.74913147  0.62139182  0.36571576  1
  V  V69  1  0.62678836  0.87642201  0.75879087  1
  V  V70  1  0.24740906  0.49861273  0.75148025  1
  V  V71  1  0.87344329  0.87854374  -0.00476877  1
  V  V72  1  0.12381823  0.00097265  0.62637162  1
  V  V73  1  0.75155281  0.37698774  0.13716723  1
  V  V74  1  0.51171543  0.36381351  0.86364081  1
  V  V75  1  0.62447701  0.25692228  0.37701076  1
  V  V76  1  0.49892721  0.75029957  0.75272977  1
  V  V77  1  0.37555799  0.11542283  0.75292159  1
  V  V78  1  0.50178478  0.49729033  0.00587425  1
  V  V79  1  0.12713183  0.12544043  0.49902239  1
  V  V80  1  0.61764207  0.74846980  0.36934245  1
  V  V81  1  -0.01204761  0.24809157  0.74746304  1
  V  V82  1  0.24957645  0.87618319  0.62418819  1
  V  V83  1  0.49337561  0.24857785  0.25832806  1
  V  V84  1  0.00087558  0.74717944  0.24013023  1
  Zn  Zn85  1  0.62192869  0.37850513  0.25571006  1
  Zn  Zn86  1  0.63102726  0.74387937  0.87209883  1
  Zn  Zn87  1  0.24694108  0.62284212  0.37934947  1
  Zn  Zn88  1  0.48835068  0.87973509  0.87328627  1
  Zn  Zn89  1  0.12497650  0.25232693  0.37385354  1
  Zn  Zn90  1  0.11564332  0.50126217  0.12800625  1
  Zn  Zn91  1  0.25267389  -0.00799780  0.76317654  1
  Zn  Zn92  1  0.24897949  0.75210401  -0.00147590  1
  Zn  Zn93  1  0.62503211  0.00412516  0.12073755  1
  Zn  Zn94  1  0.00317812  0.37623485  0.37580498  1
  Zn  Zn95  1  0.25377627  0.12775065  0.37112370  1
  Zn  Zn96  1  0.25005523  0.37708488  0.62530777  1
  Zn  Zn97  1  0.63391370  0.50338826  0.13417840  1
  Zn  Zn98  1  0.12375021  0.87690662  0.24937871  1
  Zn  Zn99  1  0.37239938  0.88218296  -0.00705941  1
  Zn  Zn100  1  0.50138224  0.62437818  0.62617000  1
  Zn  Zn101  1  0.50633379  0.12555553  0.12557494  1
  Zn  Zn102  1  0.75568808  0.74622542  -0.00812020  1
  Zn  Zn103  1  0.37563162  0.74893181  0.62368965  1
  Zn  Zn104  1  0.24201180  0.25399413  -0.00380915  1
  Zn  Zn105  1  0.87837801  0.74616529  0.11973380  1
  Zn  Zn106  1  0.12327171  0.37579412  0.25236334  1
  Zn  Zn107  1  0.18449504  0.18721431  0.18282198  1
  Zn  Zn108  1  0.18624182  0.18709264  0.68651280  1
  Zn  Zn109  1  0.18976232  0.68912469  0.18970974  1
  Zn  Zn110  1  0.18649404  0.68891095  0.68813793  1
  Zn  Zn111  1  0.68551402  0.18628621  0.18779371  1
  Zn  Zn112  1  0.70148932  0.19205519  0.68993318  1
  Zn  Zn113  1  0.68768231  0.68969122  0.18478195  1
  Zn  Zn114  1  0.68597063  0.68985107  0.68666778  1
  Zn  Zn115  1  0.31367326  0.31475793  0.31313671  1
  Zn  Zn116  1  0.31374617  0.30916712  0.81640336  1
  Zn  Zn117  1  0.31079491  0.81641016  0.30901318  1
  Zn  Zn118  1  0.30869985  0.81065393  0.81391774  1
  Zn  Zn119  1  0.81498768  0.30839416  0.31713205  1
  Zn  Zn120  1  0.81394856  0.30966398  0.80843485  1
  Zn  Zn121  1  0.81190038  0.80821998  0.31020380  1
  Zn  Zn122  1  0.81152967  0.81011410  0.81526270  1
  Zn  Zn123  1  0.18783675  0.43605793  0.43744862  1
  Zn  Zn124  1  0.18382940  0.43856366  0.93970394  1
  Zn  Zn125  1  0.18616316  0.93556899  0.43430033  1
  Zn  Zn126  1  0.18613592  0.94222013  0.93738606  1
  Zn  Zn127  1  0.69106526  0.43830729  0.43994224  1
  Zn  Zn128  1  0.68455426  0.43453882  0.94322316  1
  Zn  Zn129  1  0.68755573  0.93542285  0.43743211  1
  Zn  Zn130  1  0.68849164  0.94987742  0.93575835  1
  Zn  Zn131  1  0.30839981  0.06404779  0.05524240  1
  Zn  Zn132  1  0.31396103  0.06303339  0.56467282  1
  Zn  Zn133  1  0.31128462  0.56252764  0.06289816  1
  Zn  Zn134  1  0.31303819  0.56171178  0.56411280  1
  Zn  Zn135  1  0.81011695  0.05932808  0.06444534  1
  Zn  Zn136  1  0.81345096  0.05693455  0.57510921  1
  Zn  Zn137  1  0.81263139  0.55576375  0.06202010  1
  Zn  Zn138  1  0.81374204  0.56163051  0.56024932  1
  Zn  Zn139  1  0.43998608  0.43308023  0.18922364  1
  Zn  Zn140  1  0.43894609  0.43741589  0.68573724  1
  Zn  Zn141  1  0.43848776  0.94270961  0.18147668  1
  Zn  Zn142  1  0.43781122  0.93588484  0.68829682  1
  Zn  Zn143  1  0.93298993  0.43004689  0.18466638  1
  Zn  Zn144  1  0.93640041  0.43938346  0.69054704  1
  Zn  Zn145  1  0.93588530  0.93665705  0.18387153  1
  Zn  Zn146  1  0.93551675  0.94308568  0.68872363  1
  Zn  Zn147  1  0.06495638  0.06060583  0.31470673  1
  Zn  Zn148  1  0.05938478  0.06491674  0.81221047  1
  Zn  Zn149  1  0.06176283  0.56405461  0.31224358  1
  Zn  Zn150  1  0.05764597  0.55970477  0.81364896  1
  Zn  Zn151  1  0.56569747  0.06620901  0.31028735  1
  Zn  Zn152  1  0.57079938  0.06244156  0.81807563  1
  Zn  Zn153  1  0.56049312  0.55787195  0.31065109  1
  Zn  Zn154  1  0.55795600  0.55748434  0.81780158  1
  Zn  Zn155  1  0.44181377  0.18649164  0.44410209  1
  Zn  Zn156  1  0.43897048  0.18589034  0.93516205  1
  Zn  Zn157  1  0.43662384  0.68482143  0.43810205  1
  Zn  Zn158  1  0.43841547  0.69022677  0.93809375  1
  Zn  Zn159  1  0.93744258  0.18801194  0.43720291  1
  Zn  Zn160  1  0.91449978  0.18524231  0.92100792  1
  Zn  Zn161  1  0.93755846  0.68760062  0.43746633  1
  Zn  Zn162  1  0.93739816  0.68861441  0.93502349  1
  Zn  Zn163  1  0.05125820  0.31432759  0.06703108  1
  Zn  Zn164  1  0.06355559  0.31677084  0.56360822  1
  Zn  Zn165  1  0.06342312  0.81735337  0.05844099  1
  Zn  Zn166  1  0.06183022  0.80976354  0.56068169  1
  Zn  Zn167  1  0.56468747  0.30618782  0.06402157  1
  Zn  Zn168  1  0.57054288  0.31171216  0.57617078  1
  Zn  Zn169  1  0.55923899  0.81504701  0.05879583  1
  Zn  Zn170  1  0.56038421  0.81025143  0.56356170  1
  O  O171  1  0.12747867  0.11368562  0.11347067  1
  O  O172  1  0.12114691  0.12013164  0.61420968  1
  O  O173  1  0.12882312  0.62500735  0.11327983  1
  O  O174  1  0.11755263  0.61392094  0.63232548  1
  O  O175  1  0.62706928  0.12302720  0.11492040  1
  O  O176  1  0.62846874  0.11028376  0.62128576  1
  O  O177  1  0.61519921  0.62465301  0.12047864  1
  O  O178  1  0.62686003  0.61786206  0.61589338  1
  O  O179  1  0.37322571  0.38746911  0.38350869  1
  O  O180  1  0.37935802  0.37937947  0.88533623  1
  O  O181  1  0.38118988  0.88265187  0.37761826  1
  O  O182  1  0.37392051  0.87028328  0.87929512  1
  O  O183  1  0.87602577  0.38422236  0.38289260  1
  O  O184  1  0.88308210  0.39158164  0.87404211  1
  O  O185  1  0.88193410  0.86595809  0.38488537  1
  O  O186  1  0.88583603  0.87347748  0.87977816  1
  O  O187  1  0.25812012  -0.00144642  0.36534337  1
  O  O188  1  0.24784221  0.01846213  0.87725745  1
  O  O189  1  0.25732254  0.50294248  0.36821768  1
  O  O190  1  0.25451080  0.50464624  0.87107138  1
  O  O191  1  0.74671465  0.00696102  0.36909996  1
  O  O192  1  0.75383554  -0.00308927  0.85649394  1
  O  O193  1  0.75976160  0.51008380  0.37926265  1
  O  O194  1  0.76161048  0.49747589  0.87989834  1
  O  O195  1  0.24977702  0.49286283  0.13364289  1
  O  O196  1  0.24187106  0.50026563  0.63161773  1
  O  O197  1  0.24452107  0.99645024  0.12893481  1
  O  O198  1  0.24269050  0.98689243  0.62093079  1
  O  O199  1  0.75481601  0.48137572  0.12772294  1
  O  O200  1  0.74460373  0.49089337  0.62122760  1
  O  O201  1  0.74777377  0.98691758  0.13479474  1
  O  O202  1  0.73331317  0.98421538  0.61161281  1
  O  O203  1  0.00087456  0.36588112  0.25328617  1
  O  O204  1  0.00578171  0.36818101  0.75388251  1
  O  O205  1  -0.00219826  0.86803535  0.25775480  1
  O  O206  1  0.00858175  0.88169235  0.75445595  1
  O  O207  1  0.50265721  0.35571053  0.24695219  1
  O  O208  1  0.49728864  0.38137757  0.76497408  1
  O  O209  1  0.51243050  0.88139145  0.25367123  1
  O  O210  1  0.50725367  0.86706934  0.75100747  1
  O  O211  1  0.50635154  0.14158410  0.24656845  1
  O  O212  1  0.49384817  0.11902842  0.74465703  1
  O  O213  1  0.48611975  0.62129093  0.24248857  1
  O  O214  1  0.49146028  0.62954870  0.75102423  1
  O  O215  1  0.98668165  0.12647852  0.25964683  1
  O  O216  1  1.00845506  0.14037810  0.73992716  1
  O  O217  1  0.99063337  0.63487966  0.25411755  1
  O  O218  1  0.99058480  0.62074034  0.73831500  1
  O  O219  1  0.37467442  0.26026774  0.00837300  1
  O  O220  1  0.36726236  0.25650209  0.50259116  1
  O  O221  1  0.37049592  0.74794667  0.01354856  1
  O  O222  1  0.36850572  0.75786643  0.49998758  1
  O  O223  1  0.89680714  0.24186945  0.02636426  1
  O  O224  1  0.87045113  0.26434614  0.49432529  1
  O  O225  1  0.87715478  0.76210966  0.00139339  1
  O  O226  1  0.87105336  0.75714247  0.50841485  1
  O  O227  1  0.13306449  0.24431457  0.50051685  1
  O  O228  1  0.11721227  0.23804823  1.00827530  1
  O  O229  1  0.13452595  0.75522818  0.49048420  1
  O  O230  1  0.12442599  0.74253724  0.99228685  1
  O  O231  1  0.63349181  0.24255148  0.49748836  1
  O  O232  1  0.62598955  0.23510852  1.00219464  1
  O  O233  1  0.62943823  0.74418046  0.49283031  1
  O  O234  1  0.62086412  0.73435445  0.99991827  1
  O  O235  1  0.48994106  0.24792274  0.13500986  1
  O  O236  1  0.47927462  0.24392192  0.60361223  1
  O  O237  1  0.49172308  0.73908401  0.12188984  1
  O  O238  1  0.49706735  0.74648808  0.63730806  1
  O  O239  1  0.98800280  0.25250574  0.14370515  1
  O  O240  1  1.00905101  0.24460274  0.63488048  1
  O  O241  1  1.00135168  0.75690090  0.13696489  1
  O  O242  1  0.99165812  0.73963204  0.61816636  1
  O  O243  1  -0.00051117  0.25177897  0.36445674  1
  O  O244  1  -0.00743405  0.25821672  0.85817265  1
  O  O245  1  0.00545274  0.75746722  0.37029785  1
  O  O246  1  0.01083275  0.76186723  0.87749475  1
  O  O247  1  0.50745265  0.24461497  0.36773422  1
  O  O248  1  0.49504739  0.26542442  0.87548894  1
  O  O249  1  0.51128901  0.75306971  0.37844204  1
  O  O250  1  0.50528896  0.74986489  0.86303513  1
  O  O251  1  0.24383382  0.13268182  0.49964321  1
  O  O252  1  0.23834849  0.12980037  0.99025523  1
  O  O253  1  0.25697635  0.63993171  0.50001168  1
  O  O254  1  0.24009046  0.62415488  0.99253784  1
  O  O255  1  0.74928726  0.13019298  0.49810709  1
  O  O256  1  0.74315670  0.12035822  0.99826408  1
  O  O257  1  0.74679923  0.63003743  0.48860796  1
  O  O258  1  0.73379563  0.62451401  1.01118725  1
  O  O259  1  0.25643426  0.37470180  0.00622900  1
  O  O260  1  0.26130775  0.36856663  0.50216966  1
  O  O261  1  0.24885869  0.87667388  0.01185753  1
  O  O262  1  0.25441402  0.86770029  0.50474734  1
  O  O263  1  0.76222240  0.37645244  0.00834788  1
  O  O264  1  0.75952916  0.36864711  0.50501058  1
  O  O265  1  0.75671310  0.87928706  0.00570115  1
  O  O266  1  0.75651988  0.86761723  0.50459254  1
  O  O267  1  0.13415572  0.50159021  0.24690422  1
  O  O268  1  0.12792837  0.49114755  0.74550848  1
  O  O269  1  0.13061165  0.99930900  0.24085103  1
  O  O270  1  0.12785350  0.99222884  0.74217785  1
  O  O271  1  0.61839327  0.49122122  0.24535491  1
  O  O272  1  0.62049672  0.50693972  0.73744869  1
  O  O273  1  0.63665218  0.99186374  0.25045443  1
  O  O274  1  0.61920009  0.98991555  0.73931765  1
  O  O275  1  0.36696783  -0.00433828  0.25737746  1
  O  O276  1  0.36900044  0.01068952  0.74148107  1
  O  O277  1  0.37077693  0.50369337  0.25801505  1
  O  O278  1  0.36926382  0.50603571  0.75517230  1
  O  O279  1  0.86365362  0.00370320  0.24752018  1
  O  O280  1  0.85286967  0.01196919  0.71959613  1
  O  O281  1  0.88356530  0.50603120  0.26147115  1
  O  O282  1  0.87756075  0.50793845  0.76413629  1
  O  O283  1  0.12196208  0.37154432  0.37204975  1
  O  O284  1  0.11167207  0.37873095  0.86921263  1
  O  O285  1  0.11553670  0.86526681  0.37186246  1
  O  O286  1  0.12157107  0.86821441  0.86689527  1
  O  O287  1  0.63146896  0.36024996  0.37999660  1
  O  O288  1  0.61111155  0.37752797  0.87987827  1
  O  O289  1  0.62011238  0.86681863  0.36815946  1
  O  O290  1  0.62340175  0.87716329  0.86322494  1
  O  O291  1  0.37026780  0.13893511  0.12097413  1
  O  O292  1  0.37311230  0.13274425  0.63587686  1
  O  O293  1  0.37937102  0.63123875  0.13153913  1
  O  O294  1  0.37540296  0.62502395  0.63911624  1
  O  O295  1  0.86886593  0.13110592  0.13887211  1
  O  O296  1  0.89015126  0.13241945  0.61099785  1
  O  O297  1  0.86893740  0.62461947  0.13737719  1
  O  O298  1  0.88046961  0.62999479  0.63015730  1
  O  O299  1  0.25578875  0.25925624  0.12376277  1
  O  O300  1  0.25512272  0.25180060  0.61393002  1
  O  O301  1  0.25473497  0.76026888  0.12400215  1
  O  O302  1  0.24837274  0.76026107  0.61737983  1
  O  O303  1  0.76481212  0.25440166  0.13214758  1
  O  O304  1  0.75222971  0.26314090  0.61186076  1
  O  O305  1  0.75226752  0.76196532  0.11945560  1
  O  O306  1  0.75670530  0.75628445  0.61663984  1
  O  O307  1  0.25102207  0.24780010  0.38509824  1
  O  O308  1  0.24980885  0.23629014  0.87861055  1
  O  O309  1  0.24248434  0.75167760  0.38083758  1
  O  O310  1  0.23560882  0.74195869  0.87638354  1
  O  O311  1  0.74512792  0.24236809  0.38644242  1
  O  O312  1  0.82081256  0.26212696  0.90856698  1
  O  O313  1  0.74009632  0.74334033  0.37943033  1
  O  O314  1  0.74422847  0.74980783  0.87921063  1
  O  O315  1  0.00220716  0.11353278  -0.01355618  1
  O  O316  1  0.00804329  0.12176163  0.50322404  1
  O  O317  1  0.00711930  0.61598535  -0.00474134  1
  O  O318  1  -0.00710883  0.61360133  0.51067203  1
  O  O319  1  0.50186458  0.11701311  0.00209523  1
  O  O320  1  0.51118806  0.11744686  0.50796665  1
  O  O321  1  0.50445881  0.61733551  0.00797611  1
  O  O322  1  0.50557848  0.61678465  0.50362888  1
  O  O323  1  0.49041398  0.38057276  0.50659967  1
  O  O324  1  0.49313086  0.38113281  1.00317537  1
  O  O325  1  0.49469639  0.87972792  0.49234406  1
  O  O326  1  0.49927160  0.88972086  0.99745013  1
  O  O327  1  0.99252696  0.38698234  0.50223555  1
  O  O328  1  0.98358652  0.37423463  0.98935430  1
  O  O329  1  0.99209985  0.87758499  0.49339784  1
  O  O330  1  0.99386086  0.88353849  0.99118355  1
  O  O331  1  0.49183183  0.50371972  0.38936761  1
  O  O332  1  0.49243338  0.49285342  0.89020986  1
  O  O333  1  0.49515707  0.99670368  0.37889826  1
  O  O334  1  0.50138817  1.00026341  0.88789534  1
  O  O335  1  0.99372676  0.50192657  0.38399574  1
  O  O336  1  0.99585777  0.49102714  0.88456140  1
  O  O337  1  1.00409833  0.98510007  0.38104775  1
  O  O338  1  1.01119867  0.98598760  0.88264389  1
  O  O339  1  0.00806015  -0.00465782  0.11381689  1
  O  O340  1  0.00628738  0.00932505  0.61822904  1
  O  O341  1  -0.00296967  0.48863664  0.10759266  1
  O  O342  1  0.00581744  0.50669398  0.62027361  1
  O  O343  1  0.50508354  0.00535524  0.11529901  1
  O  O344  1  0.51120284  -0.00828286  0.61606566  1
  O  O345  1  0.49375109  0.50940626  0.11610036  1
  O  O346  1  0.50870529  0.50057056  0.61480869  1
  O  O347  1  0.25040892  0.38532217  0.24320738  1
  O  O348  1  0.24327250  0.38045773  0.75173587  1
  O  O349  1  0.24700825  0.88582505  0.23797731  1
  O  O350  1  0.23890127  0.87413589  0.74038242  1
  O  O351  1  0.75215423  0.36893577  0.24005272  1
  O  O352  1  0.75197907  0.36711270  0.73398555  1
  O  O353  1  0.74371500  0.87911036  0.24554585  1
  O  O354  1  0.74232781  0.86729126  0.73683525  1
  O  O355  1  0.24562503  0.11324723  0.25107709  1
  O  O356  1  0.25277812  0.12293592  0.75813290  1
  O  O357  1  0.26067328  0.61518537  0.24952895  1
  O  O358  1  0.25512603  0.62027598  0.75668547  1
  O  O359  1  0.75634091  0.11601575  0.25999108  1
  O  O360  1  0.75878414  0.14355775  0.76910117  1
  O  O361  1  0.75762349  0.63119036  0.26005531  1
  O  O362  1  0.76181222  0.62596769  0.74336575  1
  O  O363  1  0.37485681  0.11128161  0.38262990  1
  O  O364  1  0.36462282  0.13224680  0.86156841  1
  O  O365  1  0.37288948  0.61605387  0.36764262  1
  O  O366  1  0.36972060  0.61962888  0.86760108  1
  O  O367  1  0.86274802  0.12658469  0.37101187  1
  O  O368  1  0.88892617  0.09482895  0.85949247  1
  O  O369  1  0.86760975  0.62002850  0.36779628  1
  O  O370  1  0.87949904  0.61511576  0.86616006  1
  O  O371  1  0.13583080  0.37678421  0.12478510  1
  O  O372  1  0.12710845  0.38764115  0.63332834  1
  O  O373  1  0.13161953  0.88670469  0.12464260  1
  O  O374  1  0.12770723  0.87828466  0.63047735  1
  O  O375  1  0.64492785  0.36919147  0.12280912  1
  O  O376  1  0.64324029  0.38910266  0.61633182  1
  O  O377  1  0.63140030  0.87431656  0.13180519  1
  O  O378  1  0.63143016  0.87557341  0.63197879  1
  O  O379  1  0.11619753  0.24836887  0.25152994  1
  O  O380  1  0.12179959  0.26467617  0.74463985  1
  O  O381  1  0.11797151  0.75273914  0.25610959  1
  O  O382  1  0.12473085  0.75929085  0.75681711  1
  O  O383  1  0.61872157  0.25305434  0.26134965  1
  O  O384  1  0.59811692  0.24137119  0.68901213  1
  O  O385  1  0.62914797  0.75963488  0.25847542  1
  O  O386  1  0.61628256  0.75690403  0.74954778  1
  O  O387  1  0.38433973  0.25160910  0.24651704  1
  O  O388  1  0.37016901  0.24386904  0.73748911  1
  O  O389  1  0.36830010  0.74162649  0.23866671  1
  O  O390  1  0.37988847  0.74066882  0.74864331  1
  O  O391  1  0.87950676  0.23898943  0.24665657  1
  O  O392  1  0.89023986  0.25605758  0.73733908  1
  O  O393  1  0.88356399  0.74057284  0.24805516  1
  O  O394  1  0.87389129  0.74414431  0.73686044  1
  O  O395  1  0.38119915  0.49351620  0.49637825  1
  O  O396  1  0.37995754  0.49036184  0.99794385  1
  O  O397  1  0.38016197  0.99369157  0.49407560  1
  O  O398  1  0.39000749  1.00179235  1.00573374  1
  O  O399  1  0.88193884  0.49505133  0.48995308  1
  O  O400  1  0.87984212  0.50370216  0.98595912  1
  O  O401  1  0.88008464  0.98502643  0.50695748  1
  O  O402  1  0.88336559  0.98794967  1.00717165  1
  O  O403  1  0.11585346  0.00887356  0.00576747  1
  O  O404  1  0.11963260  0.00576113  0.50474976  1
  O  O405  1  0.11491898  0.50884045  0.00153080  1
  O  O406  1  0.11734029  0.49737724  0.51026163  1
  O  O407  1  0.61542424  0.01019219  0.00058975  1
  O  O408  1  0.61818749  0.00241873  0.50333957  1
  O  O409  1  0.61758562  0.50823905  0.01026326  1
  O  O410  1  0.61847430  0.50575912  0.50172237  1
  O  O411  1  0.36472310  0.37002712  0.11914451  1
  O  O412  1  0.37178806  0.36781574  0.61880317  1
  O  O413  1  0.36764931  0.86792800  0.12330028  1
  O  O414  1  0.36493552  0.87318136  0.61867569  1
  O  O415  1  0.86464131  0.36013221  0.11883961  1
  O  O416  1  0.86390604  0.38732075  0.61553059  1
  O  O417  1  0.86706549  0.87100392  0.11649563  1
  O  O418  1  0.86901919  0.86706494  0.62003195  1
  O  O419  1  0.12839601  0.12571707  0.38853915  1
  O  O420  1  0.13320690  0.12571288  0.88070851  1
  O  O421  1  0.12738202  0.63929351  0.37226751  1
  O  O422  1  0.12516834  0.63135499  0.87913829  1
  O  O423  1  0.63684705  0.13248339  0.38112506  1
  O  O424  1  0.62596397  0.12783328  0.88932339  1
  O  O425  1  0.63030887  0.63073035  0.37617835  1
  O  O426  1  0.61923664  0.61970630  0.89340130  1
