# generated using pymatgen
data_V85Zn86O256
_symmetry_space_group_name_H-M   'P 1'
_cell_length_a   16.93362080
_cell_length_b   16.93589182
_cell_length_c   16.92235515
_cell_angle_alpha   90.03177874
_cell_angle_beta   89.92875437
_cell_angle_gamma   89.94545740
_symmetry_Int_Tables_number   1
_chemical_formula_structural   V85Zn86O256
_chemical_formula_sum   'V85 Zn86 O256'
_cell_volume   4853.08733626
_cell_formula_units_Z   1
loop_
 _symmetry_equiv_pos_site_id
 _symmetry_equiv_pos_as_xyz
  1  'x, y, z'
loop_
 _atom_site_type_symbol
 _atom_site_label
 _atom_site_symmetry_multiplicity
 _atom_site_fract_x
 _atom_site_fract_y
 _atom_site_fract_z
 _atom_site_occupancy
  V  V0  1  0.49724930  0.74668267  0.74562269  1
  V  V1  1  0.49862446  0.01517856  0.00259667  1
  V  V2  1  0.25242281  0.87360570  0.12469230  1
  V  V3  1  0.12538377  0.49692301  0.13357956  1
  V  V4  1  0.12032620  0.12566054  0.49458245  1
  V  V5  1  0.37667396  0.87565749  -0.00142763  1
  V  V6  1  0.12204561  0.26322494  0.37296123  1
  V  V7  1  0.75138236  0.62601401  0.86853501  1
  V  V8  1  0.87185456  0.62496244  0.25081599  1
  V  V9  1  0.38254706  0.37660906  -0.00292997  1
  V  V10  1  0.74620399  0.37534952  0.61797098  1
  V  V11  1  0.26439343  0.00357221  0.25381067  1
  V  V12  1  0.00080758  0.50198722  0.00048502  1
  V  V13  1  0.62204723  0.48950431  0.12496467  1
  V  V14  1  0.37078406  0.75230111  0.62866427  1
  V  V15  1  0.49970064  0.49752682  -0.00951020  1
  V  V16  1  0.87325780  0.87654183  0.49694329  1
  V  V17  1  0.61401481  0.62701134  0.50496133  1
  V  V18  1  0.62329740  0.74841038  0.87515371  1
  V  V19  1  0.17190839  0.30652236  0.81582992  1
  V  V20  1  0.13529376  0.49041230  0.63976586  1
  V  V21  1  0.25053159  0.37319415  0.13571016  1
  V  V22  1  0.87602894  0.50366938  0.86565994  1
  V  V23  1  0.86948912  0.25085369  0.13206864  1
  V  V24  1  0.00293799  0.26731678  0.25441886  1
  V  V25  1  0.62458828  0.87751916  0.75243264  1
  V  V26  1  0.24812724  0.75475156  0.50685393  1
  V  V27  1  -0.00207555  0.87610981  0.37386221  1
  V  V28  1  0.38311040  0.74401648  0.12252544  1
  V  V29  1  0.64347369  0.12347056  -0.00060023  1
  V  V30  1  0.26162276  0.12395802  0.37358673  1
  V  V31  1  -0.00838385  0.75646575  0.75420901  1
  V  V32  1  0.74871746  0.74946031  0.50099193  1
  V  V33  1  0.49421034  0.88146748  0.37458236  1
  V  V34  1  0.37519362  0.50054155  0.37542896  1
  V  V35  1  0.86810971  0.24867350  0.62332933  1
  V  V36  1  0.00264332  0.12703191  0.13767279  1
  V  V37  1  0.75587819  0.24920288  -0.00542344  1
  V  V38  1  0.49844466  0.23225842  0.25040430  1
  V  V39  1  -0.00751834  0.24864690  0.75408595  1
  V  V40  1  0.75121978  0.87926558  0.62741404  1
  V  V41  1  -0.00436303  0.37244626  0.87109974  1
  V  V42  1  0.49995152  0.87891114  0.87594488  1
  V  V43  1  -0.00727458  0.62035838  0.63462864  1
  V  V44  1  0.61996128  0.62456462  0.00914460  1
  V  V45  1  0.62702409  0.88145458  0.24959573  1
  V  V46  1  0.75016276  0.74953680  -0.00118263  1
  V  V47  1  0.87446402  0.74749503  0.12363470  1
  V  V48  1  0.12189669  0.13134086  -0.00386550  1
  V  V49  1  0.61871731  0.50209597  0.62613553  1
  V  V50  1  0.88049389  0.36933771  0.49651143  1
  V  V51  1  0.12901305  0.87465085  0.25024517  1
  V  V52  1  0.86516714  0.12613317  0.75735445  1
  V  V53  1  -0.00917064  0.00241415  0.49659162  1
  V  V54  1  0.37497070  0.61161618  0.74768527  1
  V  V55  1  0.74824865  0.88045984  0.12683163  1
  V  V56  1  0.50045002  0.37512615  0.37139021  1
  V  V57  1  0.37157212  0.37690690  0.50708826  1
  V  V58  1  0.00092905  0.74749388  0.25011290  1
  V  V59  1  0.24358654  0.12191942  0.86943216  1
  V  V60  1  0.24783691  0.25402238  0.50758101  1
  V  V61  1  0.12321667  -0.00951165  0.62147103  1
  V  V62  1  0.12267241  0.62257442  0.50525166  1
  V  V63  1  0.24978924  -0.00748030  0.74360959  1
  V  V64  1  0.62092345  0.00318053  0.62415568  1
  V  V65  1  0.24750708  0.25258152  0.00157031  1
  V  V66  1  0.37872085  0.23974810  0.13006868  1
  V  V67  1  0.87007974  0.37785912  0.00769670  1
  V  V68  1  0.12943507  0.00243793  0.12409434  1
  V  V69  1  0.25172171  0.74776011  -0.00290547  1
  V  V70  1  0.12483593  0.74926750  0.37561648  1
  V  V71  1  0.38078120  0.62161948  0.24608141  1
  V  V72  1  0.75534259  0.10964251  0.36773156  1
  V  V73  1  0.25018239  0.62526306  0.37491245  1
  V  V74  1  0.50687559  0.26025644  0.75171719  1
  V  V75  1  0.88557622  0.87441638  -0.00402037  1
  V  V76  1  0.87649531  0.00178224  0.88124288  1
  V  V77  1  0.63478689  0.24999126  0.38171288  1
  V  V78  1  0.25333885  0.61146401  0.87096875  1
  V  V79  1  0.75009311  0.49042495  0.24533911  1
  V  V80  1  0.12565220  0.75578757  0.87264229  1
  V  V81  1  0.62252564  0.75040243  0.37376713  1
  V  V82  1  0.88028375  0.49579368  0.37605837  1
  V  V83  1  0.74587682  0.49972583  0.74711860  1
  V  V84  1  0.37175817  0.88082239  0.50043015  1
  Zn  Zn85  1  0.74756879  0.62212294  0.37661584  1
  Zn  Zn86  1  -0.00479986  0.12415879  0.62578706  1
  Zn  Zn87  1  0.24668627  0.49516764  0.25440906  1
  Zn  Zn88  1  0.74688239  0.00447615  0.76006713  1
  Zn  Zn89  1  0.00571296  -0.00354979  -0.00467997  1
  Zn  Zn90  1  0.62699446  0.12685748  0.50084251  1
  Zn  Zn91  1  0.61880079  0.01356180  0.13253017  1
  Zn  Zn92  1  0.87139207  0.74637390  0.62872110  1
  Zn  Zn93  1  0.49600224  0.12777648  0.62535216  1
  Zn  Zn94  1  0.00309685  0.62425335  0.12395856  1
  Zn  Zn95  1  0.00139380  0.49645844  0.49999604  1
  Zn  Zn96  1  0.12356244  0.87436412  0.74796229  1
  Zn  Zn97  1  0.87362794  0.00278419  0.33308614  1
  Zn  Zn98  1  0.50315293  0.74676864  0.24482282  1
  Zn  Zn99  1  0.49477024  0.00539975  0.49948061  1
  Zn  Zn100  1  0.62691927  0.37021842  0.24671996  1
  Zn  Zn101  1  0.37423079  0.00324643  0.87183950  1
  Zn  Zn102  1  0.37568775  0.25035899  0.62610016  1
  Zn  Zn103  1  0.12807017  0.62345370  -0.00012942  1
  Zn  Zn104  1  0.61562507  0.25677443  0.87751838  1
  Zn  Zn105  1  0.37714125  0.12562999  0.74604416  1
  Zn  Zn106  1  0.49843766  0.50229661  0.50108344  1
  Zn  Zn107  1  0.18830617  0.18960596  0.19156698  1
  Zn  Zn108  1  0.18440078  0.17673624  0.68076426  1
  Zn  Zn109  1  0.19199328  0.68307324  0.18579853  1
  Zn  Zn110  1  0.18591937  0.68340312  0.68984536  1
  Zn  Zn111  1  0.68415707  0.18601064  0.18696595  1
  Zn  Zn112  1  0.68610817  0.19027007  0.68888071  1
  Zn  Zn113  1  0.68880407  0.68764608  0.18775306  1
  Zn  Zn114  1  0.68626708  0.68715126  0.68735205  1
  Zn  Zn115  1  0.31551711  0.30870069  0.31671125  1
  Zn  Zn116  1  0.34071122  0.32469433  0.80647099  1
  Zn  Zn117  1  0.31380291  0.80992210  0.31204883  1
  Zn  Zn118  1  0.31089294  0.81356546  0.81278694  1
  Zn  Zn119  1  0.81557937  0.31150015  0.31154143  1
  Zn  Zn120  1  0.78215334  0.32714298  0.82486613  1
  Zn  Zn121  1  0.81042603  0.81404157  0.31294349  1
  Zn  Zn122  1  0.81381012  0.81647907  0.81463033  1
  Zn  Zn123  1  0.18772472  0.43981421  0.44268013  1
  Zn  Zn124  1  0.18959271  0.43740378  0.94762360  1
  Zn  Zn125  1  0.18782684  0.93924429  0.43700022  1
  Zn  Zn126  1  0.18757840  0.93747652  0.93576606  1
  Zn  Zn127  1  0.69050474  0.43797681  0.43697672  1
  Zn  Zn128  1  0.68477199  0.43530605  0.93866646  1
  Zn  Zn129  1  0.68634579  0.93970098  0.43726794  1
  Zn  Zn130  1  0.69144644  0.94095625  0.94164733  1
  Zn  Zn131  1  0.31144715  0.06344859  0.05789664  1
  Zn  Zn132  1  0.30909934  0.06572108  0.56409375  1
  Zn  Zn133  1  0.31236848  0.55932383  0.06183723  1
  Zn  Zn134  1  0.31210430  0.56486168  0.56549235  1
  Zn  Zn135  1  0.83147599  0.04585672  0.12087637  1
  Zn  Zn136  1  0.80601126  0.06859750  0.55794611  1
  Zn  Zn137  1  0.80904050  0.56242959  0.06189328  1
  Zn  Zn138  1  0.81107132  0.56220201  0.55967186  1
  Zn  Zn139  1  0.43992648  0.43672865  0.18339653  1
  Zn  Zn140  1  0.44174369  0.43544068  0.68510629  1
  Zn  Zn141  1  0.44200657  0.93458648  0.18501608  1
  Zn  Zn142  1  0.43460389  0.93730509  0.68647823  1
  Zn  Zn143  1  0.93800537  0.43862969  0.18794485  1
  Zn  Zn144  1  0.93737522  0.43591223  0.68630106  1
  Zn  Zn145  1  0.94666708  0.93015781  0.17923868  1
  Zn  Zn146  1  0.93473008  0.93978428  0.68756653  1
  Zn  Zn147  1  0.06760547  0.06144824  0.31388194  1
  Zn  Zn148  1  0.05653585  0.06029029  0.81191620  1
  Zn  Zn149  1  0.06054232  0.56202391  0.31342677  1
  Zn  Zn150  1  0.06593712  0.56501352  0.81311439  1
  Zn  Zn151  1  0.56473810  0.06191755  0.31856249  1
  Zn  Zn152  1  0.56324765  0.07169827  0.81457431  1
  Zn  Zn153  1  0.56272987  0.56193420  0.31267697  1
  Zn  Zn154  1  0.56206875  0.56130385  0.81290585  1
  Zn  Zn155  1  0.44169219  0.18976315  0.44326817  1
  Zn  Zn156  1  0.43284580  0.19171517  0.93103929  1
  Zn  Zn157  1  0.43601194  0.69212155  0.43620078  1
  Zn  Zn158  1  0.43767261  0.68308004  0.93337309  1
  Zn  Zn159  1  0.93067731  0.18688854  0.43173250  1
  Zn  Zn160  1  0.93495693  0.18671953  0.94085545  1
  Zn  Zn161  1  0.93622784  0.68472024  0.43925881  1
  Zn  Zn162  1  0.93760736  0.68606234  0.93473697  1
  Zn  Zn163  1  0.06192796  0.31495074  0.06395116  1
  Zn  Zn164  1  0.05884250  0.31244755  0.56585038  1
  Zn  Zn165  1  0.06623493  0.80792771  0.06325635  1
  Zn  Zn166  1  0.05695918  0.80952751  0.56444664  1
  Zn  Zn167  1  0.56390236  0.30630068  0.06557484  1
  Zn  Zn168  1  0.55999160  0.31508066  0.56339719  1
  Zn  Zn169  1  0.56272882  0.81488404  0.06106075  1
  Zn  Zn170  1  0.55975013  0.81671963  0.56418370  1
  O  O171  1  0.12461878  0.11920496  0.11915066  1
  O  O172  1  0.11773338  0.11545515  0.60860376  1
  O  O173  1  0.12491931  0.61497661  0.12084737  1
  O  O174  1  0.11435741  0.61940174  0.62079839  1
  O  O175  1  0.62258793  0.12764598  0.10759921  1
  O  O176  1  0.63170601  0.11074611  0.62407874  1
  O  O177  1  0.62855362  0.62114618  0.11255236  1
  O  O178  1  0.62980137  0.61759106  0.61553418  1
  O  O179  1  0.38082004  0.38223431  0.38101760  1
  O  O180  1  0.37014122  0.37911783  0.89784155  1
  O  O181  1  0.38385420  0.86368538  0.38554765  1
  O  O182  1  0.38349726  0.87657711  0.88067536  1
  O  O183  1  0.86951807  0.38229837  0.38434936  1
  O  O184  1  0.87945314  0.38573663  0.88397959  1
  O  O185  1  0.87985143  0.88144021  0.37719461  1
  O  O186  1  0.87452061  0.87852480  0.88886650  1
  O  O187  1  0.24560934  0.01372305  0.36834922  1
  O  O188  1  0.24870360  0.00707040  0.86600612  1
  O  O189  1  0.25493925  0.50831803  0.37461398  1
  O  O190  1  0.24480755  0.51323093  0.87915165  1
  O  O191  1  0.75266953  0.00456122  0.36854334  1
  O  O192  1  0.76791841  -0.00681632  0.87536281  1
  O  O193  1  0.75898636  0.50283197  0.36512371  1
  O  O194  1  0.75582386  0.50760923  0.86709471  1
  O  O195  1  0.24250951  0.49153092  0.12727341  1
  O  O196  1  0.23398199  0.50636158  0.62343722  1
  O  O197  1  0.24395266  0.99703897  0.13034430  1
  O  O198  1  0.23635295  1.00469405  0.63149903  1
  O  O199  1  0.73895038  0.50663979  0.13452689  1
  O  O200  1  0.74365817  0.49858863  0.63015867  1
  O  O201  1  0.73723419  0.98318559  0.11444598  1
  O  O202  1  0.74487107  0.98871127  0.62530936  1
  O  O203  1  0.00325972  0.36602934  0.25100002  1
  O  O204  1  -0.00712773  0.36879082  0.76344311  1
  O  O205  1  0.00936377  0.86680773  0.25319044  1
  O  O206  1  0.00122722  0.85935304  0.74396144  1
  O  O207  1  0.50129512  0.37389326  0.26276404  1
  O  O208  1  0.49615428  0.36141775  0.75012350  1
  O  O209  1  0.50590906  0.86815968  0.25752207  1
  O  O210  1  0.50266896  0.86950869  0.76073879  1
  O  O211  1  0.50015098  0.13346194  0.25426858  1
  O  O212  1  0.49705959  0.13340717  0.74631063  1
  O  O213  1  0.48548224  0.62847153  0.25640248  1
  O  O214  1  0.48481981  0.63362298  0.76029909  1
  O  O215  1  1.00879934  0.12879813  0.23974176  1
  O  O216  1  0.99013501  0.13351072  0.74804044  1
  O  O217  1  0.98778518  0.62957785  0.24908613  1
  O  O218  1  1.00247638  0.63289044  0.73881836  1
  O  O219  1  0.37068959  0.25967054  0.00767728  1
  O  O220  1  0.36433273  0.25954139  0.49805716  1
  O  O221  1  0.37153232  0.75309290  0.00395548  1
  O  O222  1  0.36600846  0.75257127  0.50928745  1
  O  O223  1  0.87747998  0.25972893  0.01278723  1
  O  O224  1  0.87920281  0.25573322  0.50999548  1
  O  O225  1  0.87147593  0.75446140  0.00297589  1
  O  O226  1  0.86491810  0.75678449  0.49994475  1
  O  O227  1  0.12621757  0.24334771  0.49461636  1
  O  O228  1  0.13274213  0.24293387  1.00617699  1
  O  O229  1  0.12938816  0.74154342  0.49910336  1
  O  O230  1  0.13216283  0.74508589  0.99279891  1
  O  O231  1  0.62134652  0.25232032  0.48411473  1
  O  O232  1  0.63840739  0.24408470  1.00114477  1
  O  O233  1  0.62956871  0.74691234  0.49642181  1
  O  O234  1  0.62799670  0.74214919  0.99459624  1
  O  O235  1  0.49442397  0.25333469  0.14232146  1
  O  O236  1  0.50062768  0.24989214  0.63478646  1
  O  O237  1  0.48684710  0.75198542  0.12271953  1
  O  O238  1  0.49414089  0.75365083  0.63976991  1
  O  O239  1  0.99966612  0.24629119  0.13823481  1
  O  O240  1  0.98912095  0.25030118  0.63769399  1
  O  O241  1  0.99400505  0.74672881  0.13263835  1
  O  O242  1  0.99755851  0.73949830  0.63665366  1
  O  O243  1  0.00555804  0.24478998  0.36099950  1
  O  O244  1  -0.00708146  0.25799225  0.86516857  1
  O  O245  1  0.00505091  0.75443584  0.37019749  1
  O  O246  1  0.00799860  0.74000163  0.86050767  1
  O  O247  1  0.50623789  0.25516666  0.36570837  1
  O  O248  1  0.49866284  0.25144437  0.86128242  1
  O  O249  1  0.51176969  0.75839599  0.37611080  1
  O  O250  1  0.50329045  0.75743887  0.86654692  1
  O  O251  1  0.24010339  0.12968920  0.48921404  1
  O  O252  1  0.24019396  0.13177102  0.99199094  1
  O  O253  1  0.24262139  0.63503527  0.49546943  1
  O  O254  1  0.25373798  0.62954636  0.98745493  1
  O  O255  1  0.74322902  0.12165493  0.47908238  1
  O  O256  1  0.74371920  0.12872849  1.00652340  1
  O  O257  1  0.74374053  0.63886654  0.49994576  1
  O  O258  1  0.74167705  0.62946501  0.99002165  1
  O  O259  1  0.25961125  0.37025757  0.01163468  1
  O  O260  1  0.25873481  0.36505581  0.49224927  1
  O  O261  1  0.25675127  0.86944386  0.00439191  1
  O  O262  1  0.25417436  0.86170483  0.49258163  1
  O  O263  1  0.76527416  0.36876422  0.00539161  1
  O  O264  1  0.76242369  0.38220854  0.51130708  1
  O  O265  1  0.75541986  0.86522772  0.00671601  1
  O  O266  1  0.75187803  0.86668531  0.50580852  1
  O  O267  1  0.12526747  0.50392099  0.23855688  1
  O  O268  1  0.12295107  0.50031562  0.73960143  1
  O  O269  1  0.13397600  0.99375928  0.24229443  1
  O  O270  1  0.12569832  0.99770103  0.73850829  1
  O  O271  1  0.63259506  0.50048795  0.24282893  1
  O  O272  1  0.63445422  0.50740941  0.74034044  1
  O  O273  1  0.61848406  0.98609370  0.24812218  1
  O  O274  1  0.62696202  0.99402327  0.74633139  1
  O  O275  1  0.36323167  -0.00590162  0.24416050  1
  O  O276  1  0.36405396  0.00188043  0.75064732  1
  O  O277  1  0.37339473  0.50615355  0.25526334  1
  O  O278  1  0.37869692  0.51280240  0.74357722  1
  O  O279  1  0.87361771  0.00218371  0.22046802  1
  O  O280  1  0.87446423  0.00827219  0.75872197  1
  O  O281  1  0.86921864  0.50614409  0.25341902  1
  O  O282  1  0.87127228  0.50112946  0.76089563  1
  O  O283  1  0.12726718  0.36261772  0.38128566  1
  O  O284  1  0.11757080  0.37139825  0.87800539  1
  O  O285  1  0.11895570  0.86917116  0.37036640  1
  O  O286  1  0.12672949  0.86008927  0.87506771  1
  O  O287  1  0.61933251  0.36644014  0.37346987  1
  O  O288  1  0.67433696  0.35353152  0.86671646  1
  O  O289  1  0.61999010  0.86849351  0.36820537  1
  O  O290  1  0.61937444  0.86959027  0.87264309  1
  O  O291  1  0.36764720  0.14076378  0.12021965  1
  O  O292  1  0.37500662  0.13117885  0.62551156  1
  O  O293  1  0.36749120  0.63209160  0.13370119  1
  O  O294  1  0.37147219  0.63516965  0.63948466  1
  O  O295  1  0.89373580  0.13932506  0.11518030  1
  O  O296  1  0.87304416  0.13345321  0.63048622  1
  O  O297  1  0.87607458  0.63000205  0.13203311  1
  O  O298  1  0.88924450  0.62616781  0.61978731  1
  O  O299  1  0.25608246  0.25639178  0.12367021  1
  O  O300  1  0.24518977  0.24551832  0.60994992  1
  O  O301  1  0.25764428  0.75400318  0.11629585  1
  O  O302  1  0.25561884  0.74559231  0.61773640  1
  O  O303  1  0.76571081  0.24339043  0.12173850  1
  O  O304  1  0.75902455  0.26073971  0.62998546  1
  O  O305  1  0.75591615  0.75423518  0.11759265  1
  O  O306  1  0.74944190  0.76037028  0.61930863  1
  O  O307  1  0.24093972  0.23970845  0.37867826  1
  O  O308  1  0.23785021  0.24680314  0.87500200  1
  O  O309  1  0.24343134  0.74345742  0.38221269  1
  O  O310  1  0.24442690  0.74410892  0.88009598  1
  O  O311  1  0.73601636  0.25135444  0.37006823  1
  O  O312  1  0.77775946  0.23704581  0.89713953  1
  O  O313  1  0.73808942  0.75147789  0.38362588  1
  O  O314  1  0.74511435  0.74368899  0.87802907  1
  O  O315  1  0.01360607  0.12753015  0.00801554  1
  O  O316  1  0.00263977  0.11745969  0.49676165  1
  O  O317  1  0.00072533  0.61197096  -0.00038768  1
  O  O318  1  0.00764431  0.62709946  0.51240888  1
  O  O319  1  0.49588745  0.11663573  -0.00404467  1
  O  O320  1  0.50716443  0.12201338  0.50482126  1
  O  O321  1  0.50953613  0.61547690  -0.00632176  1
  O  O322  1  0.51075539  0.62749118  0.49787804  1
  O  O323  1  0.49057916  0.37513889  0.48727929  1
  O  O324  1  0.48941464  0.37756187  1.00754391  1
  O  O325  1  0.48850105  0.87333655  0.49287417  1
  O  O326  1  0.49755102  0.87827078  0.98766835  1
  O  O327  1  0.98560950  0.37824642  0.50408969  1
  O  O328  1  0.99387368  0.38355286  0.99053963  1
  O  O329  1  0.99357818  0.88070766  0.49338028  1
  O  O330  1  0.98936707  0.87376955  1.00883128  1
  O  O331  1  0.49480443  0.49279042  0.37817809  1
  O  O332  1  0.51147577  0.49403670  0.89058741  1
  O  O333  1  0.50212007  0.98560793  0.37869139  1
  O  O334  1  0.49879826  0.99326044  0.88238318  1
  O  O335  1  0.98498827  0.50463003  0.37673215  1
  O  O336  1  0.99426817  0.49593295  0.87961539  1
  O  O337  1  0.99481174  0.99500773  0.37838279  1
  O  O338  1  0.98690793  0.99788182  0.87928895  1
  O  O339  1  0.01724731  0.00773085  0.12099900  1
  O  O340  1  0.00430242  0.00189916  0.61488564  1
  O  O341  1  0.00678082  0.49977077  0.11721801  1
  O  O342  1  0.00463325  0.51123289  0.62548942  1
  O  O343  1  0.50535506  -0.01136044  0.10781085  1
  O  O344  1  0.50926246  -0.00213068  0.62353507  1
  O  O345  1  0.51376345  0.49936792  0.11658781  1
  O  O346  1  0.51439688  0.49776243  0.62075312  1
  O  O347  1  0.25546913  0.37415388  0.24013251  1
  O  O348  1  0.23677823  0.36045006  0.76459841  1
  O  O349  1  0.24628167  0.88059705  0.24592988  1
  O  O350  1  0.24464589  0.88804588  0.75379829  1
  O  O351  1  0.74987601  0.38708340  0.25052773  1
  O  O352  1  0.76091632  0.39367952  0.73253581  1
  O  O353  1  0.73994383  0.86690429  0.23889396  1
  O  O354  1  0.74408457  0.87524563  0.74213090  1
  O  O355  1  0.24614661  0.11848333  0.26437221  1
  O  O356  1  0.24501267  0.11389140  0.75581201  1
  O  O357  1  0.26055584  0.62382319  0.25955035  1
  O  O358  1  0.26132892  0.62807183  0.76121466  1
  O  O359  1  0.74177083  0.12863475  0.26764828  1
  O  O360  1  0.76144477  0.12414129  0.74858675  1
  O  O361  1  0.76105437  0.62041555  0.25162659  1
  O  O362  1  0.74821377  0.61942698  0.76038541  1
  O  O363  1  0.35979282  0.12968032  0.38133333  1
  O  O364  1  0.35480607  0.12538794  0.87436298  1
  O  O365  1  0.36948556  0.62064008  0.37091890  1
  O  O366  1  0.36265527  0.62705749  0.86328878  1
  O  O367  1  0.86080939  0.11805229  0.37237944  1
  O  O368  1  0.88128449  0.11558771  0.86830908  1
  O  O369  1  0.87077996  0.61960270  0.36760084  1
  O  O370  1  0.86343855  0.61500919  0.88261083  1
  O  O371  1  0.13632116  0.38433201  0.11973195  1
  O  O372  1  0.11967981  0.39243725  0.61917844  1
  O  O373  1  0.13308051  0.88194113  0.12839912  1
  O  O374  1  0.12105153  0.88673558  0.62049139  1
  O  O375  1  0.62591876  0.38462186  0.12660116  1
  O  O376  1  0.63596046  0.38666016  0.61542352  1
  O  O377  1  0.63242358  0.86862006  0.13421045  1
  O  O378  1  0.63099704  0.88233714  0.63201554  1
  O  O379  1  0.11331134  0.24888737  0.25838711  1
  O  O380  1  0.11675992  0.24748050  0.74954197  1
  O  O381  1  0.12284257  0.75336310  0.25429248  1
  O  O382  1  0.11639604  0.75195864  0.75511487  1
  O  O383  1  0.61270666  0.25165720  0.25694561  1
  O  O384  1  0.61203502  0.24590267  0.75312916  1
  O  O385  1  0.62345479  0.75409383  0.25854831  1
  O  O386  1  0.61630853  0.75464546  0.75493460  1
  O  O387  1  0.38986087  0.25150905  0.24637500  1
  O  O388  1  0.38637821  0.24635236  0.74496801  1
  O  O389  1  0.37521953  0.74208745  0.23923254  1
  O  O390  1  0.37931729  0.74697148  0.74485621  1
  O  O391  1  0.88982688  0.25413260  0.24451867  1
  O  O392  1  0.87842288  0.24384848  0.74482711  1
  O  O393  1  0.87821414  0.74271741  0.24616385  1
  O  O394  1  0.88763012  0.75122548  0.75081214  1
  O  O395  1  0.37532395  0.49633301  0.49446010  1
  O  O396  1  0.38614367  0.48688234  1.01143807  1
  O  O397  1  0.36993976  0.98357315  0.50640255  1
  O  O398  1  0.38186147  0.99353157  0.99727619  1
  O  O399  1  0.87598379  0.49428079  0.49147449  1
  O  O400  1  0.88099051  0.49452132  0.99626054  1
  O  O401  1  0.88449084  0.99559366  0.50490235  1
  O  O402  1  0.87903233  0.98890949  1.00080475  1
  O  O403  1  0.12774097  0.00770869  0.00803900  1
  O  O404  1  0.11313483  0.00505122  0.50079017  1
  O  O405  1  0.11581591  0.50146380  0.00898362  1
  O  O406  1  0.12140183  0.51347273  0.50261930  1
  O  O407  1  0.61930865  0.01311098  -0.00132564  1
  O  O408  1  0.62068905  -0.00381211  0.51124172  1
  O  O409  1  0.62317777  0.50441331  0.00692279  1
  O  O410  1  0.62662113  0.51183014  0.50468310  1
  O  O411  1  0.36830817  0.36607822  0.12023866  1
  O  O412  1  0.37675347  0.37478728  0.61057838  1
  O  O413  1  0.36983847  0.86555559  0.11855845  1
  O  O414  1  0.37712995  0.86033341  0.61780275  1
  O  O415  1  0.88420468  0.36567166  0.11825673  1
  O  O416  1  0.86991858  0.36840481  0.61765044  1
  O  O417  1  0.86702831  0.86494420  0.11577205  1
  O  O418  1  0.86594229  0.87225038  0.61826941  1
  O  O419  1  0.12884925  0.13121482  0.38475359  1
  O  O420  1  0.13160165  0.11967147  0.88308404  1
  O  O421  1  0.12813328  0.63030248  0.38318060  1
  O  O422  1  0.13821654  0.63379100  0.87458835  1
  O  O423  1  0.63064021  0.13656279  0.37634734  1
  O  O424  1  0.62324995  0.13324416  0.89472452  1
  O  O425  1  0.62684424  0.63377873  0.38197843  1
  O  O426  1  0.63238972  0.63043036  0.88186864  1
