# generated using pymatgen
data_V85Zn86O256
_symmetry_space_group_name_H-M   'P 1'
_cell_length_a   16.92181793
_cell_length_b   16.92986388
_cell_length_c   16.93100266
_cell_angle_alpha   89.93903685
_cell_angle_beta   90.06277468
_cell_angle_gamma   89.98759667
_symmetry_Int_Tables_number   1
_chemical_formula_structural   V85Zn86O256
_chemical_formula_sum   'V85 Zn86 O256'
_cell_volume   4850.45684755
_cell_formula_units_Z   1
loop_
 _symmetry_equiv_pos_site_id
 _symmetry_equiv_pos_as_xyz
  1  'x, y, z'
loop_
 _atom_site_type_symbol
 _atom_site_label
 _atom_site_symmetry_multiplicity
 _atom_site_fract_x
 _atom_site_fract_y
 _atom_site_fract_z
 _atom_site_occupancy
  V  V0  1  0.62672314  0.61701796  0.50606248  1
  V  V1  1  0.25342672  0.00027835  0.75203547  1
  V  V2  1  0.00539594  0.50164415  0.49901218  1
  V  V3  1  0.87325334  0.00271643  0.37357820  1
  V  V4  1  0.74437335  0.88912499  0.62454985  1
  V  V5  1  0.74213242  0.12619705  0.37648835  1
  V  V6  1  0.36716280  0.00252849  0.37154400  1
  V  V7  1  0.13262564  0.13413305  0.50023340  1
  V  V8  1  0.50008187  0.24563238  0.24461628  1
  V  V9  1  0.63492114  0.24169347  0.86689115  1
  V  V10  1  0.87246352  0.74764834  0.12119817  1
  V  V11  1  0.50469611  0.37528564  0.37930903  1
  V  V12  1  0.12726854  0.62493767  0.00045164  1
  V  V13  1  0.87369600  0.49996192  0.37692312  1
  V  V14  1  -0.01182992  0.50294172  -0.00485671  1
  V  V15  1  -0.00117979  0.25115779  0.24317777  1
  V  V16  1  0.12162855  0.11987964  -0.00119673  1
  V  V17  1  -0.00630311  0.37911427  0.87441673  1
  V  V18  1  0.75324785  0.49544668  0.24206101  1
  V  V19  1  0.12727857  0.49972791  0.12130675  1
  V  V20  1  0.25131895  0.62512629  0.87426570  1
  V  V21  1  0.12366534  0.25111278  0.87582181  1
  V  V22  1  0.75261788  0.24629012  0.51018221  1
  V  V23  1  0.12534837  0.00066860  0.62583279  1
  V  V24  1  -0.01220711  0.12969215  0.62295696  1
  V  V25  1  0.00151130  0.75254719  0.25057198  1
  V  V26  1  0.12789872  0.50320570  0.62320212  1
  V  V27  1  0.74868357  0.87362242  0.12794574  1
  V  V28  1  0.24293328  0.62332596  0.37977104  1
  V  V29  1  0.00052003  0.87636402  0.37507354  1
  V  V30  1  0.74159115  0.61141999  0.87226978  1
  V  V31  1  0.37654808  0.62245755  0.75082124  1
  V  V32  1  0.62378664  0.38737364  0.74193764  1
  V  V33  1  0.50614733  0.61525557  0.62985178  1
  V  V34  1  0.38328438  0.87946071  0.00666509  1
  V  V35  1  0.38215147  0.00087706  0.87890810  1
  V  V36  1  -0.00008740  0.75277345  0.75444244  1
  V  V37  1  0.74891237  0.00253705  0.76997050  1
  V  V38  1  0.37660594  0.73838942  0.13400496  1
  V  V39  1  0.00086388  0.62698667  0.12362352  1
  V  V40  1  0.61848368  -0.00123641  0.12074112  1
  V  V41  1  0.75364930  0.39024787  0.62866589  1
  V  V42  1  0.37863846  0.49276485  0.88632487  1
  V  V43  1  0.87451214  0.87654253  0.50136728  1
  V  V44  1  0.13037657  0.00233794  0.12961218  1
  V  V45  1  0.74674047  0.74999756  0.50247387  1
  V  V46  1  0.87131266  0.13079130  0.24648016  1
  V  V47  1  0.62505437  0.87108398  0.75100101  1
  V  V48  1  0.87059238  0.37364074  0.00376940  1
  V  V49  1  0.50505199  0.86964887  0.87981964  1
  V  V50  1  0.57893749  0.43161659  0.19580384  1
  V  V51  1  0.00067269  0.37423035  0.37325604  1
  V  V52  1  0.37670560  0.87783023  0.50152113  1
  V  V53  1  0.12721105  0.37433003  0.24690833  1
  V  V54  1  0.25082599  0.49507820  0.74947284  1
  V  V55  1  0.51433560  0.12313971  0.62371596  1
  V  V56  1  -0.00942435  0.25056767  0.74786022  1
  V  V57  1  0.37721552  0.50690296  0.37648526  1
  V  V58  1  -0.00021037  0.00300572  0.50030426  1
  V  V59  1  0.50060022  0.37303565  0.88583443  1
  V  V60  1  -0.00058616  0.89047853  0.87951442  1
  V  V61  1  0.75304973  0.23961405  0.00589607  1
  V  V62  1  0.25194407  0.50863811  0.24477124  1
  V  V63  1  0.36600924  0.24373785  0.62208676  1
  V  V64  1  0.51111887  0.00529690  0.49952988  1
  V  V65  1  0.87347077  0.62696047  0.24988744  1
  V  V66  1  0.24607540  0.74566205  0.50298233  1
  V  V67  1  0.37003424  0.12518740  0.24474514  1
  V  V68  1  0.73954851  0.74889325  -0.01231413  1
  V  V69  1  0.00217311  0.62713129  0.62132559  1
  V  V70  1  0.87960508  0.88599570  -0.00145920  1
  V  V71  1  0.49986514  0.73809608  0.25296345  1
  V  V72  1  -0.00467515  0.12126432  0.12128377  1
  V  V73  1  0.62560078  0.25146369  0.37606437  1
  V  V74  1  0.13310422  0.87964104  0.25421718  1
  V  V75  1  0.87213027  0.12000505  0.76510072  1
  V  V76  1  0.25227526  0.75431905  0.00393820  1
  V  V77  1  0.87499410  0.75235882  0.62733870  1
  V  V78  1  0.87429699  0.61321840  0.75892639  1
  V  V79  1  0.12524464  0.75282439  0.87702676  1
  V  V80  1  0.36685982  0.36894760  0.49849484  1
  V  V81  1  0.37939064  0.74991586  0.62899583  1
  V  V82  1  0.26001330  0.25296179  0.00072235  1
  V  V83  1  0.49659872  0.12343594  0.11380540  1
  V  V84  1  0.25970255  0.37306616  0.11926162  1
  Zn  Zn85  1  0.50064742  0.24910805  0.74664271  1
  Zn  Zn86  1  0.87779203  0.37042940  0.50693503  1
  Zn  Zn87  1  0.74765471  0.62469692  0.37576361  1
  Zn  Zn88  1  0.24628906  0.36834631  0.62087865  1
  Zn  Zn89  1  0.25548211  0.88197705  0.13352851  1
  Zn  Zn90  1  0.54872123  0.56776956  0.05073752  1
  Zn  Zn91  1  0.12335154  0.74756559  0.38082147  1
  Zn  Zn92  1  0.37820086  0.12401311  0.74857840  1
  Zn  Zn93  1  0.13180054  0.25438176  0.37740587  1
  Zn  Zn94  1  0.75284142  0.36898536  0.12877558  1
  Zn  Zn95  1  0.25267324  0.13326687  0.37360737  1
  Zn  Zn96  1  0.12323315  0.37319263  0.74817590  1
  Zn  Zn97  1  0.25085681  0.87455415  0.62773112  1
  Zn  Zn98  1  0.62524416  0.11645768  -0.00930155  1
  Zn  Zn99  1  0.50976591  0.74437297  0.75741825  1
  Zn  Zn100  1  0.12505165  0.87762166  0.75237309  1
  Zn  Zn101  1  0.50074217  0.87569228  0.37196816  1
  Zn  Zn102  1  0.74628166  0.00084608  0.24946415  1
  Zn  Zn103  1  0.25386781  0.12623315  0.87525595  1
  Zn  Zn104  1  0.62220135  0.75183636  0.37854039  1
  Zn  Zn105  1  0.50405420  0.49478612  0.50705816  1
  Zn  Zn106  1  0.62031109  0.87441540  0.25158540  1
  Zn  Zn107  1  0.18728934  0.19023289  0.18572487  1
  Zn  Zn108  1  0.18506520  0.18424148  0.68936442  1
  Zn  Zn109  1  0.18919518  0.69091961  0.18887806  1
  Zn  Zn110  1  0.18773900  0.68617814  0.68765510  1
  Zn  Zn111  1  0.68063514  0.18649018  0.18749933  1
  Zn  Zn112  1  0.69017656  0.18416565  0.69004451  1
  Zn  Zn113  1  0.68054722  0.68328343  0.18707322  1
  Zn  Zn114  1  0.69030360  0.68805881  0.69016194  1
  Zn  Zn115  1  0.31359307  0.31087310  0.31261850  1
  Zn  Zn116  1  0.31484354  0.31003662  0.80900966  1
  Zn  Zn117  1  0.31553871  0.81143973  0.31734123  1
  Zn  Zn118  1  0.31567920  0.81579007  0.81397173  1
  Zn  Zn119  1  0.81317341  0.31294033  0.31362613  1
  Zn  Zn120  1  0.81257971  0.31618665  0.81137269  1
  Zn  Zn121  1  0.81164693  0.81185541  0.31408115  1
  Zn  Zn122  1  0.81700441  0.81768975  0.81313768  1
  Zn  Zn123  1  0.18669761  0.43816105  0.43613952  1
  Zn  Zn124  1  0.18571363  0.43669863  0.93560441  1
  Zn  Zn125  1  0.19011126  0.93944050  0.43990134  1
  Zn  Zn126  1  0.19010711  0.93910664  0.93879821  1
  Zn  Zn127  1  0.68973871  0.43540971  0.43886999  1
  Zn  Zn128  1  0.68257391  0.43232702  0.93606026  1
  Zn  Zn129  1  0.68649034  0.93558956  0.43400140  1
  Zn  Zn130  1  0.68589604  0.93149336  0.94281239  1
  Zn  Zn131  1  0.31135900  0.06511218  0.06146234  1
  Zn  Zn132  1  0.31488619  0.06103604  0.56385862  1
  Zn  Zn133  1  0.34538918  0.57285800  0.04749748  1
  Zn  Zn134  1  0.31673471  0.56138493  0.56100470  1
  Zn  Zn135  1  0.80908961  0.06170990  0.06445088  1
  Zn  Zn136  1  0.81068099  0.06638010  0.56146457  1
  Zn  Zn137  1  0.71082685  0.56411404  0.05586656  1
  Zn  Zn138  1  0.81774271  0.56460858  0.56411838  1
  Zn  Zn139  1  0.41770307  0.43400655  0.19044675  1
  Zn  Zn140  1  0.43548501  0.43195066  0.68913406  1
  Zn  Zn141  1  0.44066071  0.93696776  0.19086824  1
  Zn  Zn142  1  0.44204170  0.93876609  0.68795042  1
  Zn  Zn143  1  0.93602069  0.43931206  0.18306489  1
  Zn  Zn144  1  0.93623901  0.43653430  0.68573841  1
  Zn  Zn145  1  0.93871416  0.94129988  0.18667807  1
  Zn  Zn146  1  0.93530688  0.94036654  0.69108670  1
  Zn  Zn147  1  0.06281318  0.06423262  0.31287335  1
  Zn  Zn148  1  0.06388950  0.06724587  0.80995730  1
  Zn  Zn149  1  0.06468932  0.56326806  0.31139391  1
  Zn  Zn150  1  0.06329155  0.56319232  0.81143102  1
  Zn  Zn151  1  0.56023285  0.06010431  0.30909251  1
  Zn  Zn152  1  0.56304388  0.05649832  0.80822642  1
  Zn  Zn153  1  0.56251658  0.56945699  0.32111763  1
  Zn  Zn154  1  0.56322218  0.55837509  0.82080866  1
  Zn  Zn155  1  0.43679531  0.18693257  0.43737156  1
  Zn  Zn156  1  0.44064008  0.18954448  0.93200472  1
  Zn  Zn157  1  0.43727788  0.68586227  0.44120342  1
  Zn  Zn158  1  0.44025851  0.68782591  0.93984742  1
  Zn  Zn159  1  0.93591437  0.19014162  0.43352450  1
  Zn  Zn160  1  0.93701084  0.18833065  0.93898286  1
  Zn  Zn161  1  0.93631377  0.68819387  0.43841316  1
  Zn  Zn162  1  0.93332251  0.69133887  0.93819554  1
  Zn  Zn163  1  0.06326754  0.31124823  0.06119749  1
  Zn  Zn164  1  0.06054697  0.31484850  0.56539866  1
  Zn  Zn165  1  0.06329767  0.81745987  0.06407935  1
  Zn  Zn166  1  0.06347505  0.81518072  0.56384092  1
  Zn  Zn167  1  0.56535948  0.30177925  0.05681455  1
  Zn  Zn168  1  0.56460325  0.30713204  0.56172792  1
  Zn  Zn169  1  0.56155436  0.80501210  0.06828824  1
  Zn  Zn170  1  0.56255218  0.81276444  0.56598833  1
  O  O171  1  0.11846681  0.12050695  0.11965012  1
  O  O172  1  0.11608380  0.11782985  0.61682639  1
  O  O173  1  0.12156486  0.62192382  0.11899477  1
  O  O174  1  0.11539405  0.61391001  0.63060770  1
  O  O175  1  0.61640110  0.11572783  0.12174094  1
  O  O176  1  0.61325010  0.12731728  0.62299241  1
  O  O177  1  0.62958773  0.62349935  0.11077317  1
  O  O178  1  0.61687679  0.63045061  0.62184062  1
  O  O179  1  0.38578258  0.38122137  0.38019903  1
  O  O180  1  0.39342000  0.37720554  0.86392562  1
  O  O181  1  0.37698748  0.88398257  0.38426324  1
  O  O182  1  0.38220605  0.88092344  0.88485062  1
  O  O183  1  0.88256063  0.38723748  0.37630783  1
  O  O184  1  0.88636191  0.37183217  0.88340130  1
  O  O185  1  0.87938684  0.88185365  0.38112871  1
  O  O186  1  0.88735608  0.87241274  0.88575303  1
  O  O187  1  0.26327607  0.00806032  0.38139289  1
  O  O188  1  0.26089669  0.00033427  0.86897328  1
  O  O189  1  0.25507613  0.50608059  0.36941924  1
  O  O190  1  0.25127888  0.50306978  0.86451822  1
  O  O191  1  0.75443444  0.00923521  0.37376687  1
  O  O192  1  0.75054595  -0.00432045  0.86824239  1
  O  O193  1  0.75975348  0.50016215  0.36941250  1
  O  O194  1  0.75102318  0.51297534  0.87536683  1
  O  O195  1  0.24719081  0.49432992  0.13107760  1
  O  O196  1  0.24288014  0.50144988  0.63068113  1
  O  O197  1  0.23569596  1.00009256  0.12219169  1
  O  O198  1  0.24274510  0.99920503  0.63261809  1
  O  O199  1  0.75855426  0.49749619  0.13922245  1
  O  O200  1  0.75061024  0.48886105  0.62145377  1
  O  O201  1  0.74394045  0.98921400  0.12832137  1
  O  O202  1  0.75214485  0.99058437  0.62458232  1
  O  O203  1  0.00347572  0.36911281  0.25073079  1
  O  O204  1  -0.00129475  0.36786664  0.75565356  1
  O  O205  1  0.00673667  0.87145634  0.25612297  1
  O  O206  1  0.00095960  0.86861953  0.75812203  1
  O  O207  1  0.50652706  0.37194031  0.25210019  1
  O  O208  1  0.51418506  0.37075212  0.74909182  1
  O  O209  1  0.50072536  0.86181325  0.25248324  1
  O  O210  1  0.50945435  0.87401027  0.75747474  1
  O  O211  1  0.49315069  0.13127358  0.24220685  1
  O  O212  1  0.50024064  0.12161282  0.73414478  1
  O  O213  1  0.49742313  0.63787124  0.25420373  1
  O  O214  1  0.49647914  0.62550016  0.74722946  1
  O  O215  1  0.99341506  0.13305291  0.24530180  1
  O  O216  1  0.99267986  0.13067229  0.74261520  1
  O  O217  1  0.99542869  0.63167918  0.24490594  1
  O  O218  1  0.99227660  0.63192306  0.74453488  1
  O  O219  1  0.35820851  0.24809413  -0.00850683  1
  O  O220  1  0.37877375  0.25734287  0.50761946  1
  O  O221  1  0.36939556  0.75711207  0.01461608  1
  O  O222  1  0.36935820  0.75707612  0.50885694  1
  O  O223  1  0.85957764  0.25541212  -0.00755748  1
  O  O224  1  0.85788406  0.25413828  0.49174263  1
  O  O225  1  0.86928079  0.75821800  0.00864529  1
  O  O226  1  0.86934725  0.75584511  0.50795042  1
  O  O227  1  0.11831382  0.23694127  0.50129725  1
  O  O228  1  0.12640880  0.24158121  0.98895858  1
  O  O229  1  0.14167162  0.75740698  0.50205526  1
  O  O230  1  0.13415928  0.74588585  0.99952225  1
  O  O231  1  0.63759737  0.25309850  0.48676689  1
  O  O232  1  0.63822793  0.24674712  0.98541516  1
  O  O233  1  0.63291830  0.74281118  0.50355038  1
  O  O234  1  0.64099345  0.75591520  0.99918488  1
  O  O235  1  0.50880506  0.23919768  0.13391494  1
  O  O236  1  0.49476309  0.23511428  0.62213122  1
  O  O237  1  0.48582857  0.74816449  0.13543779  1
  O  O238  1  0.48967211  0.74190921  0.62890795  1
  O  O239  1  1.00480294  0.24029911  0.13619618  1
  O  O240  1  1.00378917  0.24254633  0.63595429  1
  O  O241  1  0.99457130  0.74705872  0.13004978  1
  O  O242  1  0.99856037  0.74406971  0.63184210  1
  O  O243  1  0.00352178  0.25704714  0.36363316  1
  O  O244  1  0.00566707  0.25690345  0.86907294  1
  O  O245  1  0.00173814  0.75678553  0.37109151  1
  O  O246  1  0.00659506  0.75433422  0.86857279  1
  O  O247  1  0.50677519  0.25668871  0.37087842  1
  O  O248  1  0.51084368  0.25882674  0.86969467  1
  O  O249  1  0.49440596  0.75051240  0.36436645  1
  O  O250  1  0.49210623  0.76290409  0.87331263  1
  O  O251  1  0.23393095  0.12165294  0.50411822  1
  O  O252  1  0.24111326  0.13760563  0.99843457  1
  O  O253  1  0.25450588  0.63353344  0.49412055  1
  O  O254  1  0.25124933  0.63760616  0.99417424  1
  O  O255  1  0.75219249  0.13705004  0.49205711  1
  O  O256  1  0.74963959  0.13620167  0.99849285  1
  O  O257  1  0.74513694  0.63323205  0.50469749  1
  O  O258  1  0.76049357  0.63920605  0.98069975  1
  O  O259  1  0.23817260  0.36052966  0.00505944  1
  O  O260  1  0.26254628  0.37999068  0.50030994  1
  O  O261  1  0.25804764  0.86434081  0.00050614  1
  O  O262  1  0.26227725  0.86967141  0.50383956  1
  O  O263  1  0.75675609  0.36467121  0.00075097  1
  O  O264  1  0.74974862  0.36693474  0.51351782  1
  O  O265  1  0.75805055  0.86498771  0.00879884  1
  O  O266  1  0.75387449  0.87070711  0.50737741  1
  O  O267  1  0.13094341  0.49427168  0.24223736  1
  O  O268  1  0.13277537  0.49906800  0.74214077  1
  O  O269  1  0.12101741  0.99271699  0.24337674  1
  O  O270  1  0.13222076  1.00161669  0.74177450  1
  O  O271  1  0.63335555  0.49804320  0.25610503  1
  O  O272  1  0.62493404  0.48545192  0.75105546  1
  O  O273  1  0.62686991  0.99678721  0.23824640  1
  O  O274  1  0.64128682  0.99073267  0.75253563  1
  O  O275  1  0.38149330  0.01021898  0.26068688  1
  O  O276  1  0.36889146  -0.00109389  0.75742290  1
  O  O277  1  0.36286993  0.49845625  0.26308918  1
  O  O278  1  0.36617911  0.50229953  0.75483585  1
  O  O279  1  0.87349559  0.01193459  0.25628953  1
  O  O280  1  0.85946001  0.00552406  0.74783349  1
  O  O281  1  0.87200460  0.50617476  0.25704887  1
  O  O282  1  0.88114985  0.51508890  0.74980566  1
  O  O283  1  0.11743430  0.37802448  0.36529142  1
  O  O284  1  0.11354185  0.36678876  0.87244394  1
  O  O285  1  0.11912272  0.87650368  0.37092583  1
  O  O286  1  0.11849449  0.86922388  0.87674769  1
  O  O287  1  0.61303428  0.36970756  0.37863719  1
  O  O288  1  0.61807323  0.36610046  0.86229990  1
  O  O289  1  0.62095574  0.86902750  0.37151498  1
  O  O290  1  0.61414316  0.88011494  0.86943889  1
  O  O291  1  0.38469430  0.11886314  0.13115298  1
  O  O292  1  0.38218882  0.13147578  0.62431304  1
  O  O293  1  0.35949665  0.64093450  0.13838139  1
  O  O294  1  0.38222328  0.63076106  0.63158960  1
  O  O295  1  0.88244259  0.12064373  0.13376730  1
  O  O296  1  0.88544407  0.12137633  0.63215845  1
  O  O297  1  0.88228104  0.63934949  0.13088729  1
  O  O298  1  0.88193763  0.63207496  0.63672405  1
  O  O299  1  0.24267457  0.25756869  0.10877666  1
  O  O300  1  0.26014649  0.24898814  0.62936459  1
  O  O301  1  0.25793733  0.75721334  0.12091441  1
  O  O302  1  0.26060894  0.74932317  0.62103312  1
  O  O303  1  0.74337335  0.24886386  0.10942246  1
  O  O304  1  0.74608807  0.25009265  0.61190584  1
  O  O305  1  0.75742285  0.75442112  0.11694786  1
  O  O306  1  0.75586247  0.75903119  0.61761781  1
  O  O307  1  0.24518059  0.24735842  0.37217844  1
  O  O308  1  0.24155221  0.25132876  0.88167394  1
  O  O309  1  0.25185543  0.74030900  0.38423051  1
  O  O310  1  0.24598408  0.74759745  0.88268735  1
  O  O311  1  0.74297347  0.24603980  0.38028093  1
  O  O312  1  0.73821944  0.25430498  0.87904336  1
  O  O313  1  0.75335219  0.74891327  0.39195665  1
  O  O314  1  0.75435298  0.75352493  0.88595202  1
  O  O315  1  0.00717655  0.13201307  0.01058736  1
  O  O316  1  0.00344078  0.12257197  0.50630972  1
  O  O317  1  0.00397271  0.61996120  0.00258012  1
  O  O318  1  -0.00498569  0.62015906  0.51394095  1
  O  O319  1  0.50265473  0.13205975  0.01030918  1
  O  O320  1  0.49823825  0.11316261  0.50725908  1
  O  O321  1  0.45333088  0.60250095  0.00772073  1
  O  O322  1  0.50877537  0.62393909  0.51125716  1
  O  O323  1  0.49394195  0.37520918  0.49361875  1
  O  O324  1  0.50464167  0.36859594  0.98468049  1
  O  O325  1  0.49072163  0.88407159  0.50212504  1
  O  O326  1  0.49107987  0.86849308  0.99624944  1
  O  O327  1  0.99770423  0.38307950  0.49431736  1
  O  O328  1  0.99570424  0.37996174  0.99293133  1
  O  O329  1  0.99471758  0.88168505  0.49569060  1
  O  O330  1  0.99279294  0.87134829  0.99132676  1
  O  O331  1  0.49310119  0.49283980  0.37597967  1
  O  O332  1  0.49269048  0.48452663  0.87272496  1
  O  O333  1  0.49139124  1.00175543  0.38740077  1
  O  O334  1  0.48909744  0.98925596  0.87134857  1
  O  O335  1  0.99598983  0.49752556  0.38179769  1
  O  O336  1  1.00815176  0.49112246  0.88276224  1
  O  O337  1  0.99336501  0.99685813  0.38105245  1
  O  O338  1  1.00621087  0.98922569  0.87028968  1
  O  O339  1  0.01066983  0.01399225  0.12928321  1
  O  O340  1  0.00620909  0.00808790  0.62196479  1
  O  O341  1  0.00578984  0.50832024  0.11636578  1
  O  O342  1  0.00539415  0.50632695  0.61881124  1
  O  O343  1  0.50749564  0.00881969  0.12730929  1
  O  O344  1  0.49502572  0.01157763  0.61218389  1
  O  O345  1  0.51090603  0.48599867  0.14262904  1
  O  O346  1  0.49338183  0.51177281  0.62609901  1
  O  O347  1  0.24580326  0.38263812  0.24034051  1
  O  O348  1  0.24731310  0.38492163  0.74699217  1
  O  O349  1  0.23678865  0.87077794  0.25407815  1
  O  O350  1  0.24719009  0.88640937  0.74944582  1
  O  O351  1  0.75606032  0.38459484  0.24689097  1
  O  O352  1  0.74110572  0.37056616  0.73639935  1
  O  O353  1  0.74984925  0.87207664  0.23727792  1
  O  O354  1  0.74819047  0.88528633  0.74494701  1
  O  O355  1  0.26609396  0.13163227  0.24518957  1
  O  O356  1  0.25131299  0.11212688  0.75324396  1
  O  O357  1  0.24294085  0.61416996  0.25866201  1
  O  O358  1  0.25443218  0.61563337  0.75501542  1
  O  O359  1  0.75659647  0.12736661  0.25627681  1
  O  O360  1  0.75613717  0.11094192  0.74898931  1
  O  O361  1  0.75817386  0.61976720  0.25424685  1
  O  O362  1  0.76523467  0.63211842  0.75978137  1
  O  O363  1  0.37584767  0.11901113  0.36635275  1
  O  O364  1  0.37615925  0.11553961  0.87171219  1
  O  O365  1  0.36622541  0.61218655  0.38319666  1
  O  O366  1  0.36891520  0.61398650  0.86737203  1
  O  O367  1  0.86476982  0.12200079  0.36799306  1
  O  O368  1  0.88299022  0.12106342  0.86411605  1
  O  O369  1  0.87571763  0.61401057  0.37091551  1
  O  O370  1  0.87167861  0.62975148  0.86218389  1
  O  O371  1  0.12975434  0.38138948  0.12916281  1
  O  O372  1  0.12643443  0.38809366  0.62673310  1
  O  O373  1  0.12536212  0.88515219  0.13473423  1
  O  O374  1  0.12567178  0.88960784  0.62717190  1
  O  O375  1  0.62836228  0.37206788  0.12927697  1
  O  O376  1  0.63358541  0.37049309  0.63505420  1
  O  O377  1  0.63271647  0.87864645  0.12545939  1
  O  O378  1  0.63375271  0.87419057  0.63402878  1
  O  O379  1  0.11656425  0.25775948  0.24976590  1
  O  O380  1  0.11541241  0.24785224  0.76066538  1
  O  O381  1  0.11716051  0.75915085  0.25276116  1
  O  O382  1  0.11445065  0.75139285  0.75372211  1
  O  O383  1  0.61468722  0.24630288  0.26383160  1
  O  O384  1  0.62630547  0.25463828  0.75782800  1
  O  O385  1  0.61070631  0.74929430  0.25220638  1
  O  O386  1  0.62838752  0.76577931  0.74896143  1
  O  O387  1  0.39191333  0.24367012  0.25464922  1
  O  O388  1  0.38025997  0.24588355  0.73882376  1
  O  O389  1  0.38173069  0.75596741  0.24059159  1
  O  O390  1  0.37417214  0.74279778  0.74315261  1
  O  O391  1  0.88275884  0.23917883  0.25460007  1
  O  O392  1  0.88418769  0.24163702  0.75542466  1
  O  O393  1  0.88161461  0.74709016  0.24455278  1
  O  O394  1  0.88686345  0.74808214  0.74613956  1
  O  O395  1  0.37954915  0.49038380  0.49256736  1
  O  O396  1  0.35075055  0.47996017  0.98113883  1
  O  O397  1  0.38073129  0.99309457  0.49506681  1
  O  O398  1  0.36860252  0.98956658  0.99272732  1
  O  O399  1  0.88641304  0.49947618  0.49383933  1
  O  O400  1  0.88811535  0.49177686  0.99821380  1
  O  O401  1  0.88037295  0.99674277  0.49480881  1
  O  O402  1  0.87237532  0.98499053  1.00822958  1
  O  O403  1  0.12897666  0.01378868  0.00544230  1
  O  O404  1  0.11900184  0.00797707  0.50763198  1
  O  O405  1  0.11984641  0.50748477  0.00409518  1
  O  O406  1  0.11358835  0.49912377  0.50603773  1
  O  O407  1  0.63090441  0.00124119  0.01387253  1
  O  O408  1  0.60935853  -0.00405931  0.49711502  1
  O  O409  1  0.63060828  0.50620707  -0.00143170  1
  O  O410  1  0.62494966  0.51270641  0.49746117  1
  O  O411  1  0.35977588  0.36984393  0.12048243  1
  O  O412  1  0.37401651  0.36460267  0.61555968  1
  O  O413  1  0.37311676  0.87180430  0.11924445  1
  O  O414  1  0.37563013  0.86698990  0.62069118  1
  O  O415  1  0.87750104  0.37435512  0.10846605  1
  O  O416  1  0.85956597  0.37580137  0.62582986  1
  O  O417  1  0.87123119  0.86643734  0.12209129  1
  O  O418  1  0.86961044  0.87105061  0.62003016  1
  O  O419  1  0.12403797  0.12414858  0.39097055  1
  O  O420  1  0.12619861  0.13224361  0.88251301  1
  O  O421  1  0.13737167  0.62603092  0.37610535  1
  O  O422  1  0.13139534  0.63222842  0.88071662  1
  O  O423  1  0.63620449  0.12992713  0.37021280  1
  O  O424  1  0.61730394  0.13824562  0.87238576  1
  O  O425  1  0.62900919  0.63245481  0.38938967  1
  O  O426  1  0.64237932  0.62823206  0.86377471  1
