# generated using pymatgen
data_V85Zn86O256
_symmetry_space_group_name_H-M   'P 1'
_cell_length_a   16.94301200
_cell_length_b   16.93153566
_cell_length_c   16.94409997
_cell_angle_alpha   90.00121577
_cell_angle_beta   89.99161300
_cell_angle_gamma   89.90880474
_symmetry_Int_Tables_number   1
_chemical_formula_structural   V85Zn86O256
_chemical_formula_sum   'V85 Zn86 O256'
_cell_volume   4860.76828219
_cell_formula_units_Z   1
loop_
 _symmetry_equiv_pos_site_id
 _symmetry_equiv_pos_as_xyz
  1  'x, y, z'
loop_
 _atom_site_type_symbol
 _atom_site_label
 _atom_site_symmetry_multiplicity
 _atom_site_fract_x
 _atom_site_fract_y
 _atom_site_fract_z
 _atom_site_occupancy
  V  V0  1  0.62351970  0.24911705  0.87278751  1
  V  V1  1  0.63568575  -0.00616907  0.12830513  1
  V  V2  1  0.87556364  0.75393335  0.62153118  1
  V  V3  1  0.38243501  0.87498728  0.48949601  1
  V  V4  1  0.00014256  -0.00427956  0.50706105  1
  V  V5  1  0.13513204  -0.00357043  0.14013033  1
  V  V6  1  0.74825174  0.37772551  0.12601819  1
  V  V7  1  -0.00196169  0.12168819  0.12947397  1
  V  V8  1  0.24827671  0.75059304  0.49760453  1
  V  V9  1  0.60115665  0.75567833  0.37585784  1
  V  V10  1  0.24751376  0.24889648  0.49726313  1
  V  V11  1  0.74797273  0.75259969  0.00309188  1
  V  V12  1  -0.00530710  0.50582786  -0.00525107  1
  V  V13  1  0.75325374  0.12206682  0.87591376  1
  V  V14  1  0.61420800  0.86800631  0.24942862  1
  V  V15  1  0.00289301  0.49945447  0.49433161  1
  V  V16  1  0.49811610  0.62635347  0.62633049  1
  V  V17  1  0.86537766  0.75318538  0.13217183  1
  V  V18  1  0.56502487  0.41797530  0.80772454  1
  V  V19  1  0.25226879  0.12492933  0.87530409  1
  V  V20  1  0.00157128  0.74937443  0.25011419  1
  V  V21  1  0.12512693  0.11951108  0.50639953  1
  V  V22  1  0.00272328  0.87695806  0.37281267  1
  V  V23  1  0.88043529  0.37514069  0.49854834  1
  V  V24  1  0.12959455  0.75360735  0.36800340  1
  V  V25  1  0.75866190  0.24803230  0.00363063  1
  V  V26  1  0.93141634  0.29803474  0.18680368  1
  V  V27  1  0.24969519  0.85641591  0.13010636  1
  V  V28  1  0.37210745  0.37890078  0.49433657  1
  V  V29  1  0.38672050  0.61954775  0.25367789  1
  V  V30  1  0.75092628  0.25031347  0.49926379  1
  V  V31  1  0.37379003  0.62594262  0.75256973  1
  V  V32  1  0.49756278  0.38043161  0.37310135  1
  V  V33  1  0.12621728  0.37512100  0.75178673  1
  V  V34  1  0.74923935  0.12201941  0.37152361  1
  V  V35  1  0.74931227  0.37400487  0.63044303  1
  V  V36  1  0.00231491  -0.00588462  -0.00327483  1
  V  V37  1  0.87365281  0.12117150  0.24708174  1
  V  V38  1  0.39683378  0.73799953  0.12336691  1
  V  V39  1  0.38215682  0.12263229  0.74578979  1
  V  V40  1  0.12547360  0.12294660  0.00112603  1
  V  V41  1  0.24575831  0.00168242  0.74618397  1
  V  V42  1  0.49785401  0.01323900  0.49674499  1
  V  V43  1  0.36963227  0.11561779  0.24569445  1
  V  V44  1  0.49669125  0.49988251  0.49836872  1
  V  V45  1  0.00133519  0.24890375  0.74872361  1
  V  V46  1  0.38092534  0.24493595  0.62111107  1
  V  V47  1  0.50203649  -0.01113579  -0.00110197  1
  V  V48  1  0.37268902  0.75223963  0.62575000  1
  V  V49  1  0.61301954  0.50222938  0.12118402  1
  V  V50  1  0.61582392  0.61896954  -0.00180106  1
  V  V51  1  0.49727902  0.76130338  0.75386085  1
  V  V52  1  0.12670143  0.50221905  0.62522674  1
  V  V53  1  0.00091077  0.62838899  0.12780604  1
  V  V54  1  0.62508237  0.49518885  0.62801507  1
  V  V55  1  0.87658047  0.12191087  0.74800493  1
  V  V56  1  0.25016890  0.25633693  -0.00280078  1
  V  V57  1  0.24207452  0.49664721  0.25504120  1
  V  V58  1  0.00181699  0.75036242  0.75553557  1
  V  V59  1  0.87408811  -0.01114694  0.37956905  1
  V  V60  1  0.37609838  0.25074186  0.12190088  1
  V  V61  1  0.50485432  0.24718157  0.74744385  1
  V  V62  1  0.12192316  0.87789800  0.75313132  1
  V  V63  1  0.25163902  0.49992529  0.75544716  1
  V  V64  1  0.50365552  0.12014585  0.12407099  1
  V  V65  1  0.24398387  0.88014438  0.62142836  1
  V  V66  1  0.75252871  0.87841103  0.62403768  1
  V  V67  1  -0.00927571  0.38193697  0.87124395  1
  V  V68  1  0.37960077  -0.00937102  0.87627474  1
  V  V69  1  -0.00392155  0.62696536  0.62754858  1
  V  V70  1  0.62443034  0.24908870  0.37386968  1
  V  V71  1  0.87538998  0.87361025  -0.00139179  1
  V  V72  1  0.74967156  0.75552717  0.49522003  1
  V  V73  1  0.49910652  0.24885036  0.24888586  1
  V  V74  1  0.24877959  0.11605159  0.36935707  1
  V  V75  1  0.62512715  0.62905130  0.49783147  1
  V  V76  1  0.62611770  0.87748259  0.75475126  1
  V  V77  1  0.62394387  0.75359039  0.87605560  1
  V  V78  1  0.39061023  0.37903047  -0.00729065  1
  V  V79  1  0.25129750  0.62602455  0.88631286  1
  V  V80  1  0.76918275  0.50654761  0.74921960  1
  V  V81  1  0.62356342  0.38016168  0.24776471  1
  V  V82  1  0.11823929  0.25225287  0.36155724  1
  V  V83  1  0.12951275  0.75439994  0.88436396  1
  V  V84  1  0.75021705  -0.00267515  0.75013128  1
  Zn  Zn85  1  0.61337917  0.00632913  0.62867908  1
  Zn  Zn86  1  0.39169892  0.49849248  0.87800209  1
  Zn  Zn87  1  0.12877379  0.62508510  0.49816897  1
  Zn  Zn88  1  0.12182304  0.48745741  0.12623909  1
  Zn  Zn89  1  0.76521639  0.61480930  0.87944479  1
  Zn  Zn90  1  0.25030332  0.37395959  0.62515530  1
  Zn  Zn91  1  0.87695663  0.24610372  0.62390320  1
  Zn  Zn92  1  0.24542020  0.37459963  0.13030270  1
  Zn  Zn93  1  0.86697121  0.52576463  0.36660946  1
  Zn  Zn94  1  0.00313850  0.37486989  0.36213374  1
  Zn  Zn95  1  0.75056965  0.53476245  0.25355185  1
  Zn  Zn96  1  0.62831171  0.12188487  0.00176775  1
  Zn  Zn97  1  0.62330209  0.12585866  0.50527356  1
  Zn  Zn98  1  0.12797150  0.62636251  0.00416599  1
  Zn  Zn99  1  0.37620140  -0.01104550  0.36254279  1
  Zn  Zn100  1  0.00595934  0.11896538  0.62780510  1
  Zn  Zn101  1  0.87648807  0.37796771  -0.00172872  1
  Zn  Zn102  1  0.75716684  -0.03073873  0.24978395  1
  Zn  Zn103  1  0.12526191  0.25114838  0.87330592  1
  Zn  Zn104  1  0.37049806  0.86286189  -0.00139544  1
  Zn  Zn105  1  0.25418162  0.62021169  0.37514787  1
  Zn  Zn106  1  0.88078764  -0.01274129  0.87217405  1
  Zn  Zn107  1  0.18764776  0.18746356  0.18353275  1
  Zn  Zn108  1  0.19116722  0.18822272  0.68513854  1
  Zn  Zn109  1  0.18736618  0.68019308  0.19234979  1
  Zn  Zn110  1  0.18694066  0.68777786  0.68985896  1
  Zn  Zn111  1  0.68889899  0.18897519  0.18797136  1
  Zn  Zn112  1  0.68564365  0.18522051  0.68641582  1
  Zn  Zn113  1  0.66592294  0.68785333  0.18440404  1
  Zn  Zn114  1  0.68897141  0.68659116  0.68454083  1
  Zn  Zn115  1  0.31017195  0.30941110  0.31217687  1
  Zn  Zn116  1  0.31745222  0.31306469  0.81295723  1
  Zn  Zn117  1  0.31529389  0.80734680  0.30332687  1
  Zn  Zn118  1  0.30713003  0.81333521  0.81327685  1
  Zn  Zn119  1  0.79293671  0.35449669  0.33160014  1
  Zn  Zn120  1  0.81129545  0.31023867  0.81009703  1
  Zn  Zn121  1  0.77809182  0.75193408  0.28939535  1
  Zn  Zn122  1  0.83174930  0.77827814  0.82914027  1
  Zn  Zn123  1  0.18593202  0.43465487  0.43187343  1
  Zn  Zn124  1  0.18120521  0.43877573  0.93946877  1
  Zn  Zn125  1  0.18620557  0.93679250  0.43378681  1
  Zn  Zn126  1  0.19183881  0.93533947  0.94373286  1
  Zn  Zn127  1  0.68619834  0.44104723  0.44060659  1
  Zn  Zn128  1  0.69862168  0.44026032  0.93859012  1
  Zn  Zn129  1  0.68166409  0.93450044  0.43475824  1
  Zn  Zn130  1  0.69042866  0.93372858  0.93805971  1
  Zn  Zn131  1  0.31328255  0.06055611  0.05981087  1
  Zn  Zn132  1  0.31430158  0.06106085  0.55982095  1
  Zn  Zn133  1  0.31522209  0.55690107  0.06915487  1
  Zn  Zn134  1  0.31104292  0.56264060  0.56299239  1
  Zn  Zn135  1  0.81445044  0.05953326  0.06297804  1
  Zn  Zn136  1  0.81119385  0.06128156  0.56163304  1
  Zn  Zn137  1  0.81230502  0.56675837  0.06757260  1
  Zn  Zn138  1  0.82942360  0.58554615  0.52968009  1
  Zn  Zn139  1  0.43051921  0.43876601  0.18602539  1
  Zn  Zn140  1  0.42990504  0.43746241  0.68013689  1
  Zn  Zn141  1  0.43636660  0.92925246  0.18303149  1
  Zn  Zn142  1  0.43378525  0.93871070  0.68055132  1
  Zn  Zn143  1  0.93167282  0.46238709  0.18907164  1
  Zn  Zn144  1  0.93882885  0.43529785  0.68038906  1
  Zn  Zn145  1  0.93944427  0.93404086  0.18758192  1
  Zn  Zn146  1  0.93605138  0.93346764  0.68749856  1
  Zn  Zn147  1  0.06010212  0.06704967  0.31595059  1
  Zn  Zn148  1  0.06450870  0.06180458  0.81514261  1
  Zn  Zn149  1  0.06512551  0.56825189  0.31266601  1
  Zn  Zn150  1  0.06263478  0.56649680  0.81394204  1
  Zn  Zn151  1  0.56207710  0.05406962  0.31336410  1
  Zn  Zn152  1  0.56327752  0.06274050  0.81478631  1
  Zn  Zn153  1  0.56786293  0.56382267  0.31355387  1
  Zn  Zn154  1  0.56925035  0.58228328  0.81084622  1
  Zn  Zn155  1  0.43366820  0.18747072  0.43106623  1
  Zn  Zn156  1  0.44034620  0.18355965  0.93728310  1
  Zn  Zn157  1  0.43084669  0.68256906  0.43904654  1
  Zn  Zn158  1  0.43666662  0.68797325  0.93706107  1
  Zn  Zn159  1  0.93701540  0.18348268  0.43550128  1
  Zn  Zn160  1  0.93901299  0.18645851  0.93562119  1
  Zn  Zn161  1  0.93982585  0.69330070  0.43995179  1
  Zn  Zn162  1  0.93773168  0.68654832  0.93914431  1
  Zn  Zn163  1  0.06610351  0.31672753  0.05493675  1
  Zn  Zn164  1  0.06546478  0.31164846  0.56411734  1
  Zn  Zn165  1  0.06423225  0.81731519  0.06741043  1
  Zn  Zn166  1  0.06411487  0.81621594  0.56048763  1
  Zn  Zn167  1  0.56838573  0.30842111  0.05958484  1
  Zn  Zn168  1  0.56292943  0.31090350  0.56169225  1
  Zn  Zn169  1  0.56279937  0.81362860  0.06309193  1
  Zn  Zn170  1  0.56134163  0.81858160  0.56697026  1
  O  O171  1  0.11635512  0.11889840  0.12041284  1
  O  O172  1  0.12761836  0.12633308  0.61105929  1
  O  O173  1  0.11058388  0.62944616  0.12192102  1
  O  O174  1  0.12248294  0.61406123  0.62421417  1
  O  O175  1  0.61845673  0.11476396  0.12701589  1
  O  O176  1  0.63100899  0.11831818  0.61830847  1
  O  O177  1  0.62196118  0.61827753  0.10757051  1
  O  O178  1  0.61496173  0.61454999  0.62372304  1
  O  O179  1  0.38296147  0.36540558  0.38650763  1
  O  O180  1  0.37796205  0.37589590  0.88759913  1
  O  O181  1  0.36402871  0.87428092  0.38404235  1
  O  O182  1  0.36885870  0.88681615  0.87766044  1
  O  O183  1  0.88874556  0.36506356  0.39273785  1
  O  O184  1  0.88756167  0.37179725  0.87097682  1
  O  O185  1  0.88302074  0.88824449  0.37501678  1
  O  O186  1  0.87326956  0.86969028  0.89247438  1
  O  O187  1  0.25207100  0.01281005  0.37586755  1
  O  O188  1  0.25847389  0.00745054  0.86898459  1
  O  O189  1  0.24620602  0.50154346  0.36238537  1
  O  O190  1  0.24702095  0.50584024  0.86459620  1
  O  O191  1  0.75631184  0.00624300  0.37515170  1
  O  O192  1  0.75387032  0.00682075  0.87020944  1
  O  O193  1  0.75887469  0.46670129  0.36049457  1
  O  O194  1  0.75326930  0.49801869  0.85551624  1
  O  O195  1  0.24454556  0.49772832  0.13656490  1
  O  O196  1  0.24384058  0.49959700  0.63627423  1
  O  O197  1  0.23525393  1.01027303  0.12723529  1
  O  O198  1  0.25566013  0.99291008  0.63453046  1
  O  O199  1  0.74374638  0.49145000  0.12652468  1
  O  O200  1  0.74036241  0.49289729  0.63544850  1
  O  O201  1  0.73860706  1.00171330  0.12891595  1
  O  O202  1  0.74960671  0.99278183  0.63173612  1
  O  O203  1  -0.01543579  0.36585031  0.24239096  1
  O  O204  1  0.00477684  0.36868082  0.75195251  1
  O  O205  1  -0.00276931  0.86608798  0.26312772  1
  O  O206  1  0.01621936  0.87153376  0.74502761  1
  O  O207  1  0.50149486  0.37127044  0.25616691  1
  O  O208  1  0.49675142  0.36570797  0.74580626  1
  O  O209  1  0.51285276  0.88436030  0.25404326  1
  O  O210  1  0.50404697  0.86658031  0.74391901  1
  O  O211  1  0.49517528  0.12722343  0.23942717  1
  O  O212  1  0.48792575  0.12814115  0.75287945  1
  O  O213  1  0.48625667  0.61526478  0.25182797  1
  O  O214  1  0.49352453  0.63882019  0.74479126  1
  O  O215  1  0.99126085  0.12208755  0.23815473  1
  O  O216  1  0.99522515  0.12942794  0.74992127  1
  O  O217  1  1.00060655  0.63959566  0.24477839  1
  O  O218  1  1.00884058  0.63596875  0.73640955  1
  O  O219  1  0.37082964  0.25412940  0.00347314  1
  O  O220  1  0.36533728  0.25199417  0.50348032  1
  O  O221  1  0.38024087  0.74602805  0.01594869  1
  O  O222  1  0.36458506  0.75673600  0.50386495  1
  O  O223  1  0.86241307  0.25264153  -0.00822089  1
  O  O224  1  0.86550132  0.25087428  0.50245306  1
  O  O225  1  0.86834116  0.75636732  0.01104466  1
  O  O226  1  0.86475803  0.75662007  0.51340320  1
  O  O227  1  0.13654339  0.24428600  0.49804197  1
  O  O228  1  0.13451078  0.24108772  0.99486167  1
  O  O229  1  0.13796234  0.75179126  0.49538976  1
  O  O230  1  0.11915966  0.75272368  0.98689625  1
  O  O231  1  0.63663785  0.25006100  0.49435587  1
  O  O232  1  0.63675370  0.24513135  0.99016302  1
  O  O233  1  0.62240566  0.74738159  0.49593476  1
  O  O234  1  0.62820052  0.74411023  0.99621767  1
  O  O235  1  0.49596679  0.24133263  0.12742635  1
  O  O236  1  0.48743086  0.25214541  0.62615474  1
  O  O237  1  0.49533558  0.74549103  0.12724247  1
  O  O238  1  0.49237015  0.74745729  0.63263064  1
  O  O239  1  0.99351301  0.24412830  0.12275746  1
  O  O240  1  1.00049388  0.24614016  0.63723149  1
  O  O241  1  0.99481531  0.75010922  0.13384945  1
  O  O242  1  0.99696478  0.74549321  0.62619133  1
  O  O243  1  0.01565660  0.24651942  0.37836865  1
  O  O244  1  0.00268840  0.25479006  0.86267980  1
  O  O245  1  0.00529921  0.75710438  0.37095275  1
  O  O246  1  0.01279867  0.74708532  0.86075448  1
  O  O247  1  0.50433628  0.25741520  0.36914083  1
  O  O248  1  0.51602285  0.24149485  0.87046998  1
  O  O249  1  0.50341440  0.75349884  0.38534150  1
  O  O250  1  0.51110020  0.74629309  0.86612954  1
  O  O251  1  0.24556122  0.13027573  0.49144888  1
  O  O252  1  0.24951428  0.13390404  0.99166963  1
  O  O253  1  0.25087989  0.63542961  0.49732657  1
  O  O254  1  0.25018298  0.61510752  0.98867967  1
  O  O255  1  0.75291195  0.13291766  0.48622773  1
  O  O256  1  0.75184827  0.12948738  0.99263855  1
  O  O257  1  0.72790444  0.64103674  0.52092708  1
  O  O258  1  0.74525537  0.63769965  0.99859807  1
  O  O259  1  0.25562740  0.36257421  -0.00583638  1
  O  O260  1  0.25613482  0.36687741  0.49837709  1
  O  O261  1  0.25828859  0.88830631  0.02367688  1
  O  O262  1  0.25393383  0.87097522  0.50614902  1
  O  O263  1  0.75673400  0.36957399  0.01019251  1
  O  O264  1  0.75812679  0.36890645  0.50938186  1
  O  O265  1  0.75533788  0.86206734  0.00265883  1
  O  O266  1  0.73751527  0.86844595  0.51348519  1
  O  O267  1  0.13682265  0.50371744  0.24825206  1
  O  O268  1  0.13185805  0.49670660  0.74391796  1
  O  O269  1  0.12011628  1.00541451  0.23778461  1
  O  O270  1  0.13753238  0.99489324  0.75521090  1
  O  O271  1  0.63079153  0.49688824  0.24088706  1
  O  O272  1  0.61928685  0.49121476  0.74452925  1
  O  O273  1  0.63056427  0.98768949  0.24555765  1
  O  O274  1  0.62857693  0.99285377  0.75078534  1
  O  O275  1  0.37958036  0.01202865  0.24405401  1
  O  O276  1  0.36928070  0.00507252  0.75570031  1
  O  O277  1  0.36529807  0.51330035  0.24231504  1
  O  O278  1  0.36721165  0.50402843  0.75262445  1
  O  O279  1  0.87040212  0.00373981  0.25590041  1
  O  O280  1  0.87238314  0.00490160  0.75441678  1
  O  O281  1  0.86443714  0.51388622  0.25545098  1
  O  O282  1  0.86767132  0.50389200  0.74059840  1
  O  O283  1  0.12063811  0.35773037  0.37613115  1
  O  O284  1  0.11376023  0.37345279  0.86710184  1
  O  O285  1  0.11862164  0.86388582  0.37621812  1
  O  O286  1  0.13853624  0.86785821  0.86510512  1
  O  O287  1  0.61529487  0.36788257  0.37072156  1
  O  O288  1  0.62982279  0.36723228  0.87558834  1
  O  O289  1  0.61748633  0.86214707  0.37026975  1
  O  O290  1  0.62313189  0.87111225  0.86338301  1
  O  O291  1  0.38154896  0.13282625  0.12687755  1
  O  O292  1  0.36870892  0.13236725  0.63407517  1
  O  O293  1  0.37573879  0.63307488  0.13055419  1
  O  O294  1  0.37856086  0.63203357  0.63195402  1
  O  O295  1  0.87958545  0.11876070  0.13816008  1
  O  O296  1  0.87626179  0.12439888  0.63810952  1
  O  O297  1  0.88786826  0.64342520  0.11874428  1
  O  O298  1  0.88604180  0.63715283  0.62041585  1
  O  O299  1  0.26049940  0.24741585  0.11402871  1
  O  O300  1  0.26048643  0.25189816  0.61573806  1
  O  O301  1  0.24283074  0.75582574  0.12323303  1
  O  O302  1  0.25374955  0.75598318  0.61836663  1
  O  O303  1  0.74249191  0.25662873  0.11172761  1
  O  O304  1  0.75058097  0.25784540  0.61780389  1
  O  O305  1  0.76030731  0.74689460  0.12000922  1
  O  O306  1  0.75680631  0.75844444  0.62366820  1
  O  O307  1  0.24178217  0.24187067  0.38096763  1
  O  O308  1  0.25150147  0.24143555  0.87910392  1
  O  O309  1  0.24429870  0.75100979  0.38095744  1
  O  O310  1  0.24297860  0.73869923  0.87099463  1
  O  O311  1  0.74462200  0.24980963  0.38270679  1
  O  O312  1  0.74250353  0.24280154  0.87766531  1
  O  O313  1  0.73401693  0.75692847  0.39503270  1
  O  O314  1  0.73178298  0.75931550  0.88502527  1
  O  O315  1  0.00185137  0.12051265  0.01149048  1
  O  O316  1  0.00893906  0.11748052  0.50206823  1
  O  O317  1  0.00241459  0.62163886  0.00555270  1
  O  O318  1  0.00775079  0.61749728  0.51160532  1
  O  O319  1  0.50361136  0.11816109  0.01237559  1
  O  O320  1  0.49626351  0.11668147  0.49777454  1
  O  O321  1  0.51761242  0.62124517  -0.01373318  1
  O  O322  1  0.50417782  0.62029693  0.50742657  1
  O  O323  1  0.49273685  0.37773687  0.49207034  1
  O  O324  1  0.48854851  0.36699823  1.00045620  1
  O  O325  1  0.48466541  0.87796259  0.50394717  1
  O  O326  1  0.49442419  0.88572280  1.00298220  1
  O  O327  1  0.99626844  0.38341761  0.50545358  1
  O  O328  1  0.99613801  0.38197421  0.98789207  1
  O  O329  1  1.00490244  0.88302044  0.48708788  1
  O  O330  1  0.99254478  0.88468810  1.00626383  1
  O  O331  1  0.50648115  0.48697272  0.38085357  1
  O  O332  1  0.50998115  0.49206966  0.85901518  1
  O  O333  1  0.49192805  1.00249372  0.38881953  1
  O  O334  1  0.49096621  1.00799768  0.88566973  1
  O  O335  1  1.00206254  0.49870313  0.38515800  1
  O  O336  1  1.00083575  0.49489949  0.87965757  1
  O  O337  1  0.99487431  0.99464842  0.38033436  1
  O  O338  1  0.99827671  1.00793414  0.89181223  1
  O  O339  1  0.00891039  0.00539157  0.11904616  1
  O  O340  1  -0.00339325  -0.00233780  0.61121080  1
  O  O341  1  0.00266204  0.51298306  0.11811948  1
  O  O342  1  0.00841558  0.50727227  0.61921121  1
  O  O343  1  0.50680691  0.00448786  0.11804703  1
  O  O344  1  0.49647552  -0.00494618  0.60494412  1
  O  O345  1  0.51430907  0.48982464  0.12500403  1
  O  O346  1  0.50598647  0.50282310  0.61897155  1
  O  O347  1  0.26304690  0.39149812  0.24954762  1
  O  O348  1  0.24668398  0.38255629  0.74995709  1
  O  O349  1  0.25770283  0.87691457  0.22921300  1
  O  O350  1  0.24423672  0.88333172  0.74194078  1
  O  O351  1  0.73772331  0.35981567  0.23219431  1
  O  O352  1  0.75680380  0.38272467  0.73648048  1
  O  O353  1  0.72607472  0.85910531  0.25760348  1
  O  O354  1  0.74143251  0.88133635  0.74477309  1
  O  O355  1  0.25897786  0.13150440  0.25613417  1
  O  O356  1  0.25717836  0.11897586  0.75550204  1
  O  O357  1  0.25692625  0.61246516  0.25251464  1
  O  O358  1  0.25586883  0.61795135  0.75687186  1
  O  O359  1  0.75564472  0.12752424  0.26183348  1
  O  O360  1  0.75852182  0.11929223  0.75699560  1
  O  O361  1  0.73957220  0.64843450  0.25678002  1
  O  O362  1  0.74292274  0.60695333  0.74685066  1
  O  O363  1  0.36512092  0.12621096  0.36146070  1
  O  O364  1  0.36697879  0.11894282  0.86762158  1
  O  O365  1  0.37233822  0.62874879  0.35927244  1
  O  O366  1  0.36978359  0.61902805  0.87004326  1
  O  O367  1  0.87051156  0.11754740  0.36314062  1
  O  O368  1  0.86631635  0.12450114  0.86532508  1
  O  O369  1  0.85702955  0.62226526  0.42224381  1
  O  O370  1  0.86207171  0.66916723  0.86111296  1
  O  O371  1  0.13204644  0.37217696  0.12243589  1
  O  O372  1  0.12785770  0.38668045  0.63177897  1
  O  O373  1  0.13709472  0.88771333  0.12469346  1
  O  O374  1  0.13807949  0.87144815  0.63290181  1
  O  O375  1  0.63185583  0.38223184  0.12446887  1
  O  O376  1  0.63275022  0.38683470  0.61651066  1
  O  O377  1  0.61996114  0.88017706  0.13753971  1
  O  O378  1  0.63184346  0.87782184  0.63863074  1
  O  O379  1  0.12645589  0.24352535  0.26320196  1
  O  O380  1  0.12007983  0.25529656  0.74965969  1
  O  O381  1  0.11622537  0.74939728  0.25750244  1
  O  O382  1  0.12094655  0.75918940  0.75507763  1
  O  O383  1  0.61580202  0.25662736  0.25315582  1
  O  O384  1  0.61852528  0.24930904  0.75759844  1
  O  O385  1  0.60895077  0.75546240  0.26498020  1
  O  O386  1  0.61875851  0.75548560  0.75650112  1
  O  O387  1  0.37999328  0.24307154  0.23909105  1
  O  O388  1  0.38055157  0.24230625  0.74162769  1
  O  O389  1  0.37128044  0.73278697  0.23480604  1
  O  O390  1  0.38098928  0.74885789  0.74797775  1
  O  O391  1  0.87465406  0.24218684  0.24858959  1
  O  O392  1  0.88316469  0.24001623  0.74826320  1
  O  O393  1  0.88168367  0.75648605  0.23686380  1
  O  O394  1  0.89409936  0.76664634  0.73260191  1
  O  O395  1  0.38058973  0.48924653  0.50513077  1
  O  O396  1  0.37477528  0.48300806  0.99903842  1
  O  O397  1  0.38134881  0.99273239  0.49472329  1
  O  O398  1  0.38450942  1.00206496  0.99142045  1
  O  O399  1  0.88872815  0.48765498  0.50602443  1
  O  O400  1  0.88790133  0.49956239  1.00634757  1
  O  O401  1  0.88627134  1.00986287  0.48939564  1
  O  O402  1  0.88240236  0.99045022  1.00092859  1
  O  O403  1  0.11882891  0.00539516  0.00730416  1
  O  O404  1  0.11508715  0.00871562  0.49192896  1
  O  O405  1  0.11035823  0.50396180  0.00234444  1
  O  O406  1  0.12104279  0.49881320  0.50784377  1
  O  O407  1  0.62016094  -0.00170647  0.00807803  1
  O  O408  1  0.60744447  0.00027370  0.49650883  1
  O  O409  1  0.63399868  0.51252976  0.00327212  1
  O  O410  1  0.62021831  0.50947309  0.50660831  1
  O  O411  1  0.37228926  0.36299035  0.11352345  1
  O  O412  1  0.37153414  0.36562947  0.61043239  1
  O  O413  1  0.36996483  0.85397467  0.12502866  1
  O  O414  1  0.36191551  0.86882581  0.61804603  1
  O  O415  1  0.87218416  0.36653274  0.13001309  1
  O  O416  1  0.86826323  0.36883012  0.61568596  1
  O  O417  1  0.87835290  0.86181356  0.11696543  1
  O  O418  1  0.86081165  0.87220933  0.62541806  1
  O  O419  1  0.13116642  0.13349242  0.38312280  1
  O  O420  1  0.13875240  0.12492339  0.88042543  1
  O  O421  1  0.12755142  0.64045424  0.37940178  1
  O  O422  1  0.13501963  0.63502744  0.87593520  1
  O  O423  1  0.63295969  0.13024678  0.37582319  1
  O  O424  1  0.63897126  0.12993674  0.87580375  1
  O  O425  1  0.61625840  0.63934107  0.38757729  1
  O  O426  1  0.63760315  0.63487901  0.88417725  1
