# generated using pymatgen
data_V85Zn86O256
_symmetry_space_group_name_H-M   'P 1'
_cell_length_a   16.93285230
_cell_length_b   16.94204185
_cell_length_c   16.94107585
_cell_angle_alpha   89.98800368
_cell_angle_beta   90.01001856
_cell_angle_gamma   89.90358535
_symmetry_Int_Tables_number   1
_chemical_formula_structural   V85Zn86O256
_chemical_formula_sum   'V85 Zn86 O256'
_cell_volume   4859.99951870
_cell_formula_units_Z   1
loop_
 _symmetry_equiv_pos_site_id
 _symmetry_equiv_pos_as_xyz
  1  'x, y, z'
loop_
 _atom_site_type_symbol
 _atom_site_label
 _atom_site_symmetry_multiplicity
 _atom_site_fract_x
 _atom_site_fract_y
 _atom_site_fract_z
 _atom_site_occupancy
  V  V0  1  0.62451599  0.75721258  0.87430631  1
  V  V1  1  0.12290781  0.00191895  0.62827552  1
  V  V2  1  0.50634478  0.49467020  0.50289261  1
  V  V3  1  0.87192714  0.12571927  0.23671095  1
  V  V4  1  0.00414553  0.49809278  0.49437100  1
  V  V5  1  0.25018090  0.74553216  0.00212457  1
  V  V6  1  0.24783717  0.61972561  0.37951765  1
  V  V7  1  0.25352769  0.25238180  0.50346724  1
  V  V8  1  0.37302845  0.74730673  0.62471970  1
  V  V9  1  0.37764846  0.49728992  0.87114944  1
  V  V10  1  0.62635873  0.74161464  0.37618751  1
  V  V11  1  0.75857367  0.12489895  0.38150221  1
  V  V12  1  0.24283880  0.87292992  0.63151093  1
  V  V13  1  0.00498111  0.62461069  0.61557917  1
  V  V14  1  0.63732464  0.23735056  0.88520407  1
  V  V15  1  0.63366574  0.88475790  0.73560410  1
  V  V16  1  0.25241423  -0.00009760  0.25060230  1
  V  V17  1  0.87725731  0.74731132  0.12671922  1
  V  V18  1  0.61478604  0.01164438  0.11384952  1
  V  V19  1  0.37272846  0.25342370  0.12733950  1
  V  V20  1  0.62467610  0.25284042  0.38557052  1
  V  V21  1  0.37153635  0.37685493  0.00647565  1
  V  V22  1  0.75400660  -0.00118803  0.25515313  1
  V  V23  1  0.38416161  0.02254332  0.89774824  1
  V  V24  1  0.37792288  0.37150874  0.50345733  1
  V  V25  1  0.12284982  0.62303068  0.00257625  1
  V  V26  1  -0.00982541  0.25542108  0.74690084  1
  V  V27  1  0.74235402  0.50164569  0.74540905  1
  V  V28  1  0.49958468  0.75210281  0.74808287  1
  V  V29  1  0.38059664  0.62038981  0.24964819  1
  V  V30  1  0.74961322  0.75239980  0.50307580  1
  V  V31  1  0.87038820  0.50135854  0.88002399  1
  V  V32  1  0.13063898  0.00047392  0.12606771  1
  V  V33  1  0.25117170  0.12572289  0.37649193  1
  V  V34  1  0.00053139  0.38112763  0.86862263  1
  V  V35  1  0.38045362  0.49236717  0.37665451  1
  V  V36  1  0.24859091  0.74453332  0.49991497  1
  V  V37  1  0.00240904  -0.00449277  -0.00054458  1
  V  V38  1  0.50308619  0.37045940  0.87849879  1
  V  V39  1  0.74665909  0.62839527  0.87572984  1
  V  V40  1  0.24568590  -0.00261212  0.75501149  1
  V  V41  1  0.24168319  0.12920880  0.87266253  1
  V  V42  1  0.62489677  0.37256457  0.24844786  1
  V  V43  1  0.37808089  0.87042313  -0.00236549  1
  V  V44  1  0.62357647  0.50499220  0.12507141  1
  V  V45  1  0.12384942  0.25422486  0.37405729  1
  V  V46  1  0.37304552  0.87437298  0.50161036  1
  V  V47  1  -0.00250236  0.12835568  0.62385680  1
  V  V48  1  0.75119429  0.88002327  0.12582857  1
  V  V49  1  0.38395979  0.12254603  0.24566697  1
  V  V50  1  -0.00719056  0.88303050  0.37811518  1
  V  V51  1  0.38013947  0.74263222  0.12517019  1
  V  V52  1  0.37198324  0.61998786  0.74695967  1
  V  V53  1  0.12539571  0.74607764  0.37992218  1
  V  V54  1  0.50383773  0.24855711  0.24952960  1
  V  V55  1  0.00215621  0.74956085  0.25095910  1
  V  V56  1  0.12784822  0.12745874  0.00132013  1
  V  V57  1  0.12710643  0.87457995  0.25187828  1
  V  V58  1  0.24820839  0.37400311  0.63821951  1
  V  V59  1  0.74997177  0.75298296  0.00005710  1
  V  V60  1  0.50829004  0.61773415  0.62641892  1
  V  V61  1  0.87625870  0.61568205  0.25762218  1
  V  V62  1  0.36964680  0.13530861  0.74073953  1
  V  V63  1  0.12797025  0.49844199  0.63718574  1
  V  V64  1  -0.01109228  0.37579841  0.37111875  1
  V  V65  1  0.49896251  0.88118626  0.87246969  1
  V  V66  1  0.50320421  0.74475355  0.24633513  1
  V  V67  1  0.87500154  0.62709492  0.74852944  1
  V  V68  1  0.75942898  0.01796794  0.74517669  1
  V  V69  1  0.62449215  0.37241081  0.74855514  1
  V  V70  1  0.12900544  0.75252686  0.86742148  1
  V  V71  1  0.25039361  0.61767774  0.87003170  1
  V  V72  1  0.62720030  0.11391472  0.50531971  1
  V  V73  1  0.74894659  0.37761704  0.61967643  1
  V  V74  1  0.62399157  0.87649064  0.25004202  1
  V  V75  1  0.00374759  0.75275186  0.74590840  1
  V  V76  1  0.00463811  0.87439102  0.86922749  1
  V  V77  1  -0.00478454  0.24978969  0.23984910  1
  V  V78  1  0.24902403  0.49106155  0.24302639  1
  V  V79  1  0.86652402  0.24820279  0.61534086  1
  V  V80  1  0.87052341  0.35807880  0.00357098  1
  V  V81  1  0.12385420  0.25829391  0.86628411  1
  V  V82  1  0.87283350  0.75795310  0.62400160  1
  V  V83  1  0.37962066  -0.00035590  0.37703483  1
  V  V84  1  0.87678193  0.87439744  -0.00450787  1
  Zn  Zn85  1  0.50455822  -0.00728334  0.51491368  1
  Zn  Zn86  1  0.23910160  0.26277214  0.01264206  1
  Zn  Zn87  1  0.75589055  0.49069597  0.25352395  1
  Zn  Zn88  1  0.00306071  0.62113343  0.12577630  1
  Zn  Zn89  1  0.12915209  0.36669685  0.23628110  1
  Zn  Zn90  1  0.50038840  0.50618750  0.00525454  1
  Zn  Zn91  1  -0.00757520  0.00694564  0.49808477  1
  Zn  Zn92  1  0.25254161  0.87270305  0.12578041  1
  Zn  Zn93  1  0.49564207  0.12791897  0.62048718  1
  Zn  Zn94  1  0.12862667  0.48860296  0.11721539  1
  Zn  Zn95  1  0.63024609  0.61727357  0.50437445  1
  Zn  Zn96  1  0.86915031  0.38238388  0.49526887  1
  Zn  Zn97  1  0.12570107  0.12482937  0.49906863  1
  Zn  Zn98  1  0.49682412  0.25035278  0.74606821  1
  Zn  Zn99  1  0.84170856  0.04809649  0.89371726  1
  Zn  Zn100  1  0.74861210  0.36336426  0.12111956  1
  Zn  Zn101  1  0.75773143  0.61454479  0.38234190  1
  Zn  Zn102  1  0.61899374  0.63239422  0.00843146  1
  Zn  Zn103  1  -0.00280763  0.12657143  0.12279514  1
  Zn  Zn104  1  -0.00276545  0.50075527  0.00136114  1
  Zn  Zn105  1  0.86436345  0.88707298  0.50134671  1
  Zn  Zn106  1  0.49981670  0.87084281  0.37768853  1
  Zn  Zn107  1  0.19009285  0.18699735  0.18973758  1
  Zn  Zn108  1  0.18214913  0.19037415  0.68704348  1
  Zn  Zn109  1  0.19117881  0.68237880  0.19055786  1
  Zn  Zn110  1  0.18586664  0.68160323  0.68590511  1
  Zn  Zn111  1  0.68488457  0.18433839  0.18829941  1
  Zn  Zn112  1  0.68543868  0.18969168  0.69035061  1
  Zn  Zn113  1  0.69307748  0.68647380  0.18928655  1
  Zn  Zn114  1  0.68802868  0.69264891  0.68835822  1
  Zn  Zn115  1  0.31654260  0.31149171  0.31671773  1
  Zn  Zn116  1  0.31105899  0.31318826  0.81733503  1
  Zn  Zn117  1  0.31269360  0.81082729  0.31286856  1
  Zn  Zn118  1  0.31380785  0.81165004  0.81255121  1
  Zn  Zn119  1  0.80832433  0.30591262  0.31044017  1
  Zn  Zn120  1  0.80996186  0.31135160  0.81282700  1
  Zn  Zn121  1  0.81124397  0.80652954  0.31461979  1
  Zn  Zn122  1  0.81255210  0.82127956  0.81172510  1
  Zn  Zn123  1  0.18376447  0.43628974  0.43989066  1
  Zn  Zn124  1  0.18922243  0.43827739  0.93391692  1
  Zn  Zn125  1  0.18560920  0.93706676  0.44059236  1
  Zn  Zn126  1  0.19089314  0.93614812  0.93783205  1
  Zn  Zn127  1  0.68880365  0.43753971  0.43103660  1
  Zn  Zn128  1  0.68706302  0.43593103  0.93814383  1
  Zn  Zn129  1  0.68855621  0.93561899  0.43454208  1
  Zn  Zn130  1  0.68231390  1.05415506  0.93700975  1
  Zn  Zn131  1  0.32533577  0.06958636  0.05719047  1
  Zn  Zn132  1  0.30989570  0.05907837  0.56196822  1
  Zn  Zn133  1  0.31673971  0.56261037  0.06097777  1
  Zn  Zn134  1  0.31161392  0.55630868  0.56259971  1
  Zn  Zn135  1  0.78686638  0.18232409  0.04512686  1
  Zn  Zn136  1  0.80935261  0.05745226  0.56787946  1
  Zn  Zn137  1  0.80404458  0.56120076  0.06707087  1
  Zn  Zn138  1  0.81743078  0.56391179  0.56209208  1
  Zn  Zn139  1  0.44501929  0.43356041  0.18920989  1
  Zn  Zn140  1  0.43677809  0.43296329  0.68706119  1
  Zn  Zn141  1  0.43968701  0.93187015  0.18698197  1
  Zn  Zn142  1  0.43216104  0.94583885  0.69241024  1
  Zn  Zn143  1  0.94462056  0.43606193  0.18055807  1
  Zn  Zn144  1  0.93351908  0.44011957  0.68631324  1
  Zn  Zn145  1  0.93841426  0.93932227  0.18826989  1
  Zn  Zn146  1  0.93426503  0.94153152  0.68893648  1
  Zn  Zn147  1  0.06218359  0.06660366  0.31141769  1
  Zn  Zn148  1  0.03434768  0.07367541  0.81974923  1
  Zn  Zn149  1  0.06361737  0.56092992  0.31115751  1
  Zn  Zn150  1  0.06033081  0.56537724  0.81117663  1
  Zn  Zn151  1  0.56451711  0.06240225  0.31835861  1
  Zn  Zn152  1  0.55860769  0.06159748  0.80267770  1
  Zn  Zn153  1  0.56396848  0.55666344  0.31349159  1
  Zn  Zn154  1  0.56180167  0.56265400  0.81691884  1
  Zn  Zn155  1  0.44248034  0.18829227  0.43776885  1
  Zn  Zn156  1  0.43414078  0.19169033  0.93652977  1
  Zn  Zn157  1  0.43931021  0.68208694  0.43720913  1
  Zn  Zn158  1  0.44210231  0.68518099  0.93596224  1
  Zn  Zn159  1  0.93617695  0.18984687  0.43750473  1
  Zn  Zn160  1  0.94236622  0.18618955  0.93396580  1
  Zn  Zn161  1  0.93892332  0.69128396  0.43940869  1
  Zn  Zn162  1  0.93872797  0.68839364  0.93574159  1
  Zn  Zn163  1  0.05957791  0.31780026  0.05853341  1
  Zn  Zn164  1  0.06469176  0.31685408  0.56032223  1
  Zn  Zn165  1  0.06587206  0.81012640  0.06399781  1
  Zn  Zn166  1  0.06321767  0.81408522  0.56020456  1
  Zn  Zn167  1  0.56057870  0.31043985  0.06481882  1
  Zn  Zn168  1  0.56011402  0.30650174  0.56906739  1
  Zn  Zn169  1  0.56203671  0.81920265  0.06219478  1
  Zn  Zn170  1  0.55984741  0.80738398  0.56126232  1
  O  O171  1  0.12663404  0.11796328  0.11798403  1
  O  O172  1  0.11972782  0.11840147  0.62031770  1
  O  O173  1  0.12764895  0.62484488  0.11391457  1
  O  O174  1  0.11903737  0.61131827  0.62501434  1
  O  O175  1  0.62213226  0.11126098  0.12541511  1
  O  O176  1  0.62971649  0.13323718  0.60582091  1
  O  O177  1  0.63267452  0.60976119  0.12875882  1
  O  O178  1  0.61124330  0.62773107  0.62755977  1
  O  O179  1  0.37242508  0.38341171  0.38706325  1
  O  O180  1  0.38202755  0.38159267  0.87924288  1
  O  O181  1  0.37291616  0.88039655  0.38427894  1
  O  O182  1  0.38211550  0.87704647  0.88133201  1
  O  O183  1  0.88534847  0.36799674  0.37471647  1
  O  O184  1  0.87841344  0.38303481  0.88129673  1
  O  O185  1  0.89114950  0.86822982  0.37374973  1
  O  O186  1  0.88905671  0.86620034  0.88653360  1
  O  O187  1  0.25898010  0.00386361  0.37194166  1
  O  O188  1  0.25266244  0.01044525  0.87177551  1
  O  O189  1  0.25716860  0.50431762  0.36968948  1
  O  O190  1  0.25826485  0.51153260  0.87464993  1
  O  O191  1  0.74442065  0.00836062  0.36325517  1
  O  O192  1  0.74587152  -0.00403766  0.85569716  1
  O  O193  1  0.74983381  0.50321817  0.36687519  1
  O  O194  1  0.75346217  0.50687754  0.86789385  1
  O  O195  1  0.25389399  0.50640825  0.14087591  1
  O  O196  1  0.23648288  0.49109504  0.62131707  1
  O  O197  1  0.24265216  0.99991675  0.12970642  1
  O  O198  1  0.24481421  0.99118804  0.63318747  1
  O  O199  1  0.73939321  0.49078470  0.13232761  1
  O  O200  1  0.75745360  0.49486097  0.63818327  1
  O  O201  1  0.73298620  0.98884546  0.14160900  1
  O  O202  1  0.74686530  1.00033700  0.64347962  1
  O  O203  1  0.00208408  0.36685708  0.25483326  1
  O  O204  1  -0.00525778  0.37294175  0.76053546  1
  O  O205  1  0.00646074  0.87017801  0.25967122  1
  O  O206  1  -0.00243528  0.86797267  0.75933110  1
  O  O207  1  0.51346664  0.36418772  0.25237549  1
  O  O208  1  0.50824879  0.37479292  0.75755734  1
  O  O209  1  0.50725691  0.86298265  0.25451019  1
  O  O210  1  0.49903173  0.87037605  0.75601394  1
  O  O211  1  0.49182935  0.13048097  0.25798609  1
  O  O212  1  0.47678877  0.12653406  0.75449626  1
  O  O213  1  0.48793141  0.62834152  0.25480618  1
  O  O214  1  0.49057169  0.62832568  0.74542074  1
  O  O215  1  0.99063638  0.13114741  0.24887398  1
  O  O216  1  1.00996035  0.14220889  0.73000819  1
  O  O217  1  0.99311418  0.63149440  0.24822045  1
  O  O218  1  0.99484723  0.63283742  0.74055575  1
  O  O219  1  0.37477922  0.25911069  0.01173545  1
  O  O220  1  0.36358818  0.25680668  0.49243900  1
  O  O221  1  0.36978796  0.75139438  0.00569390  1
  O  O222  1  0.36913428  0.75430698  0.50426447  1
  O  O223  1  0.87899841  0.25527182  -0.00268081  1
  O  O224  1  0.87613214  0.25871916  0.51293996  1
  O  O225  1  0.87405305  0.75499749  0.00810504  1
  O  O226  1  0.86739720  0.75174321  0.50726549  1
  O  O227  1  0.13666252  0.25188818  0.49193669  1
  O  O228  1  0.12204265  0.24206538  0.98961847  1
  O  O229  1  0.13220269  0.75260164  0.48754511  1
  O  O230  1  0.13294233  0.73954373  0.99339748  1
  O  O231  1  0.62077484  0.24455373  0.48777263  1
  O  O232  1  0.61809660  0.25251906  0.98344050  1
  O  O233  1  0.62954522  0.74503393  0.49268343  1
  O  O234  1  0.63161518  0.75606158  0.99142923  1
  O  O235  1  0.49030004  0.25065291  0.13951709  1
  O  O236  1  0.49815200  0.24072045  0.63263635  1
  O  O237  1  0.49532207  0.75224913  0.13751605  1
  O  O238  1  0.49016878  0.73922023  0.62839466  1
  O  O239  1  1.00451622  0.24765059  0.13661184  1
  O  O240  1  0.99194294  0.25143788  0.62815664  1
  O  O241  1  0.99425643  0.74833047  0.13240813  1
  O  O242  1  0.99969892  0.74226232  0.62632552  1
  O  O243  1  0.00754512  0.25632960  0.36899317  1
  O  O244  1  0.00432339  0.26185289  0.86488282  1
  O  O245  1  0.00974517  0.75685989  0.37103306  1
  O  O246  1  0.01041812  0.75526982  0.86887492  1
  O  O247  1  0.51460155  0.24459109  0.36520437  1
  O  O248  1  0.49907043  0.26106691  0.87169239  1
  O  O249  1  0.50544958  0.74812595  0.36494285  1
  O  O250  1  0.50431182  0.75816783  0.86709342  1
  O  O251  1  0.25042222  0.13411604  0.49436148  1
  O  O252  1  0.23953559  0.12809290  0.99247466  1
  O  O253  1  0.25673467  0.62782176  0.48761617  1
  O  O254  1  0.24776029  0.63139798  0.99134177  1
  O  O255  1  0.73967962  0.11916893  0.49139627  1
  O  O256  1  0.77716659  0.10377508  0.97284983  1
  O  O257  1  0.74823289  0.63339957  0.50082143  1
  O  O258  1  0.74418666  0.63491111  0.99399514  1
  O  O259  1  0.26611466  0.37574242  -0.00757049  1
  O  O260  1  0.25752503  0.36950070  0.50550665  1
  O  O261  1  0.25149363  0.85448079  -0.00076212  1
  O  O262  1  0.25774482  0.86755198  0.50729118  1
  O  O263  1  0.76830694  0.37631148  -0.00436883  1
  O  O264  1  0.74782101  0.38395062  0.51620536  1
  O  O265  1  0.76689862  0.86960329  0.00841009  1
  O  O266  1  0.74969932  0.85850967  0.49244080  1
  O  O267  1  0.14273000  0.49952167  0.24964392  1
  O  O268  1  0.12216592  0.50215388  0.73664029  1
  O  O269  1  0.13110091  0.99715744  0.24366224  1
  O  O270  1  0.13763148  1.00629149  0.73977701  1
  O  O271  1  0.62401884  0.48943491  0.24275907  1
  O  O272  1  0.63467936  0.49158545  0.75814328  1
  O  O273  1  0.62870801  0.98880244  0.25266136  1
  O  O274  1  0.62841759  0.98830412  0.74979557  1
  O  O275  1  0.37295495  0.00367450  0.25543488  1
  O  O276  1  0.36008719  0.01298878  0.76430693  1
  O  O277  1  0.37135829  0.50252739  0.25650175  1
  O  O278  1  0.37982424  0.50566264  0.76246551  1
  O  O279  1  0.86467818  0.00706774  0.24581133  1
  O  O280  1  0.86104710  -0.00343254  0.75358457  1
  O  O281  1  0.87986694  0.51397019  0.24139887  1
  O  O282  1  0.86701971  0.50656102  0.76118974  1
  O  O283  1  0.12083480  0.36320251  0.36976846  1
  O  O284  1  0.11400836  0.36996598  0.88043688  1
  O  O285  1  0.12107809  0.86689566  0.36981652  1
  O  O286  1  0.12473712  0.85786920  0.88024721  1
  O  O287  1  0.62895788  0.35827285  0.36913151  1
  O  O288  1  0.61946250  0.36852514  0.86911334  1
  O  O289  1  0.62398070  0.86085437  0.36527075  1
  O  O290  1  0.61277239  0.86428385  0.86195257  1
  O  O291  1  0.37421991  0.13143169  0.14034369  1
  O  O292  1  0.36028882  0.12558148  0.63954399  1
  O  O293  1  0.37332850  0.63453848  0.13294790  1
  O  O294  1  0.37802811  0.62606438  0.63210109  1
  O  O295  1  0.87619890  0.12506097  0.13546754  1
  O  O296  1  0.88129438  0.14167384  0.62104396  1
  O  O297  1  0.87570484  0.63650160  0.13019362  1
  O  O298  1  0.88602357  0.63378633  0.63102199  1
  O  O299  1  0.26598087  0.24618151  0.12750384  1
  O  O300  1  0.24079591  0.26496971  0.61739400  1
  O  O301  1  0.25907510  0.74709759  0.11758660  1
  O  O302  1  0.25255636  0.75408855  0.62155675  1
  O  O303  1  0.74663385  0.24828812  0.12139075  1
  O  O304  1  0.76225590  0.25966014  0.63309658  1
  O  O305  1  0.75859815  0.75779057  0.12172930  1
  O  O306  1  0.76132940  0.74523013  0.61761971  1
  O  O307  1  0.24353568  0.24571389  0.38053207  1
  O  O308  1  0.23881644  0.24635272  0.87848713  1
  O  O309  1  0.24488402  0.74071523  0.37811554  1
  O  O310  1  0.24701233  0.73881494  0.87939229  1
  O  O311  1  0.73482027  0.23778629  0.37085098  1
  O  O312  1  0.73674709  0.24882436  0.87545054  1
  O  O313  1  0.74236788  0.74091176  0.38145948  1
  O  O314  1  0.74271058  0.75069246  0.87916576  1
  O  O315  1  0.01488585  0.11396270  0.00401688  1
  O  O316  1  0.00414121  0.12889448  0.51003186  1
  O  O317  1  0.01121939  0.62595691  -0.00061770  1
  O  O318  1  -0.00101405  0.62062692  0.51031199  1
  O  O319  1  0.42392095  0.08631139  -0.02267849  1
  O  O320  1  0.51451682  0.12016864  0.49610615  1
  O  O321  1  0.50780493  0.61975394  -0.00566998  1
  O  O322  1  0.49964478  0.61447259  0.51044089  1
  O  O323  1  0.48622175  0.37965006  0.51135328  1
  O  O324  1  0.49009439  0.37825446  0.99335244  1
  O  O325  1  0.48559777  0.87273237  0.49923168  1
  O  O326  1  0.48832606  0.86897433  0.98839797  1
  O  O327  1  0.99942197  0.38066316  0.48826257  1
  O  O328  1  0.98577779  0.37759680  0.98641099  1
  O  O329  1  1.00167449  0.87539562  0.48430176  1
  O  O330  1  0.99901316  0.87535462  0.99441838  1
  O  O331  1  0.48758558  0.50412726  0.38456314  1
  O  O332  1  0.49450539  0.48785692  0.87647621  1
  O  O333  1  0.48686152  0.99405083  0.37727829  1
  O  O334  1  0.48905178  0.99006482  0.86753762  1
  O  O335  1  1.00823539  0.48835450  0.38059028  1
  O  O336  1  0.99051467  0.49695661  0.87529475  1
  O  O337  1  1.00861627  0.98590767  0.37517323  1
  O  O338  1  1.02523615  0.97854666  0.88613982  1
  O  O339  1  0.01449949  -0.00147121  0.11836671  1
  O  O340  1  0.00744991  0.01044932  0.62858767  1
  O  O341  1  0.00928130  0.50428306  0.11780562  1
  O  O342  1  0.00994957  0.50513434  0.62262089  1
  O  O343  1  0.51625011  -0.00939413  0.12986407  1
  O  O344  1  0.48654390  0.01400018  0.62448344  1
  O  O345  1  0.51768114  0.49633972  0.12550988  1
  O  O346  1  0.49238788  0.50721099  0.61688356  1
  O  O347  1  0.25322915  0.38891567  0.25588804  1
  O  O348  1  0.25303256  0.37324881  0.73701220  1
  O  O349  1  0.24590591  0.88157790  0.24899940  1
  O  O350  1  0.25508510  0.88367200  0.74357839  1
  O  O351  1  0.73757593  0.36996280  0.24651873  1
  O  O352  1  0.74371444  0.38333898  0.74534144  1
  O  O353  1  0.74492881  0.87859976  0.24927601  1
  O  O354  1  0.73476035  0.87245960  0.74654003  1
  O  O355  1  0.25945343  0.11832638  0.25855723  1
  O  O356  1  0.24934215  0.12142786  0.75539330  1
  O  O357  1  0.26239097  0.61627048  0.25989565  1
  O  O358  1  0.26329355  0.62878201  0.75580293  1
  O  O359  1  0.75577282  0.11644872  0.25676063  1
  O  O360  1  0.75033510  0.11873047  0.75049828  1
  O  O361  1  0.76966940  0.62653847  0.25143190  1
  O  O362  1  0.75343690  0.61968824  0.75455648  1
  O  O363  1  0.37155843  0.11625989  0.36947524  1
  O  O364  1  0.35358599  0.13128729  0.86106170  1
  O  O365  1  0.36851107  0.61625991  0.36839417  1
  O  O366  1  0.36971545  0.61844668  0.86723053  1
  O  O367  1  0.86193710  0.13214527  0.36942840  1
  O  O368  1  0.92986796  0.10575365  0.86110277  1
  O  O369  1  0.88057942  0.62968000  0.36029162  1
  O  O370  1  0.86786894  0.62190061  0.86869714  1
  O  O371  1  0.13103214  0.37433259  0.12212751  1
  O  O372  1  0.13551868  0.38590366  0.62385311  1
  O  O373  1  0.13007576  0.88116603  0.13209836  1
  O  O374  1  0.13637373  0.88042310  0.62273271  1
  O  O375  1  0.62570747  0.38024837  0.13228349  1
  O  O376  1  0.63346306  0.36705755  0.64034481  1
  O  O377  1  0.63203623  0.87086635  0.13864500  1
  O  O378  1  0.61548867  0.87012791  0.63856566  1
  O  O379  1  0.11774349  0.24744085  0.25791769  1
  O  O380  1  0.11566696  0.25215966  0.76110340  1
  O  O381  1  0.12316285  0.75354510  0.25836612  1
  O  O382  1  0.11986721  0.74369008  0.75801670  1
  O  O383  1  0.61815508  0.25177251  0.25669388  1
  O  O384  1  0.62223997  0.25712165  0.76406512  1
  O  O385  1  0.61965105  0.75120070  0.25510886  1
  O  O386  1  0.61729717  0.75771639  0.75466275  1
  O  O387  1  0.38250979  0.24311968  0.24925314  1
  O  O388  1  0.36895519  0.23823328  0.75200803  1
  O  O389  1  0.38131192  0.74181448  0.24452086  1
  O  O390  1  0.38026076  0.74136120  0.74458443  1
  O  O391  1  0.88511575  0.24022771  0.25400300  1
  O  O392  1  0.88536326  0.25619218  0.74128089  1
  O  O393  1  0.88237996  0.74431387  0.24282351  1
  O  O394  1  0.88063959  0.74672927  0.74325439  1
  O  O395  1  0.38077093  0.49166793  0.49332608  1
  O  O396  1  0.37713165  0.49553889  0.98958948  1
  O  O397  1  0.37164498  0.99008993  0.49220332  1
  O  O398  1  0.34448203  0.97143005  0.99549932  1
  O  O399  1  0.89581719  0.49775769  0.50925429  1
  O  O400  1  0.87230793  0.50510563  0.98688460  1
  O  O401  1  0.87939419  0.99811350  0.50415211  1
  O  O402  1  0.89758368  0.98687670  0.99855200  1
  O  O403  1  0.12497689  0.00362432  0.00867833  1
  O  O404  1  0.12344159  0.00131920  0.51476505  1
  O  O405  1  0.12775527  0.51370971  -0.00452706  1
  O  O406  1  0.11208249  0.49583729  0.51071932  1
  O  O407  1  0.62430873  -0.00635647  0.01477176  1
  O  O408  1  0.62200010  0.00902732  0.49410036  1
  O  O409  1  0.62736703  0.49843865  0.01467517  1
  O  O410  1  0.60967223  0.49734799  0.49518741  1
  O  O411  1  0.37984399  0.36864985  0.11843700  1
  O  O412  1  0.35716994  0.38311908  0.61779079  1
  O  O413  1  0.37395269  0.86046621  0.11854296  1
  O  O414  1  0.36325074  0.86976402  0.61995688  1
  O  O415  1  0.87665956  0.37788277  0.10492883  1
  O  O416  1  0.86650845  0.36702320  0.62489985  1
  O  O417  1  0.87432607  0.86540129  0.12002771  1
  O  O418  1  0.88729233  0.86032510  0.62119254  1
  O  O419  1  0.13096268  0.13578829  0.37691871  1
  O  O420  1  0.12816460  0.13224136  0.87929005  1
  O  O421  1  0.13573784  0.63342929  0.36848984  1
  O  O422  1  0.13332668  0.63163907  0.87837494  1
  O  O423  1  0.63291534  0.13195242  0.38369372  1
  O  O424  1  0.61523456  0.13346031  0.87551747  1
  O  O425  1  0.62375836  0.63393280  0.37629737  1
  O  O426  1  0.63030218  0.64143556  0.87010866  1
