# generated using pymatgen
data_V85Zn86O256
_symmetry_space_group_name_H-M   'P 1'
_cell_length_a   16.91212636
_cell_length_b   16.90500199
_cell_length_c   16.91003115
_cell_angle_alpha   90.01647155
_cell_angle_beta   89.97963249
_cell_angle_gamma   89.98270473
_symmetry_Int_Tables_number   1
_chemical_formula_structural   V85Zn86O256
_chemical_formula_sum   'V85 Zn86 O256'
_cell_volume   4834.56922865
_cell_formula_units_Z   1
loop_
 _symmetry_equiv_pos_site_id
 _symmetry_equiv_pos_as_xyz
  1  'x, y, z'
loop_
 _atom_site_type_symbol
 _atom_site_label
 _atom_site_symmetry_multiplicity
 _atom_site_fract_x
 _atom_site_fract_y
 _atom_site_fract_z
 _atom_site_occupancy
  V  V0  1  0.74927780  0.37782893  0.61991405  1
  V  V1  1  0.37638526  0.24868434  0.12410322  1
  V  V2  1  0.24986018  0.50119484  0.74977358  1
  V  V3  1  0.12328209  0.37729631  0.75188580  1
  V  V4  1  0.24976544  0.37423650  0.12615297  1
  V  V5  1  0.38229166  0.74565929  0.61913513  1
  V  V6  1  0.25695278  0.49769888  0.25543739  1
  V  V7  1  0.87558716  0.87175352  0.50168890  1
  V  V8  1  0.49382936  0.75661794  0.24754985  1
  V  V9  1  0.50250611  0.12352301  0.12401301  1
  V  V10  1  0.85928858  0.00331283  0.87421298  1
  V  V11  1  0.37735221  0.87185579  0.00408771  1
  V  V12  1  0.11379444  0.37285449  0.25521677  1
  V  V13  1  0.75285632  0.50152861  0.74875571  1
  V  V14  1  0.87719669  0.87078549  0.00755723  1
  V  V15  1  0.50287771  -0.00486607  -0.00419989  1
  V  V16  1  0.86857700  0.26239513  0.12352987  1
  V  V17  1  0.11029188  0.24990714  0.37321752  1
  V  V18  1  0.25050181  0.12224540  0.87559054  1
  V  V19  1  0.86189205  0.12200411  0.75262202  1
  V  V20  1  0.62852873  -0.00306178  0.12483222  1
  V  V21  1  0.00002676  0.13174005  0.12647923  1
  V  V22  1  0.25063250  0.62479769  0.87589652  1
  V  V23  1  0.00575714  0.87494634  0.36944510  1
  V  V24  1  0.74982479  0.75054928  0.00014406  1
  V  V25  1  0.25131342  0.37523248  0.62357570  1
  V  V26  1  0.75090439  0.12513511  0.37726265  1
  V  V27  1  0.75054611  0.61925463  0.38017831  1
  V  V28  1  0.00269199  0.00090092  0.50058361  1
  V  V29  1  0.87355885  0.49861817  0.89201922  1
  V  V30  1  -0.00370405  0.62232500  0.12386177  1
  V  V31  1  0.00153261  0.00037709  -0.00370433  1
  V  V32  1  0.37839521  0.38863479  0.49456861  1
  V  V33  1  0.25302616  0.74804665  0.00754433  1
  V  V34  1  -0.00588227  0.49084641  0.49100852  1
  V  V35  1  0.37722677  0.24949403  0.62287402  1
  V  V36  1  0.24842211  0.87218935  0.13218078  1
  V  V37  1  0.87345545  0.25335055  0.62245857  1
  V  V38  1  0.38037393  -0.00647129  0.87336527  1
  V  V39  1  0.12721744  -0.00077355  0.62571143  1
  V  V40  1  0.49901769  0.11946306  0.61941325  1
  V  V41  1  0.86518764  0.62147485  0.24776691  1
  V  V42  1  0.87951794  0.13030856  0.24986275  1
  V  V43  1  0.49764215  0.39277888  0.37420517  1
  V  V44  1  0.12371221  0.24926741  0.87670368  1
  V  V45  1  0.62598521  0.87855345  0.76227742  1
  V  V46  1  0.13043014  0.75169103  0.37175647  1
  V  V47  1  0.38351076  -0.00142620  0.37963047  1
  V  V48  1  0.62390312  0.63094022  -0.00743105  1
  V  V49  1  0.25241961  0.24948566  0.48819642  1
  V  V50  1  0.50287845  0.49515998  -0.00258978  1
  V  V51  1  -0.00323036  0.25042523  0.75197994  1
  V  V52  1  -0.00369254  0.74974347  0.24645152  1
  V  V53  1  0.75205144  -0.00182014  0.24832727  1
  V  V54  1  0.50255360  0.25092624  0.25258613  1
  V  V55  1  0.12693296  0.62676281  0.49733190  1
  V  V56  1  0.25725482  0.62440064  0.37722628  1
  V  V57  1  0.00035635  0.12452064  0.62609821  1
  V  V58  1  0.50528756  0.75453419  0.76346949  1
  V  V59  1  0.11999553  0.61731362  0.00205695  1
  V  V60  1  0.62168230  -0.00517429  0.61798442  1
  V  V61  1  0.12866838  0.12503834  0.49495789  1
  V  V62  1  0.37842878  0.49630269  0.87505054  1
  V  V63  1  -0.00155580  0.74944517  0.74936939  1
  V  V64  1  -0.00538986  0.37909249  0.88895031  1
  V  V65  1  0.63342734  0.37909264  0.24555880  1
  V  V66  1  0.61858776  0.24426135  0.87542345  1
  V  V67  1  0.87655654  0.00142207  0.37617157  1
  V  V68  1  0.74909428  0.87767400  0.63007627  1
  V  V69  1  0.37023740  0.12453507  0.25436176  1
  V  V70  1  0.12387170  0.75075256  0.87644721  1
  V  V71  1  0.38350451  0.62586538  0.74899538  1
  V  V72  1  -0.00254048  0.62248101  0.62269113  1
  V  V73  1  0.60938082  0.62374855  0.50289156  1
  V  V74  1  0.75696610  0.25497669  -0.00974296  1
  V  V75  1  0.74878785  0.25203363  0.49945087  1
  V  V76  1  0.25069969  0.86589717  0.61876653  1
  V  V77  1  0.37933737  0.37112630  -0.00570633  1
  V  V78  1  0.49087442  0.62820733  0.12403446  1
  V  V79  1  0.25074088  -0.00413544  0.75006764  1
  V  V80  1  0.63550411  0.49891125  0.12623457  1
  V  V81  1  0.24595709  0.00117767  0.25781005  1
  V  V82  1  0.61253528  0.50263723  0.62146864  1
  V  V83  1  0.12448691  -0.00385579  0.12956559  1
  V  V84  1  0.61770404  0.37563023  0.75577198  1
  Zn  Zn85  1  0.62682602  0.74969695  0.37281827  1
  Zn  Zn86  1  0.87300233  0.74988281  0.62743813  1
  Zn  Zn87  1  0.62734322  0.87158717  0.25218928  1
  Zn  Zn88  1  0.62050474  0.12113246  0.49689808  1
  Zn  Zn89  1  0.62434351  0.25216702  0.37520984  1
  Zn  Zn90  1  0.87310487  0.62459408  0.75110787  1
  Zn  Zn91  1  0.12333616  0.49898511  0.62321285  1
  Zn  Zn92  1  0.87039742  0.48744427  0.37093429  1
  Zn  Zn93  1  0.37832663  0.12424186  0.74974455  1
  Zn  Zn94  1  0.37389073  0.62540835  0.24930518  1
  Zn  Zn95  1  0.12069226  0.49590921  0.12326336  1
  Zn  Zn96  1  0.75677541  0.86489429  0.13047709  1
  Zn  Zn97  1  -0.00159268  0.87560669  0.87356686  1
  Zn  Zn98  1  0.74675077  0.63141567  0.87071150  1
  Zn  Zn99  1  0.25123068  0.24810205  -0.00035427  1
  Zn  Zn100  1  0.51010484  0.87733039  0.38847039  1
  Zn  Zn101  1  0.37818063  0.87322488  0.49986766  1
  Zn  Zn102  1  0.12482869  0.87334067  0.74891562  1
  Zn  Zn103  1  0.12670513  0.12489225  0.00212403  1
  Zn  Zn104  1  0.74650380  0.74864849  0.50122357  1
  Zn  Zn105  1  0.63479739  0.11963072  -0.00760270  1
  Zn  Zn106  1  0.49593577  0.25221222  0.75283008  1
  Zn  Zn107  1  0.18648600  0.18842034  0.19036330  1
  Zn  Zn108  1  0.19105135  0.18764742  0.68827027  1
  Zn  Zn109  1  0.18347645  0.68621031  0.19101073  1
  Zn  Zn110  1  0.18747250  0.68591431  0.68655756  1
  Zn  Zn111  1  0.68988065  0.18696079  0.18372503  1
  Zn  Zn112  1  0.68290003  0.18624653  0.68732840  1
  Zn  Zn113  1  0.68298201  0.68770302  0.18218086  1
  Zn  Zn114  1  0.68546819  0.68982087  0.68398850  1
  Zn  Zn115  1  0.31379077  0.31407613  0.31276043  1
  Zn  Zn116  1  0.31164500  0.31074939  0.81155615  1
  Zn  Zn117  1  0.31505455  0.81213677  0.31203749  1
  Zn  Zn118  1  0.31296881  0.81195809  0.81230492  1
  Zn  Zn119  1  0.81084304  0.31159115  0.30725012  1
  Zn  Zn120  1  0.80903886  0.31579391  0.81100965  1
  Zn  Zn121  1  0.81393725  0.80786918  0.31621323  1
  Zn  Zn122  1  0.81159522  0.81400182  0.81761438  1
  Zn  Zn123  1  0.18477671  0.43933237  0.43646562  1
  Zn  Zn124  1  0.18972936  0.43532376  0.93757969  1
  Zn  Zn125  1  0.19145115  0.93470109  0.43798997  1
  Zn  Zn126  1  0.18768016  0.93537888  0.94068305  1
  Zn  Zn127  1  0.68526299  0.44015823  0.43600038  1
  Zn  Zn128  1  0.68977553  0.43324693  0.93815421  1
  Zn  Zn129  1  0.68838180  0.93442742  0.43824500  1
  Zn  Zn130  1  0.68968711  0.93276205  0.94071893  1
  Zn  Zn131  1  0.31301080  0.06022334  0.06361537  1
  Zn  Zn132  1  0.31037217  0.06359004  0.56234024  1
  Zn  Zn133  1  0.31104510  0.55759606  0.06368301  1
  Zn  Zn134  1  0.31110763  0.56632873  0.56368901  1
  Zn  Zn135  1  0.81212507  0.06756834  0.05962599  1
  Zn  Zn136  1  0.81023760  0.06040451  0.56540802  1
  Zn  Zn137  1  0.81093379  0.56984390  0.06555663  1
  Zn  Zn138  1  0.81259878  0.56158833  0.56108134  1
  Zn  Zn139  1  0.44020486  0.43848903  0.18402280  1
  Zn  Zn140  1  0.43683382  0.43576888  0.68602873  1
  Zn  Zn141  1  0.43567257  0.93729319  0.18597392  1
  Zn  Zn142  1  0.44068044  0.93291856  0.68519766  1
  Zn  Zn143  1  0.93667922  0.44334096  0.18725503  1
  Zn  Zn144  1  0.93714471  0.43714425  0.68735390  1
  Zn  Zn145  1  0.94022034  0.94066435  0.18820510  1
  Zn  Zn146  1  0.93739181  0.93693937  0.69091032  1
  Zn  Zn147  1  0.06310869  0.06670021  0.31300842  1
  Zn  Zn148  1  0.06089778  0.06354231  0.81096093  1
  Zn  Zn149  1  0.06498116  0.56160605  0.30999430  1
  Zn  Zn150  1  0.05818878  0.56220457  0.81447090  1
  Zn  Zn151  1  0.56479723  0.06346054  0.31023179  1
  Zn  Zn152  1  0.56310412  0.06305477  0.80573665  1
  Zn  Zn153  1  0.56597251  0.56898985  0.30854005  1
  Zn  Zn154  1  0.56196403  0.56073518  0.81147949  1
  Zn  Zn155  1  0.43705666  0.18775670  0.43602520  1
  Zn  Zn156  1  0.44057581  0.18176808  0.93698318  1
  Zn  Zn157  1  0.43920034  0.69100403  0.43378682  1
  Zn  Zn158  1  0.43661445  0.68633610  0.93853308  1
  Zn  Zn159  1  0.93452160  0.31587809  0.44097206  1
  Zn  Zn160  1  0.93531788  0.18601739  0.93977589  1
  Zn  Zn161  1  0.93774798  0.68553357  0.43409882  1
  Zn  Zn162  1  0.93436089  0.68567517  0.93724190  1
  Zn  Zn163  1  0.06229054  0.31082093  0.06485644  1
  Zn  Zn164  1  0.06648825  0.31044790  0.56564942  1
  Zn  Zn165  1  0.06321899  0.81063274  0.06432745  1
  Zn  Zn166  1  0.06341321  0.80995340  0.55981226  1
  Zn  Zn167  1  0.56680503  0.31293279  0.05985464  1
  Zn  Zn168  1  0.56224990  0.31454812  0.55978207  1
  Zn  Zn169  1  0.56458257  0.81195273  0.06497229  1
  Zn  Zn170  1  0.55876769  0.80909930  0.56351789  1
  O  O171  1  0.11775016  0.11920611  0.12440208  1
  O  O172  1  0.12138611  0.12074002  0.62153398  1
  O  O173  1  0.11836222  0.62245545  0.11761948  1
  O  O174  1  0.11542343  0.62563995  0.61600038  1
  O  O175  1  0.61973868  0.11333019  0.12401093  1
  O  O176  1  0.61768767  0.11438450  0.62503220  1
  O  O177  1  0.61494105  0.61346824  0.11598667  1
  O  O178  1  0.62772337  0.61743887  0.61207339  1
  O  O179  1  0.38836359  0.37282343  0.37953144  1
  O  O180  1  0.36934859  0.37795432  0.88678844  1
  O  O181  1  0.37543402  0.88918822  0.37501693  1
  O  O182  1  0.36664431  0.88602017  0.88769827  1
  O  O183  1  0.87374633  0.37483813  0.37079985  1
  O  O184  1  0.88074359  0.38756257  0.87091331  1
  O  O185  1  0.88289973  0.88124112  0.38296612  1
  O  O186  1  0.87706991  0.88971668  0.88308998  1
  O  O187  1  0.25627712  -0.00459501  0.36160524  1
  O  O188  1  0.25463746  0.00420912  0.87081765  1
  O  O189  1  0.24500579  0.50897540  0.36639422  1
  O  O190  1  0.25729704  0.50525994  0.87024034  1
  O  O191  1  0.75596417  0.00548977  0.36892138  1
  O  O192  1  0.76088968  0.00337516  0.88030605  1
  O  O193  1  0.75162556  0.51295992  0.37728577  1
  O  O194  1  0.75965889  0.49810716  0.86799207  1
  O  O195  1  0.24542034  0.48711096  0.12987009  1
  O  O196  1  0.24690067  0.49393805  0.63202036  1
  O  O197  1  0.24255569  0.99431490  0.13186599  1
  O  O198  1  0.24705797  0.99299110  0.63204376  1
  O  O199  1  0.73418752  0.50308780  0.12145391  1
  O  O200  1  0.74443490  0.49319417  0.63018494  1
  O  O201  1  0.74497670  1.00155842  0.13221842  1
  O  O202  1  0.74301503  0.98624871  0.62526692  1
  O  O203  1  0.01563966  0.37859274  0.24513038  1
  O  O204  1  0.00597420  0.36879533  0.75654975  1
  O  O205  1  -0.00597820  0.86868444  0.26142417  1
  O  O206  1  0.00455617  0.86489211  0.75287956  1
  O  O207  1  0.50249028  0.36932357  0.25769226  1
  O  O208  1  0.51309354  0.37319416  0.74722942  1
  O  O209  1  0.50068895  0.86407163  0.24641035  1
  O  O210  1  0.51044276  0.86314405  0.74930529  1
  O  O211  1  0.49442827  0.13207193  0.24343421  1
  O  O212  1  0.49754122  0.13067205  0.73583004  1
  O  O213  1  0.49652463  0.63303545  0.24129037  1
  O  O214  1  0.49064705  0.63425978  0.75485841  1
  O  O215  1  0.98977421  0.12106151  0.24150973  1
  O  O216  1  0.99325305  0.13237711  0.74449300  1
  O  O217  1  0.99372008  0.63130776  0.24540431  1
  O  O218  1  0.99910454  0.63040540  0.74034597  1
  O  O219  1  0.37619878  0.25467150  0.00418628  1
  O  O220  1  0.36799282  0.25629353  0.50362509  1
  O  O221  1  0.36273630  0.75690622  -0.00447497  1
  O  O222  1  0.37592466  0.74418690  0.51629483  1
  O  O223  1  0.86639934  0.24979532  0.00767524  1
  O  O224  1  0.86445238  0.25092778  0.51414502  1
  O  O225  1  0.87048057  0.76159675  -0.00357945  1
  O  O226  1  0.88060277  0.76375674  0.50123143  1
  O  O227  1  0.13237886  0.24480878  0.49447915  1
  O  O228  1  0.12740537  0.24814922  0.98791748  1
  O  O229  1  0.11713534  0.73767138  0.48663477  1
  O  O230  1  0.13445773  0.74292788  0.99435309  1
  O  O231  1  0.63722514  0.24676350  0.49926989  1
  O  O232  1  0.62935517  0.24635174  0.98809252  1
  O  O233  1  0.62479542  0.73462878  0.50105417  1
  O  O234  1  0.63060775  0.74110629  1.00228921  1
  O  O235  1  0.49638748  0.24640255  0.13360651  1
  O  O236  1  0.48815755  0.24782489  0.62347270  1
  O  O237  1  0.50342246  0.74128207  0.13452717  1
  O  O238  1  0.48563192  0.74933114  0.63879270  1
  O  O239  1  0.98882567  0.23816862  0.11705236  1
  O  O240  1  0.99115125  0.24612275  0.62969588  1
  O  O241  1  1.00788132  0.74128949  0.13751883  1
  O  O242  1  0.99982787  0.74241461  0.63258929  1
  O  O243  1  0.01146105  0.24901530  0.38471111  1
  O  O244  1  0.00476796  0.25555564  0.87199624  1
  O  O245  1  0.00560310  0.75766563  0.36879236  1
  O  O246  1  0.00761515  0.74908356  0.86855471  1
  O  O247  1  0.50222019  0.25129262  0.36166455  1
  O  O248  1  0.51315022  0.24811450  0.87421345  1
  O  O249  1  0.50240522  0.75221674  0.35998425  1
  O  O250  1  0.49533788  0.75074046  0.86266370  1
  O  O251  1  0.23809955  0.13510561  0.50638984  1
  O  O252  1  0.24965855  0.12408379  0.98810179  1
  O  O253  1  0.23624069  0.61869035  0.49275938  1
  O  O254  1  0.24535205  0.63157033  0.99771661  1
  O  O255  1  0.75145059  0.13208334  0.49245098  1
  O  O256  1  0.74733841  0.14396081  1.00499487  1
  O  O257  1  0.74720997  0.62786279  0.49363562  1
  O  O258  1  0.74100509  0.63191531  0.99850962  1
  O  O259  1  0.25756787  0.37221129  0.00868948  1
  O  O260  1  0.25564482  0.36887717  0.50314886  1
  O  O261  1  0.25467822  0.86745470  0.01001555  1
  O  O262  1  0.25802431  0.87827592  0.51422592  1
  O  O263  1  0.74152617  0.35461174  0.00464164  1
  O  O264  1  0.74317583  0.36894329  0.51143853  1
  O  O265  1  0.75913665  0.86862097  0.00401776  1
  O  O266  1  0.76054001  0.87279735  0.50755129  1
  O  O267  1  0.13437164  0.48717527  0.24891807  1
  O  O268  1  0.12982045  0.49448746  0.75056341  1
  O  O269  1  0.13299472  1.00561077  0.24204509  1
  O  O270  1  0.13180206  0.99772230  0.74429139  1
  O  O271  1  0.61840870  0.49580846  0.23399486  1
  O  O272  1  0.63361772  0.49429119  0.74595978  1
  O  O273  1  0.63514746  0.99856175  0.24237794  1
  O  O274  1  0.61920677  0.98391845  0.74049919  1
  O  O275  1  0.36827175  0.00666085  0.25544185  1
  O  O276  1  0.37050378  -0.00283043  0.75815788  1
  O  O277  1  0.36110405  0.50047415  0.24302265  1
  O  O278  1  0.37307693  0.50692521  0.75397257  1
  O  O279  1  0.87018821  0.00923194  0.25378338  1
  O  O280  1  0.88043275  0.00575657  0.76614710  1
  O  O281  1  0.87826587  0.51694812  0.25287132  1
  O  O282  1  0.86122346  0.49983974  0.75002311  1
  O  O283  1  0.12800142  0.36757306  0.36267774  1
  O  O284  1  0.11969686  0.36888659  0.87010992  1
  O  O285  1  0.11653779  0.86689284  0.38129136  1
  O  O286  1  0.12558893  0.86051086  0.87603218  1
  O  O287  1  0.61288397  0.37571490  0.36708809  1
  O  O288  1  0.62986041  0.36254231  0.86610819  1
  O  O289  1  0.62567407  0.87062391  0.37026563  1
  O  O290  1  0.62636140  0.87975172  0.86133517  1
  O  O291  1  0.38155186  0.12816435  0.13244714  1
  O  O292  1  0.37949409  0.13184041  0.62534030  1
  O  O293  1  0.38707358  0.62119532  0.12233496  1
  O  O294  1  0.36866533  0.63600557  0.63601031  1
  O  O295  1  0.88277877  0.12914738  0.13146933  1
  O  O296  1  0.88074522  0.12964852  0.63151687  1
  O  O297  1  0.88090340  0.62559815  0.13741107  1
  O  O298  1  0.88637470  0.62794601  0.62539890  1
  O  O299  1  0.25642049  0.25845611  0.12378850  1
  O  O300  1  0.25988915  0.25489278  0.61748276  1
  O  O301  1  0.24186907  0.75809943  0.11882452  1
  O  O302  1  0.26234201  0.75718439  0.63495312  1
  O  O303  1  0.76340781  0.24889914  0.11763588  1
  O  O304  1  0.75355325  0.25555603  0.61973187  1
  O  O305  1  0.74852055  0.74956891  0.11057551  1
  O  O306  1  0.75380809  0.76210472  0.62267405  1
  O  O307  1  0.24494943  0.25306644  0.38547933  1
  O  O308  1  0.24218540  0.24064349  0.87473864  1
  O  O309  1  0.24048050  0.74298736  0.36802661  1
  O  O310  1  0.24347008  0.74366799  0.88185174  1
  O  O311  1  0.74873070  0.24224550  0.38306814  1
  O  O312  1  0.74389530  0.25180077  0.88360410  1
  O  O313  1  0.74831350  0.73720046  0.37896240  1
  O  O314  1  0.75398779  0.74740825  0.89041513  1
  O  O315  1  0.00173504  0.11656442  0.00762505  1
  O  O316  1  0.01542600  0.11650482  0.51055656  1
  O  O317  1  0.00887206  0.63455947  0.00994812  1
  O  O318  1  0.00601551  0.61687245  0.50490802  1
  O  O319  1  0.50298779  0.11140772  0.00650821  1
  O  O320  1  0.50204347  0.13212236  0.51302273  1
  O  O321  1  0.50519222  0.62031459  0.00525291  1
  O  O322  1  0.51066004  0.62301462  0.49526111  1
  O  O323  1  0.49426519  0.37161379  0.48256425  1
  O  O324  1  0.49098682  0.38225944  1.00413925  1
  O  O325  1  0.49159346  0.87162272  0.50074296  1
  O  O326  1  0.49223566  0.88479272  1.00590992  1
  O  O327  1  1.00373631  0.38610548  0.50507961  1
  O  O328  1  1.00576640  0.37500154  0.98785504  1
  O  O329  1  0.99574910  0.88144197  0.49252986  1
  O  O330  1  0.99520779  0.88175148  0.99883946  1
  O  O331  1  0.49861485  0.49098262  0.36688622  1
  O  O332  1  0.49441927  0.50303446  0.88837192  1
  O  O333  1  0.48726382  0.99839738  0.36662065  1
  O  O334  1  0.49178093  1.00478433  0.88213348  1
  O  O335  1  1.00040946  0.50294685  0.38883932  1
  O  O336  1  0.98380583  0.49328623  0.87168998  1
  O  O337  1  0.99762195  0.99367683  0.37940265  1
  O  O338  1  1.00213152  0.99860082  0.88769158  1
  O  O339  1  0.00708918  0.00781327  0.11761134  1
  O  O340  1  0.00772020  0.00275960  0.62162883  1
  O  O341  1  0.00354819  0.51566672  0.12711989  1
  O  O342  1  0.00162513  0.50651637  0.61737759  1
  O  O343  1  0.50798009  0.00303183  0.11892034  1
  O  O344  1  0.50667517  0.00715838  0.62706143  1
  O  O345  1  0.50375072  0.50737869  0.11301949  1
  O  O346  1  0.51310349  0.49920342  0.63006344  1
  O  O347  1  0.24630100  0.37899664  0.24354861  1
  O  O348  1  0.24443421  0.38137989  0.74602432  1
  O  O349  1  0.25555406  0.88227352  0.23782197  1
  O  O350  1  0.24751530  0.88077502  0.74264091  1
  O  O351  1  0.73238236  0.37182766  0.24953407  1
  O  O352  1  0.73938528  0.38053702  0.73944359  1
  O  O353  1  0.75669636  0.88685041  0.24926497  1
  O  O354  1  0.73544642  0.86710623  0.74528730  1
  O  O355  1  0.26040976  0.11571763  0.24310835  1
  O  O356  1  0.25271677  0.11664618  0.76060375  1
  O  O357  1  0.24991144  0.61578275  0.25663890  1
  O  O358  1  0.25853949  0.62029560  0.75644188  1
  O  O359  1  0.75584734  0.11570256  0.25454160  1
  O  O360  1  0.76273260  0.12586479  0.74425766  1
  O  O361  1  0.76153137  0.63213860  0.25403517  1
  O  O362  1  0.74929485  0.61716642  0.75072235  1
  O  O363  1  0.37897705  0.11581511  0.36252446  1
  O  O364  1  0.36795358  0.11336790  0.87370390  1
  O  O365  1  0.36059380  0.62965661  0.37509840  1
  O  O366  1  0.36963641  0.61815265  0.86860652  1
  O  O367  1  0.86320072  0.11865278  0.36492172  1
  O  O368  1  0.88033539  0.11203713  0.86832887  1
  O  O369  1  0.86892108  0.62162823  0.36532771  1
  O  O370  1  0.87301239  0.60977698  0.87243428  1
  O  O371  1  0.13262887  0.37207638  0.13440243  1
  O  O372  1  0.13309373  0.37406773  0.63481858  1
  O  O373  1  0.13219921  0.88740241  0.12166272  1
  O  O374  1  0.13350548  0.87801204  0.62423036  1
  O  O375  1  0.61598505  0.39003498  0.13096644  1
  O  O376  1  0.63020612  0.38128597  0.63043989  1
  O  O377  1  0.63076686  0.88708205  0.12773392  1
  O  O378  1  0.63094416  0.87802340  0.63097872  1
  O  O379  1  0.12910731  0.26161321  0.25880661  1
  O  O380  1  0.12074122  0.25444506  0.76029960  1
  O  O381  1  0.11258689  0.74515014  0.26333112  1
  O  O382  1  0.11587516  0.74706963  0.75878657  1
  O  O383  1  0.61746816  0.25738672  0.24743409  1
  O  O384  1  0.62537416  0.25700099  0.75983944  1
  O  O385  1  0.61252851  0.74975844  0.24936968  1
  O  O386  1  0.61192797  0.75738821  0.74643907  1
  O  O387  1  0.38028982  0.24264890  0.24538495  1
  O  O388  1  0.37543656  0.24913473  0.73887549  1
  O  O389  1  0.38844279  0.74710679  0.24873388  1
  O  O390  1  0.38386809  0.74411770  0.74770835  1
  O  O391  1  0.86820944  0.23830075  0.23617766  1
  O  O392  1  0.87675355  0.24297616  0.74325310  1
  O  O393  1  0.88740423  0.73817481  0.25622579  1
  O  O394  1  0.88697804  0.74833907  0.75260348  1
  O  O395  1  0.37148452  0.48753494  0.50543935  1
  O  O396  1  0.38145196  0.49093080  0.99593491  1
  O  O397  1  0.36749321  1.00616144  0.48066178  1
  O  O398  1  0.38227846  0.99327921  0.99418662  1
  O  O399  1  0.89102920  0.50191556  0.49832752  1
  O  O400  1  0.86796511  0.50024418  0.99065390  1
  O  O401  1  0.88168518  0.99203780  0.49648524  1
  O  O402  1  0.88193183  0.99800524  0.99069714  1
  O  O403  1  0.11854765  0.00180874  0.00840830  1
  O  O404  1  0.12560672  0.00691795  0.50453159  1
  O  O405  1  0.13045072  0.51377093  -0.00132245  1
  O  O406  1  0.11342883  0.50690409  0.50105782  1
  O  O407  1  0.61977287  -0.00044920  0.00504464  1
  O  O408  1  0.63036060  0.00153175  0.51338999  1
  O  O409  1  0.61908122  0.50222901  0.00679760  1
  O  O410  1  0.62757321  0.51152743  0.50870949  1
  O  O411  1  0.36919347  0.36953880  0.11611596  1
  O  O412  1  0.37167626  0.36811309  0.61662060  1
  O  O413  1  0.36433563  0.88140515  0.11188626  1
  O  O414  1  0.36864483  0.86122940  0.62837163  1
  O  O415  1  0.88129740  0.36041598  0.13093093  1
  O  O416  1  0.86359790  0.36448588  0.63299441  1
  O  O417  1  0.87583555  0.88447507  0.11160103  1
  O  O418  1  0.86896313  0.87621339  0.61959798  1
  O  O419  1  0.12440604  0.13383456  0.38398380  1
  O  O420  1  0.13197157  0.13207928  0.87547317  1
  O  O421  1  0.13167326  0.63105570  0.37983752  1
  O  O422  1  0.12788306  0.63312576  0.88171756  1
  O  O423  1  0.63773743  0.12573130  0.37513377  1
  O  O424  1  0.62507986  0.13898227  0.87077681  1
  O  O425  1  0.63141239  0.62393044  0.38623878  1
  O  O426  1  0.62604048  0.61702039  0.88897950  1
