# generated using pymatgen
data_V85Zn86O256
_symmetry_space_group_name_H-M   'P 1'
_cell_length_a   16.94690589
_cell_length_b   16.95463936
_cell_length_c   16.94914764
_cell_angle_alpha   90.01161908
_cell_angle_beta   90.06078117
_cell_angle_gamma   89.90117235
_symmetry_Int_Tables_number   1
_chemical_formula_structural   V85Zn86O256
_chemical_formula_sum   'V85 Zn86 O256'
_cell_volume   4869.96609582
_cell_formula_units_Z   1
loop_
 _symmetry_equiv_pos_site_id
 _symmetry_equiv_pos_as_xyz
  1  'x, y, z'
loop_
 _atom_site_type_symbol
 _atom_site_label
 _atom_site_symmetry_multiplicity
 _atom_site_fract_x
 _atom_site_fract_y
 _atom_site_fract_z
 _atom_site_occupancy
  V  V0  1  0.12698561  0.12346940  0.49804354  1
  V  V1  1  0.87610056  0.12623711  0.75078909  1
  V  V2  1  0.36708007  0.37141635  -0.00319301  1
  V  V3  1  0.00551851  0.01000122  0.00395799  1
  V  V4  1  0.62699466  0.74820273  0.87130610  1
  V  V5  1  0.62468121  0.12574739  0.50124370  1
  V  V6  1  0.49702586  0.50558278  -0.00414998  1
  V  V7  1  0.18866957  0.18580743  -0.06401668  1
  V  V8  1  0.37635056  0.74420323  0.13410308  1
  V  V9  1  0.13062658  0.37482351  0.75591408  1
  V  V10  1  0.11921148  0.01242064  0.13402743  1
  V  V11  1  0.25951128  0.61726237  0.36753964  1
  V  V12  1  0.75297199  0.37622996  0.62823694  1
  V  V13  1  0.24570495  0.36956392  0.12402361  1
  V  V14  1  0.75542689  0.86430820  0.62238577  1
  V  V15  1  0.87202804  0.75064600  0.12474162  1
  V  V16  1  0.75065816  0.12875008  0.88206374  1
  V  V17  1  0.37410391  0.24226786  0.12417594  1
  V  V18  1  0.75155178  0.25111904  0.50110975  1
  V  V19  1  0.48222823  0.62707687  0.62714739  1
  V  V20  1  0.61824197  0.86617294  0.27150308  1
  V  V21  1  0.49940094  0.87537418  0.87445913  1
  V  V22  1  0.74244287  -0.00147388  0.24550331  1
  V  V23  1  0.00016161  0.24618313  0.24252213  1
  V  V24  1  0.75127196  0.64117629  0.38511893  1
  V  V25  1  -0.00499164  0.75514866  0.73771673  1
  V  V26  1  0.63009938  0.63522227  0.50767273  1
  V  V27  1  0.23816745  0.87278709  0.12912778  1
  V  V28  1  0.49304315  -0.00159232  0.48921508  1
  V  V29  1  0.62412523  0.11794454  0.00900913  1
  V  V30  1  0.26230448  0.12204967  0.37084776  1
  V  V31  1  0.62515282  -0.00398083  0.62489953  1
  V  V32  1  0.74996876  0.37351864  0.12178930  1
  V  V33  1  0.00319086  0.74949663  0.24936355  1
  V  V34  1  0.87577293  0.37933924  0.49909075  1
  V  V35  1  0.49931149  0.25002043  0.75196491  1
  V  V36  1  0.37184365  0.87261496  0.00388005  1
  V  V37  1  0.36322360  0.50699150  0.86452754  1
  V  V38  1  0.12395722  0.50086401  0.12704990  1
  V  V39  1  0.62506949  0.62788776  -0.00055387  1
  V  V40  1  0.75007528  0.00096096  0.74982082  1
  V  V41  1  0.12404024  0.62357718  0.49798479  1
  V  V42  1  0.37268890  0.00430252  0.87725465  1
  V  V43  1  0.62534130  0.87396003  0.74759184  1
  V  V44  1  0.12755462  0.75317265  0.37078936  1
  V  V45  1  0.87750007  -0.00129257  0.87892000  1
  V  V46  1  0.49713024  0.12281159  0.62902998  1
  V  V47  1  0.87526855  0.00004733  0.37614495  1
  V  V48  1  0.49788862  0.37661773  0.87591815  1
  V  V49  1  0.12398460  0.24740925  0.37391263  1
  V  V50  1  0.25506491  0.74931796  0.50283289  1
  V  V51  1  0.26433236  -0.00068712  0.25216430  1
  V  V52  1  0.44129702  0.43392272  0.32717894  1
  V  V53  1  0.12687149  0.00054032  0.62456276  1
  V  V54  1  0.88055079  0.62435089  0.75051165  1
  V  V55  1  -0.00237747  0.50290831  -0.00891281  1
  V  V56  1  0.00245399  0.87579021  0.37106376  1
  V  V57  1  0.38217608  0.37953193  0.50377300  1
  V  V58  1  0.49445766  0.23990256  0.25332426  1
  V  V59  1  0.12682199  0.87154435  0.75532742  1
  V  V60  1  0.75069717  0.12697092  0.37471811  1
  V  V61  1  0.87212835  0.37996698  -0.00442838  1
  V  V62  1  0.24767712  0.38022561  0.62426095  1
  V  V63  1  0.87460476  0.24779066  0.11815850  1
  V  V64  1  0.00331353  0.86744550  0.87980445  1
  V  V65  1  0.73660124  0.87430239  0.12435720  1
  V  V66  1  0.48682688  0.74642076  0.74267183  1
  V  V67  1  0.62738861  0.25077374  0.88542468  1
  V  V68  1  -0.00115123  0.49947812  0.49992080  1
  V  V69  1  0.12826058  0.63158749  -0.00495670  1
  V  V70  1  0.62082907  0.25706049  0.37691688  1
  V  V71  1  -0.00001375  0.37050662  0.87453509  1
  V  V72  1  0.75898118  0.49952088  0.76004987  1
  V  V73  1  0.62709626  0.37638558  0.75221647  1
  V  V74  1  0.75278582  0.49911574  0.26275884  1
  V  V75  1  0.00134998  0.12641664  0.62440761  1
  V  V76  1  0.37575201  0.87683093  0.48694209  1
  V  V77  1  -0.00328707  0.37769784  0.37314444  1
  V  V78  1  0.62717836  0.50235147  0.12495139  1
  V  V79  1  0.24976481  0.00909873  0.75365185  1
  V  V80  1  0.87384792  0.86060027  0.50224253  1
  V  V81  1  0.25826077  0.87480746  0.62536366  1
  V  V82  1  0.87571117  0.12469456  0.24522251  1
  V  V83  1  0.62500412  0.37713865  0.25378734  1
  V  V84  1  0.87402439  0.61948216  0.25445586  1
  Zn  Zn85  1  0.25567877  0.63955858  0.84731047  1
  Zn  Zn86  1  -0.00150163  0.62365666  0.12459271  1
  Zn  Zn87  1  0.00032976  -0.00104633  0.49886438  1
  Zn  Zn88  1  0.75809910  0.62219560  0.87742058  1
  Zn  Zn89  1  0.49397630  0.74494886  0.27788028  1
  Zn  Zn90  1  0.62418320  0.50133019  0.62699744  1
  Zn  Zn91  1  0.37052791  0.12982363  0.75759646  1
  Zn  Zn92  1  0.00708878  0.24391546  0.76042294  1
  Zn  Zn93  1  0.49532884  0.11433784  0.13064144  1
  Zn  Zn94  1  0.24468476  0.75249112  -0.00832535  1
  Zn  Zn95  1  0.75169368  0.75047640  -0.00179685  1
  Zn  Zn96  1  0.87475749  0.87435705  0.00320134  1
  Zn  Zn97  1  0.12578690  0.37692159  0.25109488  1
  Zn  Zn98  1  0.12918103  0.50648296  0.63003459  1
  Zn  Zn99  1  0.50442036  -0.00645485  0.01000124  1
  Zn  Zn100  1  0.50454052  0.49915310  0.50056772  1
  Zn  Zn101  1  0.25319930  0.25007088  0.50043833  1
  Zn  Zn102  1  0.37348124  0.25106393  0.62639274  1
  Zn  Zn103  1  0.49734787  0.62748323  0.13596299  1
  Zn  Zn104  1  0.87828312  0.25123761  0.62741689  1
  Zn  Zn105  1  0.26071574  0.49993679  0.24984007  1
  Zn  Zn106  1  -0.00733701  0.63407134  0.61723815  1
  Zn  Zn107  1  0.18989001  0.18599510  0.18690841  1
  Zn  Zn108  1  0.18729316  0.19434547  0.68865268  1
  Zn  Zn109  1  0.18848578  0.68506854  0.18497336  1
  Zn  Zn110  1  0.18714580  0.69171378  0.68357069  1
  Zn  Zn111  1  0.68913385  0.19248923  0.18923622  1
  Zn  Zn112  1  0.68623968  0.18905335  0.69075886  1
  Zn  Zn113  1  0.68484895  0.68825573  0.19061390  1
  Zn  Zn114  1  0.68893674  0.68612299  0.68966942  1
  Zn  Zn115  1  0.30671701  0.30723762  0.30722962  1
  Zn  Zn116  1  0.30802618  0.31311459  0.81406195  1
  Zn  Zn117  1  0.30865332  0.81378047  0.31065398  1
  Zn  Zn118  1  0.31006431  0.81670276  0.81497817  1
  Zn  Zn119  1  0.81415643  0.31287391  0.31152851  1
  Zn  Zn120  1  0.81520464  0.30993478  0.81609690  1
  Zn  Zn121  1  0.81477042  0.81406611  0.30939357  1
  Zn  Zn122  1  0.81520203  0.81175561  0.81093694  1
  Zn  Zn123  1  0.18781752  0.43578086  0.43899208  1
  Zn  Zn124  1  0.18409519  0.43846226  0.93828428  1
  Zn  Zn125  1  0.18889043  0.93772789  0.43422581  1
  Zn  Zn126  1  0.18683794  0.94344623  0.94042680  1
  Zn  Zn127  1  0.68488133  0.44228934  0.44223273  1
  Zn  Zn128  1  0.68693722  0.43854798  0.93855110  1
  Zn  Zn129  1  0.69284891  0.94063115  0.44165705  1
  Zn  Zn130  1  0.68958850  0.93701828  0.93746142  1
  Zn  Zn131  1  0.30749771  0.05930057  0.06056745  1
  Zn  Zn132  1  0.31337175  0.06406507  0.56306674  1
  Zn  Zn133  1  0.30859638  0.56127354  0.06084511  1
  Zn  Zn134  1  0.31072992  0.55709764  0.55618134  1
  Zn  Zn135  1  0.81262675  0.06036289  0.06266891  1
  Zn  Zn136  1  0.81393743  0.05962730  0.56231741  1
  Zn  Zn137  1  0.81132648  0.56242443  0.06455563  1
  Zn  Zn138  1  0.81513497  0.56192275  0.56824441  1
  Zn  Zn139  1  0.43867074  0.43540450  0.16642743  1
  Zn  Zn140  1  0.43794454  0.44048728  0.68646918  1
  Zn  Zn141  1  0.44115930  0.93227735  0.18648171  1
  Zn  Zn142  1  0.43624535  0.93615651  0.68669342  1
  Zn  Zn143  1  0.93918046  0.43680832  0.18386543  1
  Zn  Zn144  1  0.94252664  0.44019102  0.68907699  1
  Zn  Zn145  1  0.93594797  0.93565026  0.18793263  1
  Zn  Zn146  1  0.93826331  0.93999373  0.68708409  1
  Zn  Zn147  1  0.06393796  0.06408140  0.30877352  1
  Zn  Zn148  1  0.06508589  0.06061690  0.81692486  1
  Zn  Zn149  1  0.06364297  0.56227969  0.31393452  1
  Zn  Zn150  1  0.09381013  0.58079944  0.79119295  1
  Zn  Zn151  1  0.56626459  0.06233405  0.31188114  1
  Zn  Zn152  1  0.56214433  0.06204468  0.81635359  1
  Zn  Zn153  1  0.57134032  0.57478855  0.31421489  1
  Zn  Zn154  1  0.56185074  0.56337707  0.80890194  1
  Zn  Zn155  1  0.43882439  0.19237836  0.44121348  1
  Zn  Zn156  1  0.43810010  0.18733576  0.94094691  1
  Zn  Zn157  1  0.43401967  0.68153980  0.44614667  1
  Zn  Zn158  1  0.43419296  0.69010429  0.93600626  1
  Zn  Zn159  1  0.93854203  0.18920018  0.43763596  1
  Zn  Zn160  1  0.93935240  0.18874033  0.94141175  1
  Zn  Zn161  1  0.93572865  0.68521471  0.43230165  1
  Zn  Zn162  1  0.94000335  0.68703127  0.93461939  1
  Zn  Zn163  1  0.06329801  0.30875442  0.05740255  1
  Zn  Zn164  1  0.06527548  0.31032034  0.56437498  1
  Zn  Zn165  1  0.05963363  0.81398458  0.06424457  1
  Zn  Zn166  1  0.06755834  0.81657157  0.55851375  1
  Zn  Zn167  1  0.55887568  0.31194152  0.06385492  1
  Zn  Zn168  1  0.56302732  0.31362174  0.56609669  1
  Zn  Zn169  1  0.55975573  0.81140533  0.06277908  1
  Zn  Zn170  1  0.56242813  0.81155159  0.45499761  1
  O  O171  1  0.12346992  0.11111381  0.12893651  1
  O  O172  1  0.11983181  0.12132008  0.61975166  1
  O  O173  1  0.12180209  0.61605982  0.11864367  1
  O  O174  1  0.11708333  0.62741299  0.60637124  1
  O  O175  1  0.63035670  0.13356525  0.10972438  1
  O  O176  1  0.61760874  0.11775860  0.62243279  1
  O  O177  1  0.62555813  0.62057321  0.11568504  1
  O  O178  1  0.63038129  0.62120046  0.61592382  1
  O  O179  1  0.37744828  0.37234066  0.38102969  1
  O  O180  1  0.37891307  0.38321451  0.88125371  1
  O  O181  1  0.36451077  0.87776918  0.38807950  1
  O  O182  1  0.38293716  0.88276288  0.88169812  1
  O  O183  1  0.88798273  0.36751850  0.38326865  1
  O  O184  1  0.87877140  0.37239436  0.88933453  1
  O  O185  1  0.87991577  0.88213609  0.38087913  1
  O  O186  1  0.88330934  0.88329415  0.87609286  1
  O  O187  1  0.24375891  0.00648043  0.35983327  1
  O  O188  1  0.26000486  -0.00779919  0.86503731  1
  O  O189  1  0.24075113  0.51366147  0.37097420  1
  O  O190  1  0.26251301  0.50095946  0.87950465  1
  O  O191  1  0.75746483  0.00684722  0.36915864  1
  O  O192  1  0.75658579  0.00718065  0.86953960  1
  O  O193  1  0.75119914  0.49933241  0.36436429  1
  O  O194  1  0.74829847  0.49946760  0.86358524  1
  O  O195  1  0.24396799  0.49127063  0.12891656  1
  O  O196  1  0.24619739  0.48639457  0.61831462  1
  O  O197  1  0.23928872  0.99557916  0.13475345  1
  O  O198  1  0.24547432  0.99479112  0.63127128  1
  O  O199  1  0.74460187  0.49219057  0.13423674  1
  O  O200  1  0.75184648  0.48640140  0.63514367  1
  O  O201  1  0.75643401  0.98906635  0.13670977  1
  O  O202  1  0.74181857  1.00058210  0.63181001  1
  O  O203  1  -0.00106334  0.36608245  0.25776973  1
  O  O204  1  0.00056502  0.36793825  0.76009809  1
  O  O205  1  -0.00839180  0.86450807  0.26319991  1
  O  O206  1  0.00588913  0.87401175  0.75615473  1
  O  O207  1  0.50032686  0.37644869  0.25798863  1
  O  O208  1  0.50554924  0.36882023  0.75575833  1
  O  O209  1  0.51706274  0.87133173  0.25271180  1
  O  O210  1  0.50721291  0.86950682  0.75354999  1
  O  O211  1  0.50712433  0.13635043  0.24788902  1
  O  O212  1  0.50109448  0.13239353  0.74525201  1
  O  O213  1  0.51062059  0.63646163  0.24775421  1
  O  O214  1  0.50174729  0.63205825  0.73781248  1
  O  O215  1  0.99142314  0.13815916  0.25430590  1
  O  O216  1  0.99315948  0.12407292  0.74457486  1
  O  O217  1  0.98988187  0.63051208  0.25159488  1
  O  O218  1  0.99947354  0.63884213  0.74655095  1
  O  O219  1  0.38503863  0.26499933  0.00685132  1
  O  O220  1  0.37464424  0.26339723  0.50386807  1
  O  O221  1  0.37218945  0.76190643  0.00561663  1
  O  O222  1  0.35978078  0.75829960  0.50099275  1
  O  O223  1  0.87770294  0.25838678  0.01250036  1
  O  O224  1  0.86912836  0.25986561  0.50188777  1
  O  O225  1  0.87357073  0.75023118  0.01049489  1
  O  O226  1  0.88043767  0.76146993  0.49787904  1
  O  O227  1  0.12638076  0.24212066  0.49007980  1
  O  O228  1  0.13478839  0.24682798  0.99861144  1
  O  O229  1  0.13247695  0.74478545  0.49013983  1
  O  O230  1  0.12347065  0.73532453  1.01000346  1
  O  O231  1  0.62972508  0.24667281  0.49431255  1
  O  O232  1  0.62067541  0.24376580  0.98981494  1
  O  O233  1  0.63158627  0.73501811  0.50757198  1
  O  O234  1  0.62432208  0.74280707  0.99130224  1
  O  O235  1  0.49205920  0.24904525  0.13512678  1
  O  O236  1  0.50250555  0.24080375  0.63554662  1
  O  O237  1  0.48199739  0.75032499  0.12121411  1
  O  O238  1  0.50175412  0.73180726  0.63290338  1
  O  O239  1  0.99027177  0.25716996  0.13339912  1
  O  O240  1  0.99874365  0.23570745  0.62565965  1
  O  O241  1  0.99162081  0.74947664  0.13483475  1
  O  O242  1  1.00279593  0.75716141  0.63384363  1
  O  O243  1  0.00839683  0.25467069  0.36826094  1
  O  O244  1  -0.00439700  0.26478714  0.87909079  1
  O  O245  1  0.00658282  0.75520580  0.36869170  1
  O  O246  1  -0.00165978  0.76468577  0.86696889  1
  O  O247  1  0.50990574  0.24722842  0.36812985  1
  O  O248  1  0.50657910  0.25498825  0.86987850  1
  O  O249  1  0.49212666  0.75585976  0.38945996  1
  O  O250  1  0.50682792  0.75809252  0.86780303  1
  O  O251  1  0.24345817  0.12568315  0.49228636  1
  O  O252  1  0.24043853  0.11705017  0.99148672  1
  O  O253  1  0.24186631  0.63129566  0.49284299  1
  O  O254  1  0.23390482  0.62582952  1.00176001  1
  O  O255  1  0.74507469  0.13138991  0.49677492  1
  O  O256  1  0.74147284  0.12047337  0.98931028  1
  O  O257  1  0.74847495  0.62036576  0.49167128  1
  O  O258  1  0.73837148  0.62507835  0.99659889  1
  O  O259  1  0.25854111  0.38157309  0.00838507  1
  O  O260  1  0.25972269  0.37244149  0.50458716  1
  O  O261  1  0.25517523  0.87564890  0.01030975  1
  O  O262  1  0.25381411  0.87033174  0.50561499  1
  O  O263  1  0.75744434  0.38276789  0.01010183  1
  O  O264  1  0.75714192  0.37194826  0.50778497  1
  O  O265  1  0.75223987  0.87343548  0.01018436  1
  O  O266  1  0.76144853  0.88054296  0.51024078  1
  O  O267  1  0.12100400  0.49844468  0.23644269  1
  O  O268  1  0.10500657  0.47690684  0.74150698  1
  O  O269  1  0.12432608  0.99782020  0.23682010  1
  O  O270  1  0.13135340  0.99317040  0.74501846  1
  O  O271  1  0.63386283  0.49458503  0.24640465  1
  O  O272  1  0.63438766  0.49180826  0.74997021  1
  O  O273  1  0.63641230  0.98692298  0.25984453  1
  O  O274  1  0.62837258  0.99557247  0.74416828  1
  O  O275  1  0.36249940  -0.00195572  0.24629434  1
  O  O276  1  0.36694326  -0.00019664  0.75824577  1
  O  O277  1  0.38486002  0.48634621  0.25952259  1
  O  O278  1  0.37670512  0.49565371  0.76686890  1
  O  O279  1  0.86681030  0.00225525  0.25921188  1
  O  O280  1  0.87250160  0.01100813  0.75729368  1
  O  O281  1  0.86817630  0.51210505  0.24164215  1
  O  O282  1  0.87004220  0.50748605  0.74904413  1
  O  O283  1  0.11576319  0.36504026  0.37478836  1
  O  O284  1  0.11840914  0.37828946  0.86418862  1
  O  O285  1  0.11768162  0.86208256  0.37861059  1
  O  O286  1  0.11591022  0.88515652  0.86619835  1
  O  O287  1  0.63262014  0.36388509  0.37159209  1
  O  O288  1  0.61928984  0.36781687  0.87306459  1
  O  O289  1  0.62680344  0.87347007  0.37584676  1
  O  O290  1  0.61796883  0.86897230  0.87080597  1
  O  O291  1  0.37356011  0.13936167  0.11387273  1
  O  O292  1  0.38772909  0.12687295  0.62913574  1
  O  O293  1  0.37229765  0.64084591  0.11874448  1
  O  O294  1  0.38343243  0.62341925  0.61707373  1
  O  O295  1  0.86539947  0.13657188  0.13142610  1
  O  O296  1  0.88269231  0.12355944  0.63325284  1
  O  O297  1  0.87224617  0.63607176  0.13459738  1
  O  O298  1  0.87847018  0.62405913  0.63986894  1
  O  O299  1  0.25790246  0.26097317  0.13238041  1
  O  O300  1  0.25408300  0.26235640  0.62275415  1
  O  O301  1  0.25833159  0.75779563  0.12540620  1
  O  O302  1  0.24096300  0.76203785  0.61429915  1
  O  O303  1  0.75793360  0.26601310  0.13211088  1
  O  O304  1  0.75115100  0.25993305  0.62197598  1
  O  O305  1  0.75528997  0.75640622  0.12518356  1
  O  O306  1  0.75056015  0.76620397  0.63522040  1
  O  O307  1  0.23709701  0.24180353  0.37200043  1
  O  O308  1  0.25652442  0.24044969  0.88116655  1
  O  O309  1  0.24283855  0.74201651  0.37844322  1
  O  O310  1  0.25296517  0.74759697  0.87810374  1
  O  O311  1  0.74442765  0.24529293  0.37950346  1
  O  O312  1  0.74007756  0.24009681  0.87089136  1
  O  O313  1  0.75507634  0.73907767  0.37635606  1
  O  O314  1  0.73680559  0.75140334  0.87500249  1
  O  O315  1  -0.00345825  0.10885953  0.00027209  1
  O  O316  1  0.00633002  0.12251689  0.50668517  1
  O  O317  1  0.00460913  0.61813675  0.00373859  1
  O  O318  1  0.00392430  0.61635981  0.49466399  1
  O  O319  1  0.51588060  0.12355887  0.00127133  1
  O  O320  1  0.50395822  0.11787065  0.50943108  1
  O  O321  1  0.50900299  0.62028812  -0.00098821  1
  O  O322  1  0.51141057  0.62312882  0.51397254  1
  O  O323  1  0.48937062  0.37750401  0.50658343  1
  O  O324  1  0.49412752  0.38522494  0.99472317  1
  O  O325  1  0.49140792  0.89072686  0.50614939  1
  O  O326  1  0.49307486  0.87386370  0.99040180  1
  O  O327  1  0.99437069  0.37776979  0.49423128  1
  O  O328  1  0.99230535  0.38099711  0.99603125  1
  O  O329  1  0.99426518  0.87768186  0.48782188  1
  O  O330  1  0.99747157  0.88114200  0.99339356  1
  O  O331  1  0.50413675  0.49715682  0.37659761  1
  O  O332  1  0.49414028  0.49768666  0.88301555  1
  O  O333  1  0.50373167  1.00755560  0.39135514  1
  O  O334  1  0.49592693  0.98654162  0.87590610  1
  O  O335  1  1.00517255  0.48819089  0.38439978  1
  O  O336  1  1.00359137  0.48742631  0.88978466  1
  O  O337  1  0.99372681  0.99210467  0.37171774  1
  O  O338  1  0.99718445  0.99404626  0.88713021  1
  O  O339  1  0.00934184  -0.00695319  0.11834675  1
  O  O340  1  0.00724157  0.01117522  0.62362657  1
  O  O341  1  0.00801501  0.49985993  0.11595531  1
  O  O342  1  0.00220881  0.50020222  0.60804971  1
  O  O343  1  0.49817383  0.00238316  0.12270323  1
  O  O344  1  0.50741899  0.00704165  0.62249239  1
  O  O345  1  0.50710014  0.50562609  0.11125976  1
  O  O346  1  0.50294315  0.51442862  0.62784586  1
  O  O347  1  0.24613209  0.38046698  0.24132085  1
  O  O348  1  0.23784816  0.37486267  0.74456388  1
  O  O349  1  0.24999012  0.88864323  0.24335465  1
  O  O350  1  0.24345145  0.88364719  0.74241500  1
  O  O351  1  0.74716174  0.38259325  0.24473163  1
  O  O352  1  0.75023996  0.37863642  0.74572334  1
  O  O353  1  0.74041850  0.88061646  0.24784381  1
  O  O354  1  0.74581500  0.88358487  0.74564410  1
  O  O355  1  0.24650867  0.11067783  0.25658615  1
  O  O356  1  0.25194614  0.11300099  0.74159808  1
  O  O357  1  0.24921774  0.62207297  0.26288151  1
  O  O358  1  0.20154033  0.60933691  0.75384339  1
  O  O359  1  0.75236397  0.11721250  0.25442527  1
  O  O360  1  0.75558146  0.12093731  0.75901316  1
  O  O361  1  0.75301286  0.61978225  0.26234438  1
  O  O362  1  0.75872725  0.61544764  0.75182934  1
  O  O363  1  0.36086408  0.13325939  0.37967086  1
  O  O364  1  0.38670778  0.10810529  0.87571361  1
  O  O365  1  0.35722150  0.62191495  0.38324300  1
  O  O366  1  0.37186158  0.61209481  0.87790972  1
  O  O367  1  0.87054535  0.11956530  0.36853223  1
  O  O368  1  0.86826838  0.12169488  0.87180225  1
  O  O369  1  0.86196238  0.62338103  0.36836078  1
  O  O370  1  0.87384768  0.63163774  0.85954418  1
  O  O371  1  0.13186339  0.38085041  0.12370307  1
  O  O372  1  0.13239295  0.37602480  0.63022954  1
  O  O373  1  0.13561980  0.87963271  0.12312271  1
  O  O374  1  0.13304003  0.88499665  0.62964012  1
  O  O375  1  0.63062042  0.38016241  0.13092755  1
  O  O376  1  0.63522018  0.37470212  0.63434407  1
  O  O377  1  0.63455271  0.86867297  0.13117865  1
  O  O378  1  0.63566909  0.88922324  0.62931257  1
  O  O379  1  0.11635654  0.25071619  0.25494619  1
  O  O380  1  0.12042685  0.26805669  0.74562261  1
  O  O381  1  0.11224997  0.74274659  0.25554701  1
  O  O382  1  0.11592044  0.76807869  0.74480506  1
  O  O383  1  0.61655953  0.25880034  0.25662458  1
  O  O384  1  0.61610442  0.25459529  0.76064473  1
  O  O385  1  0.62928741  0.76548632  0.25612266  1
  O  O386  1  0.61817026  0.75524541  0.75632725  1
  O  O387  1  0.38548261  0.25603139  0.24017450  1
  O  O388  1  0.38793399  0.25007967  0.75139146  1
  O  O389  1  0.37693865  0.75708174  0.23708236  1
  O  O390  1  0.38851369  0.76070418  0.74999312  1
  O  O391  1  0.88095282  0.24675773  0.24070154  1
  O  O392  1  0.87677527  0.23579587  0.74985819  1
  O  O393  1  0.88211485  0.74002336  0.24683505  1
  O  O394  1  0.88662985  0.74566738  0.75058656  1
  O  O395  1  0.37962437  0.48500418  0.49642819  1
  O  O396  1  0.38198997  0.49255800  0.99650637  1
  O  O397  1  0.38663572  0.99576376  0.50340427  1
  O  O398  1  0.37481564  0.98749909  0.99440545  1
  O  O399  1  0.88039703  0.48652071  0.50181532  1
  O  O400  1  0.88404267  0.49201346  1.00797171  1
  O  O401  1  0.87737835  0.99890113  0.48542987  1
  O  O402  1  0.88616283  0.99642329  0.99837566  1
  O  O403  1  0.11227576  -0.00494952  0.01341172  1
  O  O404  1  0.12393506  0.00632201  0.50517772  1
  O  O405  1  0.11777559  0.50665967  0.01003427  1
  O  O406  1  0.11745444  0.50853969  0.49858794  1
  O  O407  1  0.62493784  0.01446963  -0.00549781  1
  O  O408  1  0.61689432  0.00555971  0.50807112  1
  O  O409  1  0.61706670  0.50800841  0.00206959  1
  O  O410  1  0.62344287  0.50984054  0.50705702  1
  O  O411  1  0.36610780  0.36649105  0.11522964  1
  O  O412  1  0.36934136  0.37552992  0.61814442  1
  O  O413  1  0.36556525  0.86757799  0.11916758  1
  O  O414  1  0.36147624  0.88168671  0.61675446  1
  O  O415  1  0.86763541  0.37026906  0.11751050  1
  O  O416  1  0.87021161  0.37153584  0.61885120  1
  O  O417  1  0.86534608  0.86201992  0.13039498  1
  O  O418  1  0.86755237  0.88692212  0.61355617  1
  O  O419  1  0.12864382  0.13100739  0.37976123  1
  O  O420  1  0.12495002  0.13614620  0.87224161  1
  O  O421  1  0.12872851  0.63542286  0.38182342  1
  O  O422  1  0.11795140  0.62194423  0.89579077  1
  O  O423  1  0.63163253  0.13532832  0.38140260  1
  O  O424  1  0.63167181  0.13173881  0.88280930  1
  O  O425  1  0.64330274  0.62150428  0.39093673  1
  O  O426  1  0.62544846  0.63365496  0.88010635  1
