# generated using pymatgen
data_V85Zn86O256
_symmetry_space_group_name_H-M   'P 1'
_cell_length_a   16.95949122
_cell_length_b   16.95209613
_cell_length_c   16.96426001
_cell_angle_alpha   90.03711827
_cell_angle_beta   90.12670192
_cell_angle_gamma   89.95932644
_symmetry_Int_Tables_number   1
_chemical_formula_structural   V85Zn86O256
_chemical_formula_sum   'V85 Zn86 O256'
_cell_volume   4877.19235333
_cell_formula_units_Z   1
loop_
 _symmetry_equiv_pos_site_id
 _symmetry_equiv_pos_as_xyz
  1  'x, y, z'
loop_
 _atom_site_type_symbol
 _atom_site_label
 _atom_site_symmetry_multiplicity
 _atom_site_fract_x
 _atom_site_fract_y
 _atom_site_fract_z
 _atom_site_occupancy
  V  V0  1  0.37323555  0.49863381  0.87460158  1
  V  V1  1  0.75685011  0.00111811  0.25064677  1
  V  V2  1  0.87874963  -0.00083383  0.38019066  1
  V  V3  1  0.24086693  0.63461463  0.37280417  1
  V  V4  1  0.49547852  0.00682384  0.50024620  1
  V  V5  1  0.34800460  0.23895168  0.14251514  1
  V  V6  1  0.50161344  0.75086966  0.25051165  1
  V  V7  1  0.50190275  0.37337459  0.87346862  1
  V  V8  1  0.74836964  0.37939668  0.62111090  1
  V  V9  1  0.25212699  0.49058710  0.24693240  1
  V  V10  1  0.62717100  0.87631723  0.25251419  1
  V  V11  1  0.11908325  0.37685811  0.26006152  1
  V  V12  1  0.62580155  0.50132069  0.12740280  1
  V  V13  1  0.50009220  0.62432271  0.12699671  1
  V  V14  1  0.12362913  0.62446784  0.00083153  1
  V  V15  1  -0.00496067  0.62203349  0.62357589  1
  V  V16  1  0.49878783  0.00094329  -0.00240167  1
  V  V17  1  0.37634847  0.49886067  0.38483002  1
  V  V18  1  0.50329305  0.86015561  0.88079578  1
  V  V19  1  0.25116068  0.62414370  0.86870722  1
  V  V20  1  0.00021122  0.25390951  0.26420247  1
  V  V21  1  0.01174612  0.75085358  0.25431099  1
  V  V22  1  0.87442282  0.25185743  0.62715948  1
  V  V23  1  -0.00199256  0.36925781  0.86675788  1
  V  V24  1  0.87195310  0.50329873  0.87399480  1
  V  V25  1  0.12730799  0.11705721  -0.00149222  1
  V  V26  1  0.62480337  0.62952239  0.00004758  1
  V  V27  1  0.24680647  0.35694573  0.62397507  1
  V  V28  1  0.75277564  0.62343854  0.37915363  1
  V  V29  1  0.62828742  0.38024283  0.75564456  1
  V  V30  1  0.24523880  0.25649687  -0.00960413  1
  V  V31  1  0.26127612  0.11493357  0.87020524  1
  V  V32  1  0.87627393  0.37132320  0.48951802  1
  V  V33  1  0.62357662  0.86660929  0.75563120  1
  V  V34  1  0.14110744  0.12950375  0.49568543  1
  V  V35  1  0.62056940  -0.00075848  0.62655353  1
  V  V36  1  0.75314777  0.13292097  0.87451245  1
  V  V37  1  0.87321961  0.63608570  0.24993126  1
  V  V38  1  0.75376131  0.87046577  0.12798471  1
  V  V39  1  -0.00798329  0.49784881  0.48577767  1
  V  V40  1  0.62872624  0.37812967  0.25174861  1
  V  V41  1  0.57216106  0.20008478  0.82201176  1
  V  V42  1  0.37556924  0.62201878  0.25134357  1
  V  V43  1  0.87645596  0.87109592  0.50735866  1
  V  V44  1  0.63394920  0.12397564  0.50443462  1
  V  V45  1  0.32811222  0.34015833  0.47114894  1
  V  V46  1  0.49903833  0.49953799  0.00269401  1
  V  V47  1  0.24307082  0.50206393  0.74204079  1
  V  V48  1  0.43385492  0.56523039  0.69142339  1
  V  V49  1  0.24818229  0.74856703  0.00275496  1
  V  V50  1  0.00960000  0.86706866  0.38095521  1
  V  V51  1  0.13353181  0.87881109  0.74424472  1
  V  V52  1  0.37036639  0.37332188  0.01041911  1
  V  V53  1  0.74940481  0.75345976  -0.00082713  1
  V  V54  1  -0.00160772  0.50169747  0.00054878  1
  V  V55  1  0.75225690  0.87017689  0.62983144  1
  V  V56  1  0.76036410  0.50182504  0.25440993  1
  V  V57  1  0.36624236  0.87132277  0.50169885  1
  V  V58  1  0.75062664  0.37611225  0.12447321  1
  V  V59  1  0.49762547  0.12605348  0.13112851  1
  V  V60  1  0.37373574  0.74978538  0.12555731  1
  V  V61  1  0.87177734  0.63295287  0.74679236  1
  V  V62  1  -0.00280133  0.75241063  0.74406912  1
  V  V63  1  0.88334422  0.12865215  0.75086548  1
  V  V64  1  0.37377521  0.87914231  -0.00344342  1
  V  V65  1  0.87410060  -0.00083309  0.87588227  1
  V  V66  1  0.00054879  0.87379216  0.87506377  1
  V  V67  1  0.61519393  0.61265285  0.50987768  1
  V  V68  1  0.63382611  0.24723559  0.37837473  1
  V  V69  1  0.50462174  0.25198138  0.24810496  1
  V  V70  1  -0.00531221  0.63243722  0.12411866  1
  V  V71  1  0.74848792  0.74933734  0.50406548  1
  V  V72  1  0.36099872  0.01106929  0.36081860  1
  V  V73  1  0.62642217  0.13106564  0.00390802  1
  V  V74  1  0.74508107  0.63199776  0.87495293  1
  V  V75  1  0.49867783  0.87917891  0.37495735  1
  V  V76  1  0.87645799  0.24941276  0.12574930  1
  V  V77  1  0.24353875  0.89066874  0.12816976  1
  V  V78  1  0.00678618  0.12571777  0.12602707  1
  V  V79  1  0.12681694  0.49145039  0.12355368  1
  V  V80  1  0.00534258  0.12675248  0.62354295  1
  V  V81  1  0.49456945  0.74726096  0.74033075  1
  V  V82  1  0.50406768  0.37932150  0.38723095  1
  V  V83  1  0.87743458  0.87345521  0.01070608  1
  V  V84  1  0.87391817  0.37601873  0.00025463  1
  Zn  Zn85  1  0.62678672  0.00029731  0.12640925  1
  Zn  Zn86  1  0.62457579  0.74911910  0.37840439  1
  Zn  Zn87  1  0.75558831  0.12657552  0.37991497  1
  Zn  Zn88  1  0.11877271  0.24275256  0.86736027  1
  Zn  Zn89  1  0.23158077  0.75883472  0.50470167  1
  Zn  Zn90  1  0.74612051  0.25378699  -0.00154654  1
  Zn  Zn91  1  0.74325908  0.00118110  0.75353981  1
  Zn  Zn92  1  0.11753522  0.36950272  0.74418706  1
  Zn  Zn93  1  0.00416393  -0.00072288  0.50592916  1
  Zn  Zn94  1  0.00484632  -0.00202127  0.00335366  1
  Zn  Zn95  1  0.38200543  0.12950183  0.73581962  1
  Zn  Zn96  1  0.39982631  0.23168083  0.61879451  1
  Zn  Zn97  1  0.13671304  0.88967901  0.25822209  1
  Zn  Zn98  1  0.36680843  0.74462085  0.62874539  1
  Zn  Zn99  1  0.11871215  0.49796246  0.62116096  1
  Zn  Zn100  1  0.14015162  0.00152732  0.62492597  1
  Zn  Zn101  1  0.12352920  0.74787908  0.87380521  1
  Zn  Zn102  1  0.27787249  -0.00917142  0.75005189  1
  Zn  Zn103  1  0.87889198  0.12616645  0.25494328  1
  Zn  Zn104  1  0.74633740  0.50596929  0.74453205  1
  Zn  Zn105  1  0.11418193  0.63107130  0.49348282  1
  Zn  Zn106  1  0.14458709  0.25757680  0.38740770  1
  Zn  Zn107  1  0.18099788  0.19721363  0.18286665  1
  Zn  Zn108  1  0.18359043  0.18656073  0.69512722  1
  Zn  Zn109  1  0.18602020  0.68508313  0.18791340  1
  Zn  Zn110  1  0.18295114  0.69112157  0.68245832  1
  Zn  Zn111  1  0.68933074  0.18598283  0.18829334  1
  Zn  Zn112  1  0.69577735  0.18637680  0.68151449  1
  Zn  Zn113  1  0.68812047  0.69069278  0.18763410  1
  Zn  Zn114  1  0.68227414  0.68877858  0.68516868  1
  Zn  Zn115  1  0.30454129  0.29360864  0.29888740  1
  Zn  Zn116  1  0.31723917  0.30707028  0.80500963  1
  Zn  Zn117  1  0.31545333  0.81680246  0.31157122  1
  Zn  Zn118  1  0.31571596  0.80690159  0.81531584  1
  Zn  Zn119  1  0.81360750  0.31163685  0.31012992  1
  Zn  Zn120  1  0.81411724  0.31223508  0.80857442  1
  Zn  Zn121  1  0.81768742  0.81240599  0.31793946  1
  Zn  Zn122  1  0.81160306  0.81314284  0.81561203  1
  Zn  Zn123  1  0.17965812  0.45054908  0.43513395  1
  Zn  Zn124  1  0.18511856  0.43871043  0.93261536  1
  Zn  Zn125  1  0.18880383  0.94825669  0.43845105  1
  Zn  Zn126  1  0.18774332  0.93822163  0.93427035  1
  Zn  Zn127  1  0.69253622  0.43799312  0.43840799  1
  Zn  Zn128  1  0.68645958  0.44001651  0.93651931  1
  Zn  Zn129  1  0.68862195  0.93797786  0.43851291  1
  Zn  Zn130  1  0.68417604  0.94216777  0.93680721  1
  Zn  Zn131  1  0.31301977  0.06490297  0.05887407  1
  Zn  Zn132  1  0.31414068  0.05939846  0.56910952  1
  Zn  Zn133  1  0.31098493  0.56159742  0.06269558  1
  Zn  Zn134  1  0.30608013  0.56282107  0.55535956  1
  Zn  Zn135  1  0.81552625  0.06122798  0.06362630  1
  Zn  Zn136  1  0.81147048  0.05708838  0.56823776  1
  Zn  Zn137  1  0.81280155  0.56523243  0.06425048  1
  Zn  Zn138  1  0.81412579  0.56042236  0.56159397  1
  Zn  Zn139  1  0.43764898  0.43139632  0.19127841  1
  Zn  Zn140  1  0.45135819  0.38266187  0.66169347  1
  Zn  Zn141  1  0.43506898  0.93817573  0.18467131  1
  Zn  Zn142  1  0.43020550  0.93758033  0.67797984  1
  Zn  Zn143  1  0.93911518  0.43967732  0.18827997  1
  Zn  Zn144  1  0.93058615  0.44335715  0.68536078  1
  Zn  Zn145  1  0.97608791  0.95965543  0.21083058  1
  Zn  Zn146  1  0.93885308  0.94236952  0.68919961  1
  Zn  Zn147  1  0.06989116  0.06584069  0.31920926  1
  Zn  Zn148  1  0.06329209  0.06086147  0.81584862  1
  Zn  Zn149  1  0.05936214  0.56063196  0.30923169  1
  Zn  Zn150  1  0.06194291  0.56130571  0.81106603  1
  Zn  Zn151  1  0.56370370  0.06255048  0.31341406  1
  Zn  Zn152  1  0.51183717  0.02331583  0.78924472  1
  Zn  Zn153  1  0.56588735  0.56248397  0.31956251  1
  Zn  Zn154  1  0.56624449  0.55893667  0.81643382  1
  Zn  Zn155  1  0.44323224  0.18400765  0.43352693  1
  Zn  Zn156  1  0.43095080  0.18751415  0.94781505  1
  Zn  Zn157  1  0.43756934  0.68833567  0.43594131  1
  Zn  Zn158  1  0.43408873  0.68628807  0.93673364  1
  Zn  Zn159  1  0.93881887  0.18685465  0.44340651  1
  Zn  Zn160  1  0.93646457  0.18826409  0.94203336  1
  Zn  Zn161  1  0.93272855  0.68919039  0.43792659  1
  Zn  Zn162  1  0.93375255  0.69187190  0.93654739  1
  Zn  Zn163  1  0.06205243  0.31059553  0.05814025  1
  Zn  Zn164  1  0.05999775  0.31027620  0.56387456  1
  Zn  Zn165  1  0.06386322  0.81119760  0.06524353  1
  Zn  Zn166  1  0.06254526  0.80751322  0.56559576  1
  Zn  Zn167  1  0.56083099  0.31235949  0.06293259  1
  Zn  Zn168  1  0.57406553  0.30991191  0.55939688  1
  Zn  Zn169  1  0.56647224  0.81223546  0.06646293  1
  Zn  Zn170  1  0.56263441  0.81264862  0.56138863  1
  O  O171  1  0.11714692  0.13339210  0.11477010  1
  O  O172  1  0.11852915  0.12462741  0.61940785  1
  O  O173  1  0.11566557  0.61621800  0.12063166  1
  O  O174  1  0.10359608  0.62270016  0.62727091  1
  O  O175  1  0.61802133  0.12181312  0.11985013  1
  O  O176  1  0.63101903  0.11332227  0.61901077  1
  O  O177  1  0.62027765  0.62077256  0.12098064  1
  O  O178  1  0.62802632  0.62426471  0.60983466  1
  O  O179  1  0.38510189  0.37899534  0.37984891  1
  O  O180  1  0.38360433  0.37906313  0.88077757  1
  O  O181  1  0.38318627  0.88355308  0.37945553  1
  O  O182  1  0.38346810  0.86747002  0.89069115  1
  O  O183  1  0.86772283  0.37149901  0.39101650  1
  O  O184  1  0.87945621  0.38460286  0.87844154  1
  O  O185  1  0.88126687  0.88001546  0.38780598  1
  O  O186  1  0.88280288  0.88111460  0.88156564  1
  O  O187  1  0.26082560  0.00005787  0.36692896  1
  O  O188  1  0.25323483  0.01074110  0.87216558  1
  O  O189  1  0.25655903  0.50683262  0.36299782  1
  O  O190  1  0.25346327  0.50326695  0.86286269  1
  O  O191  1  0.76214384  -0.00376926  0.36741424  1
  O  O192  1  0.75560606  0.01160975  0.87470691  1
  O  O193  1  0.74838825  0.50885850  0.36445729  1
  O  O194  1  0.76059809  0.50921468  0.87647943  1
  O  O195  1  0.23839198  0.50699741  0.13387764  1
  O  O196  1  0.24348412  0.50970892  0.63643239  1
  O  O197  1  0.25419023  0.98907153  0.12240433  1
  O  O198  1  0.25282161  0.99729225  0.63938382  1
  O  O199  1  0.74547754  0.49626393  0.13182784  1
  O  O200  1  0.75928789  0.48403395  0.62895555  1
  O  O201  1  0.75334900  0.98925735  0.13337268  1
  O  O202  1  0.73821588  0.98804940  0.63116612  1
  O  O203  1  0.00753132  0.36741495  0.24459619  1
  O  O204  1  -0.00707491  0.38422992  0.76496100  1
  O  O205  1  -0.01146948  0.85953712  0.26557768  1
  O  O206  1  0.00161999  0.86865013  0.75786619  1
  O  O207  1  0.51583927  0.37287692  0.25591336  1
  O  O208  1  0.51019127  0.37753123  0.76898037  1
  O  O209  1  0.50590551  0.87220880  0.25448777  1
  O  O210  1  0.50354480  0.86517503  0.76107979  1
  O  O211  1  0.50672408  0.13474522  0.23975253  1
  O  O212  1  0.51726210  0.13703330  0.76719970  1
  O  O213  1  0.49622163  0.62938030  0.24651594  1
  O  O214  1  0.49938551  0.62632576  0.74884659  1
  O  O215  1  1.00026712  0.13794484  0.24216978  1
  O  O216  1  0.98838765  0.11907579  0.74734303  1
  O  O217  1  0.99267969  0.63155786  0.24487549  1
  O  O218  1  0.99090560  0.63176577  0.74697165  1
  O  O219  1  0.36408983  0.25601203  0.01105895  1
  O  O220  1  0.38515102  0.25765833  0.49984284  1
  O  O221  1  0.36712959  0.75480741  0.00694463  1
  O  O222  1  0.37681401  0.76613927  0.49375173  1
  O  O223  1  0.87189968  0.25832860  0.00945385  1
  O  O224  1  0.88016326  0.26455395  0.50837134  1
  O  O225  1  0.86165366  0.76023621  -0.00321439  1
  O  O226  1  0.86279199  0.76208742  0.49974460  1
  O  O227  1  0.11805003  0.23525475  0.49957145  1
  O  O228  1  0.13011714  0.24434080  0.98927378  1
  O  O229  1  0.11926347  0.74380949  0.49626085  1
  O  O230  1  0.13247189  0.74370740  0.99782548  1
  O  O231  1  0.62626984  0.23767192  0.49018678  1
  O  O232  1  0.62740633  0.23666945  1.00695034  1
  O  O233  1  0.63702946  0.74542180  0.49975518  1
  O  O234  1  0.63888588  0.74404271  1.00694136  1
  O  O235  1  0.50031757  0.24056953  0.13118068  1
  O  O236  1  0.49926007  0.28522626  0.63464907  1
  O  O237  1  0.49480443  0.74471564  0.13059399  1
  O  O238  1  0.49657697  0.75437073  0.63731504  1
  O  O239  1  0.99311075  0.24464572  0.12879750  1
  O  O240  1  0.98760491  0.23824867  0.62418678  1
  O  O241  1  1.00267642  0.73881991  0.13259266  1
  O  O242  1  0.99477543  0.74442267  0.63919154  1
  O  O243  1  -0.00325808  0.24909672  0.36465326  1
  O  O244  1  -0.00711863  0.26729016  0.87906732  1
  O  O245  1  -0.00484006  0.75536645  0.36779728  1
  O  O246  1  -0.00085385  0.75721690  0.86587249  1
  O  O247  1  0.51229235  0.25735161  0.36683308  1
  O  O248  1  0.50518059  0.25343634  0.88275031  1
  O  O249  1  0.50081461  0.76261256  0.36768558  1
  O  O250  1  0.49864786  0.75553207  0.87100034  1
  O  O251  1  0.23892586  0.12456090  0.50393709  1
  O  O252  1  0.24424035  0.13144323  0.99031263  1
  O  O253  1  0.24532671  0.62191557  0.47887714  1
  O  O254  1  0.24391691  0.63051421  0.99442186  1
  O  O255  1  0.73861300  0.11487063  0.49838667  1
  O  O256  1  0.74253981  0.12465285  0.99383355  1
  O  O257  1  0.75015690  0.63177233  0.49503532  1
  O  O258  1  0.74792655  0.63436856  0.99521216  1
  O  O259  1  0.26013873  0.37006490  -0.01293102  1
  O  O260  1  0.23608849  0.38542382  0.51333446  1
  O  O261  1  0.25579303  0.86871702  0.00463240  1
  O  O262  1  0.26320118  0.87413597  0.48916385  1
  O  O263  1  0.75549181  0.37594626  0.00627548  1
  O  O264  1  0.76200657  0.37869355  0.51200841  1
  O  O265  1  0.75312308  0.87131457  0.00633433  1
  O  O266  1  0.75363819  0.86838934  0.50953023  1
  O  O267  1  0.12828306  0.49452827  0.24223069  1
  O  O268  1  0.13102548  0.49194087  0.74929565  1
  O  O269  1  0.08555919  0.98889579  0.24231160  1
  O  O270  1  0.12024998  0.98269102  0.75280184  1
  O  O271  1  0.63649280  0.49824839  0.24527753  1
  O  O272  1  0.62994084  0.48559422  0.75490785  1
  O  O273  1  0.63757647  0.99352293  0.25038231  1
  O  O274  1  0.61610740  0.98533285  0.74282042  1
  O  O275  1  0.38070080  -0.00132340  0.26240962  1
  O  O276  1  0.39814899  0.01085538  0.75602515  1
  O  O277  1  0.36622448  0.50121883  0.25280316  1
  O  O278  1  0.36629134  0.51272836  0.75417759  1
  O  O279  1  0.87318267  0.00120100  0.26109899  1
  O  O280  1  0.87135011  0.00460534  0.76392539  1
  O  O281  1  0.86500178  0.51006244  0.24440844  1
  O  O282  1  0.87119671  0.51453072  0.75965843  1
  O  O283  1  0.12244170  0.37943575  0.36337001  1
  O  O284  1  0.10361395  0.37929022  0.87659151  1
  O  O285  1  0.11221444  0.88130362  0.37751849  1
  O  O286  1  0.11181824  0.87313027  0.87187306  1
  O  O287  1  0.62566250  0.36853923  0.36964941  1
  O  O288  1  0.61952031  0.37372816  0.87028971  1
  O  O289  1  0.61806751  0.87399460  0.36952725  1
  O  O290  1  0.61736738  0.87511628  0.86844394  1
  O  O291  1  0.38448801  0.13646962  0.11720296  1
  O  O292  1  0.39303493  0.11908971  0.61911668  1
  O  O293  1  0.38067138  0.62900026  0.13100878  1
  O  O294  1  0.38460231  0.61987731  0.61982237  1
  O  O295  1  0.87799432  0.13985145  0.12475275  1
  O  O296  1  0.87693869  0.12996436  0.63334380  1
  O  O297  1  0.88447067  0.62194247  0.13399224  1
  O  O298  1  0.88043538  0.62294538  0.63621764  1
  O  O299  1  0.24571563  0.25711119  0.10040172  1
  O  O300  1  0.24598109  0.25802510  0.62420803  1
  O  O301  1  0.25375499  0.74886664  0.11424074  1
  O  O302  1  0.25545378  0.73666670  0.61436309  1
  O  O303  1  0.75849595  0.25807746  0.12672685  1
  O  O304  1  0.76421934  0.26151866  0.62695730  1
  O  O305  1  0.75053067  0.76366841  0.12054501  1
  O  O306  1  0.74735408  0.76188978  0.62030514  1
  O  O307  1  0.26136258  0.28617743  0.40133754  1
  O  O308  1  0.25147889  0.24165031  0.88110705  1
  O  O309  1  0.25602373  0.73576041  0.37097460  1
  O  O310  1  0.24963400  0.74061190  0.88652214  1
  O  O311  1  0.73778538  0.24600241  0.36536161  1
  O  O312  1  0.76056716  0.23723558  0.87950710  1
  O  O313  1  0.74868111  0.74437877  0.38529978  1
  O  O314  1  0.75087150  0.74237170  0.88464021  1
  O  O315  1  0.01106627  0.12749961  0.00491043  1
  O  O316  1  0.00160451  0.12016192  0.51176659  1
  O  O317  1  0.00101376  0.62325242  0.00669726  1
  O  O318  1  -0.01233036  0.61499987  0.50722219  1
  O  O319  1  0.50584996  0.11804616  0.00652998  1
  O  O320  1  0.51440759  0.11037617  0.49188041  1
  O  O321  1  0.50402776  0.62062227  0.00681146  1
  O  O322  1  0.51693467  0.62829169  0.49092675  1
  O  O323  1  0.51596032  0.38120368  0.48533907  1
  O  O324  1  0.49309129  0.37845668  0.99345798  1
  O  O325  1  0.49620471  0.88221316  0.49026209  1
  O  O326  1  0.49495688  0.87631186  0.99954805  1
  O  O327  1  0.98827958  0.38700193  0.50352690  1
  O  O328  1  0.99175137  0.38307334  0.99272799  1
  O  O329  1  0.99126324  0.87500969  0.49874739  1
  O  O330  1  0.99324391  0.87336974  0.99497833  1
  O  O331  1  0.48851845  0.49009986  0.36424695  1
  O  O332  1  0.49458930  0.49285066  0.88437948  1
  O  O333  1  0.49975067  0.99044154  0.38046738  1
  O  O334  1  0.50403567  0.98119028  0.89410797  1
  O  O335  1  0.99401563  0.50634893  0.38685969  1
  O  O336  1  0.98712657  0.49850912  0.88134915  1
  O  O337  1  0.98814046  0.99131621  0.38268936  1
  O  O338  1  0.99141060  0.99138430  0.88008044  1
  O  O339  1  -0.01822195  0.02382817  0.11589645  1
  O  O340  1  0.00137819  0.01453765  0.62656666  1
  O  O341  1  0.00533146  0.51050159  0.11924340  1
  O  O342  1  -0.00322075  0.50781097  0.61760603  1
  O  O343  1  0.50143566  0.00767111  0.11660811  1
  O  O344  1  0.51320187  -0.01090886  0.61249344  1
  O  O345  1  0.50451653  0.50373857  0.12198261  1
  O  O346  1  0.48381197  0.49400642  0.64460321  1
  O  O347  1  0.23947905  0.38594408  0.24844522  1
  O  O348  1  0.25222329  0.38415876  0.73435742  1
  O  O349  1  0.24996700  0.87043942  0.23287666  1
  O  O350  1  0.23614947  0.87381288  0.76378152  1
  O  O351  1  0.74853305  0.38494630  0.24523547  1
  O  O352  1  0.74569520  0.37816460  0.74376434  1
  O  O353  1  0.75101349  0.88095180  0.24491755  1
  O  O354  1  0.74141513  0.87507156  0.74725513  1
  O  O355  1  0.28492229  0.20156356  0.22644714  1
  O  O356  1  0.25325618  0.12166864  0.76447504  1
  O  O357  1  0.25576757  0.61754420  0.25619067  1
  O  O358  1  0.23692411  0.62018354  0.76398960  1
  O  O359  1  0.75447077  0.11063719  0.25004182  1
  O  O360  1  0.76008585  0.12191497  0.75832806  1
  O  O361  1  0.75599052  0.62181556  0.25480031  1
  O  O362  1  0.75334195  0.62852143  0.75774241  1
  O  O363  1  0.38017342  0.10953693  0.37638244  1
  O  O364  1  0.36205929  0.12612137  0.87965420  1
  O  O365  1  0.36985438  0.61646276  0.36838763  1
  O  O366  1  0.36145119  0.61272643  0.88562989  1
  O  O367  1  0.87376692  0.11507033  0.37744245  1
  O  O368  1  0.87172096  0.11865884  0.87191725  1
  O  O369  1  0.86140203  0.62834772  0.36622807  1
  O  O370  1  0.86517314  0.62071050  0.87131220  1
  O  O371  1  0.11714725  0.38778852  0.12897949  1
  O  O372  1  0.13244518  0.37837868  0.62532613  1
  O  O373  1  0.14227704  0.87446737  0.12009624  1
  O  O374  1  0.11927912  0.87609205  0.64213867  1
  O  O375  1  0.63070632  0.38121653  0.13060252  1
  O  O376  1  0.64458295  0.36991236  0.63359397  1
  O  O377  1  0.63573800  0.87880345  0.13339942  1
  O  O378  1  0.63205470  0.87853741  0.63239962  1
  O  O379  1  0.11834637  0.26084739  0.25816739  1
  O  O380  1  0.12384243  0.25750422  0.75683068  1
  O  O381  1  0.11377443  0.75652637  0.24592834  1
  O  O382  1  0.11523166  0.76094218  0.75401134  1
  O  O383  1  0.62027169  0.25625917  0.25354923  1
  O  O384  1  0.63145519  0.25438843  0.75726960  1
  O  O385  1  0.61939292  0.75792231  0.25207044  1
  O  O386  1  0.61541009  0.75971498  0.74806484  1
  O  O387  1  0.40201321  0.27904001  0.23819454  1
  O  O388  1  0.37631056  0.24464783  0.73585908  1
  O  O389  1  0.38179769  0.74435352  0.24385965  1
  O  O390  1  0.38565473  0.74824513  0.74864940  1
  O  O391  1  0.88291341  0.25001856  0.24269510  1
  O  O392  1  0.87411319  0.23959451  0.74225269  1
  O  O393  1  0.87901758  0.73912879  0.25003647  1
  O  O394  1  0.88043659  0.73985046  0.75797581  1
  O  O395  1  0.36447285  0.49024334  0.48437740  1
  O  O396  1  0.37890939  0.49092585  0.99803855  1
  O  O397  1  0.38268693  0.98870943  0.48969012  1
  O  O398  1  0.38438754  0.98987974  1.00577000  1
  O  O399  1  0.88327770  0.48720559  0.50263837  1
  O  O400  1  0.87800298  0.49682877  0.99404756  1
  O  O401  1  0.87240884  0.98715882  0.49669905  1
  O  O402  1  0.87384485  0.99219654  0.98871061  1
  O  O403  1  0.12452225  0.01226921  -0.00216590  1
  O  O404  1  0.12343824  0.01409785  0.50473157  1
  O  O405  1  0.11983649  0.50449531  0.00606855  1
  O  O406  1  0.10514073  0.50995781  0.50019298  1
  O  O407  1  0.61879820  0.01251518  0.00367945  1
  O  O408  1  0.61985886  0.00286139  0.50683060  1
  O  O409  1  0.61937575  0.50753417  0.00777788  1
  O  O410  1  0.63051460  0.51406291  0.49574281  1
  O  O411  1  0.37658316  0.36687746  0.11386450  1
  O  O412  1  0.34910728  0.37377856  0.60044478  1
  O  O413  1  0.36592573  0.86859225  0.11589859  1
  O  O414  1  0.37804924  0.87037038  0.60488053  1
  O  O415  1  0.87168624  0.36818159  0.12131405  1
  O  O416  1  0.86860023  0.36793123  0.62252444  1
  O  O417  1  0.87025737  0.88063910  0.11195643  1
  O  O418  1  0.86469365  0.88231636  0.62087349  1
  O  O419  1  0.12677520  0.13302724  0.38937880  1
  O  O420  1  0.13472647  0.12415031  0.88174682  1
  O  O421  1  0.13862471  0.62161294  0.36642117  1
  O  O422  1  0.13081920  0.62382983  0.88422440  1
  O  O423  1  0.62929797  0.13114915  0.38171948  1
  O  O424  1  0.63229988  0.13519054  0.88055494  1
  O  O425  1  0.63878316  0.62909686  0.38061759  1
  O  O426  1  0.63801235  0.61957462  0.88318906  1
