# generated using pymatgen
data_V85Zn86O256
_symmetry_space_group_name_H-M   'P 1'
_cell_length_a   16.96147304
_cell_length_b   16.95833459
_cell_length_c   16.97894280
_cell_angle_alpha   90.11407196
_cell_angle_beta   89.98046847
_cell_angle_gamma   89.92588824
_symmetry_Int_Tables_number   1
_chemical_formula_structural   V85Zn86O256
_chemical_formula_sum   'V85 Zn86 O256'
_cell_volume   4883.78078248
_cell_formula_units_Z   1
loop_
 _symmetry_equiv_pos_site_id
 _symmetry_equiv_pos_as_xyz
  1  'x, y, z'
loop_
 _atom_site_type_symbol
 _atom_site_label
 _atom_site_symmetry_multiplicity
 _atom_site_fract_x
 _atom_site_fract_y
 _atom_site_fract_z
 _atom_site_occupancy
  V  V0  1  0.12879763  0.13190770  0.50039153  1
  V  V1  1  0.75469198  0.00053461  0.74982387  1
  V  V2  1  0.87974840  0.12500554  0.23585280  1
  V  V3  1  0.12350099  0.62311743  0.49921649  1
  V  V4  1  0.75181688  0.25442666  -0.00107080  1
  V  V5  1  0.63487389  0.74440378  0.87651564  1
  V  V6  1  0.24597446  0.74727948  0.49339681  1
  V  V7  1  0.24955212  -0.00602590  0.24623080  1
  V  V8  1  0.50144411  0.74796331  0.75323152  1
  V  V9  1  0.17891171  0.93223506  0.79178891  1
  V  V10  1  0.49732852  0.62100997  0.11247701  1
  V  V11  1  0.75501761  0.13032971  0.37224731  1
  V  V12  1  -0.00001015  0.37400460  0.37419180  1
  V  V13  1  0.49950042  0.88034377  0.88129992  1
  V  V14  1  0.62256244  -0.00787857  0.62356262  1
  V  V15  1  0.37960535  0.24470256  0.12493134  1
  V  V16  1  0.37653864  0.38006072  0.00169720  1
  V  V17  1  0.49689921  -0.00415964  0.49521980  1
  V  V18  1  0.00175485  0.74802149  0.23536957  1
  V  V19  1  0.62284138  0.24534753  0.87428224  1
  V  V20  1  0.12445386  0.50394826  0.12504244  1
  V  V21  1  0.37612081  0.88309582  0.00005651  1
  V  V22  1  0.12310251  0.24856411  0.87405355  1
  V  V23  1  0.86707076  0.76236217  0.62524477  1
  V  V24  1  0.11257328  0.00218429  0.12750183  1
  V  V25  1  0.38456135  0.11906294  0.24888065  1
  V  V26  1  0.25158283  0.13046478  0.37512022  1
  V  V27  1  0.24508010  0.87725862  0.62236845  1
  V  V28  1  -0.01406435  0.24651797  0.74267793  1
  V  V29  1  0.24972399  0.50888353  0.25309692  1
  V  V30  1  0.00130138  0.62350646  0.62602234  1
  V  V31  1  0.87104172  0.62771121  0.75485346  1
  V  V32  1  0.25175792  0.37512401  0.12571806  1
  V  V33  1  0.74974564  0.50338164  0.75393136  1
  V  V34  1  0.50205668  0.62306142  0.62504061  1
  V  V35  1  0.75501456  0.13016027  0.86601116  1
  V  V36  1  0.87211919  0.86953039  0.00650940  1
  V  V37  1  0.12258715  -0.00131052  0.62569220  1
  V  V38  1  0.63217708  0.62387783  0.48581568  1
  V  V39  1  0.36813309  0.36281225  0.50081484  1
  V  V40  1  0.74647190  0.50605656  0.25075596  1
  V  V41  1  0.49671233  0.49777947  0.50002967  1
  V  V42  1  0.00092611  0.50066956  0.50564230  1
  V  V43  1  0.00322306  0.24808272  0.24148103  1
  V  V44  1  -0.00172810  0.88492719  0.87525121  1
  V  V45  1  0.12036928  0.37914180  0.74369296  1
  V  V46  1  0.75219537  0.37823261  0.12494314  1
  V  V47  1  -0.00418440  0.38043090  0.87504152  1
  V  V48  1  0.37035100  0.74745835  0.62574754  1
  V  V49  1  0.62671341  0.87407718  0.74852994  1
  V  V50  1  0.80941967  0.19974981  0.55857191  1
  V  V51  1  0.63318161  0.61650560  -0.00633409  1
  V  V52  1  0.38719934  0.62855396  0.25442217  1
  V  V53  1  0.88600944  0.62305408  0.23675758  1
  V  V54  1  0.50407152  0.24571080  0.24841792  1
  V  V55  1  0.00253396  -0.00206758  0.49860575  1
  V  V56  1  0.87107363  0.37218078  0.50032299  1
  V  V57  1  0.25024670  0.23990813  -0.00071783  1
  V  V58  1  0.87067933  0.50383106  0.37473589  1
  V  V59  1  0.48942265  0.25302340  0.74654181  1
  V  V60  1  0.36878413  0.50225893  0.37747584  1
  V  V61  1  -0.00385066  0.50675918  0.00396187  1
  V  V62  1  0.75328427  0.37291056  0.62044431  1
  V  V63  1  0.24270536  0.36868038  0.62238469  1
  V  V64  1  0.75407471  -0.01510321  0.24003819  1
  V  V65  1  0.61822660  0.49692654  0.12219190  1
  V  V66  1  0.24203016  0.49888413  0.74255686  1
  V  V67  1  0.12168068  0.74812683  0.37054867  1
  V  V68  1  0.10511454  0.12803208  0.00705546  1
  V  V69  1  0.37301674  0.49652827  0.87706225  1
  V  V70  1  0.00256289  0.75692216  0.75005956  1
  V  V71  1  0.49871510  0.37942156  0.88102369  1
  V  V72  1  0.12268544  0.62764299  0.00523485  1
  V  V73  1  0.12731110  0.75198629  0.87163657  1
  V  V74  1  0.12794716  0.37533443  0.25088234  1
  V  V75  1  0.62526851  0.12954164  0.50025281  1
  V  V76  1  0.87365412  0.00586208  0.88803460  1
  V  V77  1  0.37318669  0.62129464  0.75092514  1
  V  V78  1  0.49090103  0.12636667  0.62603112  1
  V  V79  1  0.24882324  0.62330247  0.87462120  1
  V  V80  1  0.62397891  0.37622983  0.74798089  1
  V  V81  1  0.37839317  0.75241209  0.12662942  1
  V  V82  1  0.00619177  0.87391311  0.36644086  1
  V  V83  1  0.87673406  -0.00115406  0.37213837  1
  V  V84  1  0.50095887  0.37318375  0.37554334  1
  Zn  Zn85  1  0.32391205  0.06026908  0.80512814  1
  Zn  Zn86  1  0.61647675  0.85173778  0.24201577  1
  Zn  Zn87  1  0.63059936  0.24929021  0.37562495  1
  Zn  Zn88  1  0.87948133  0.25020085  0.11861344  1
  Zn  Zn89  1  0.49812431  0.85452982  0.36237640  1
  Zn  Zn90  1  0.73475302  0.76614779  0.48985055  1
  Zn  Zn91  1  0.36023676  0.24168310  0.62523946  1
  Zn  Zn92  1  0.86674830  0.87175315  0.49406904  1
  Zn  Zn93  1  0.61978304  -0.01104253  0.12009644  1
  Zn  Zn94  1  -0.01567510  0.12586339  0.62381534  1
  Zn  Zn95  1  0.24548452  0.87379132  0.12744105  1
  Zn  Zn96  1  0.86648957  0.51117734  0.88250276  1
  Zn  Zn97  1  0.49734198  0.02251344  0.01096390  1
  Zn  Zn98  1  0.37654222  0.87181303  0.49685973  1
  Zn  Zn99  1  0.62220861  0.12327229  0.00680298  1
  Zn  Zn100  1  0.62738370  0.37353172  0.25136235  1
  Zn  Zn101  1  0.87390471  0.38380805  0.00052739  1
  Zn  Zn102  1  0.37127052  -0.00554711  0.37525803  1
  Zn  Zn103  1  0.25070139  0.75117566  0.00147146  1
  Zn  Zn104  1  0.13052504  0.25268917  0.37798456  1
  Zn  Zn105  1  0.62649940  0.49887969  0.62226591  1
  Zn  Zn106  1  0.74741995  0.75911920  0.01222517  1
  Zn  Zn107  1  0.19046229  0.18370167  0.18795301  1
  Zn  Zn108  1  0.17918759  0.18367991  0.68842477  1
  Zn  Zn109  1  0.19188852  0.68947778  0.18784231  1
  Zn  Zn110  1  0.18352316  0.68854485  0.68557129  1
  Zn  Zn111  1  0.68851015  0.18356634  0.18814592  1
  Zn  Zn112  1  0.67496160  0.18293865  0.69116094  1
  Zn  Zn113  1  0.69826528  0.68836805  0.17885423  1
  Zn  Zn114  1  0.68832061  0.68792954  0.68271992  1
  Zn  Zn115  1  0.31414968  0.31132881  0.31133740  1
  Zn  Zn116  1  0.30390667  0.22058848  0.81215486  1
  Zn  Zn117  1  0.31659969  0.81303076  0.31323171  1
  Zn  Zn118  1  0.31780111  0.80985013  0.81663172  1
  Zn  Zn119  1  0.81507614  0.31280859  0.30906409  1
  Zn  Zn120  1  0.81179069  0.32076089  0.81296816  1
  Zn  Zn121  1  0.81022146  0.80088442  0.31134277  1
  Zn  Zn122  1  0.81161322  0.81662867  0.81490664  1
  Zn  Zn123  1  0.18529285  0.43903817  0.43919103  1
  Zn  Zn124  1  0.18718568  0.43484479  0.93554570  1
  Zn  Zn125  1  0.18803153  0.93821618  0.43455843  1
  Zn  Zn126  1  0.19013462  0.94603617  0.95677126  1
  Zn  Zn127  1  0.68553015  0.44082578  0.43686718  1
  Zn  Zn128  1  0.68414133  0.43971116  0.93915640  1
  Zn  Zn129  1  0.68509542  0.93088366  0.42794540  1
  Zn  Zn130  1  0.68573453  0.93789800  0.93935098  1
  Zn  Zn131  1  0.31264939  0.06315530  0.06476213  1
  Zn  Zn132  1  0.30913148  0.05929193  0.56359094  1
  Zn  Zn133  1  0.30938138  0.56456157  0.06421429  1
  Zn  Zn134  1  0.30856279  0.56058480  0.56314131  1
  Zn  Zn135  1  0.78357521  0.07153191  0.06857084  1
  Zn  Zn136  1  0.80311412  0.03224536  0.55650204  1
  Zn  Zn137  1  0.80656781  0.58145232  0.06646432  1
  Zn  Zn138  1  0.81482112  0.56187264  0.56844861  1
  Zn  Zn139  1  0.43894537  0.43658096  0.19131234  1
  Zn  Zn140  1  0.43068446  0.43428230  0.68632116  1
  Zn  Zn141  1  0.44822259  0.93475181  0.18633484  1
  Zn  Zn142  1  0.43387846  0.93199373  0.68287261  1
  Zn  Zn143  1  0.93784050  0.43789316  0.18545443  1
  Zn  Zn144  1  0.93264617  0.43813375  0.68704417  1
  Zn  Zn145  1  0.93803008  0.93425566  0.18764687  1
  Zn  Zn146  1  0.93953034  0.94001915  0.69150894  1
  Zn  Zn147  1  0.06558690  0.06479567  0.31041523  1
  Zn  Zn148  1  0.05507304  0.07351821  0.81752666  1
  Zn  Zn149  1  0.06085520  0.56296280  0.31747464  1
  Zn  Zn150  1  0.05964963  0.56516330  0.81497237  1
  Zn  Zn151  1  0.58217432  0.02641697  0.32523862  1
  Zn  Zn152  1  0.51680048  0.04198542  0.79197581  1
  Zn  Zn153  1  0.56767054  0.68849473  0.31101962  1
  Zn  Zn154  1  0.56061985  0.55930489  0.81228933  1
  Zn  Zn155  1  0.43924849  0.18252427  0.43422917  1
  Zn  Zn156  1  0.43904424  0.18548782  0.93521860  1
  Zn  Zn157  1  0.43263292  0.68300079  0.44199798  1
  Zn  Zn158  1  0.43890759  0.69116663  0.93921974  1
  Zn  Zn159  1  0.94649798  0.18359080  0.42903107  1
  Zn  Zn160  1  0.93266422  0.19232930  0.93141886  1
  Zn  Zn161  1  0.91003328  0.70109088  0.42512198  1
  Zn  Zn162  1  0.94114431  0.69115636  0.93718321  1
  Zn  Zn163  1  0.06311326  0.31892618  0.06193437  1
  Zn  Zn164  1  0.05847185  0.31204697  0.56443925  1
  Zn  Zn165  1  0.06117693  0.82113380  0.05618434  1
  Zn  Zn166  1  0.05871313  0.81363148  0.56089236  1
  Zn  Zn167  1  0.56326384  0.30860108  0.06241800  1
  Zn  Zn168  1  0.56317170  0.31052531  0.56189661  1
  Zn  Zn169  1  0.56304114  0.81155339  0.06893716  1
  Zn  Zn170  1  0.56050310  0.80808426  0.55876369  1
  O  O171  1  0.12472108  0.12129745  0.11418918  1
  O  O172  1  0.12231439  0.11303843  0.61646683  1
  O  O173  1  0.13275633  0.62052071  0.11256577  1
  O  O174  1  0.10925573  0.63117323  0.61620966  1
  O  O175  1  0.67437442  0.10777210  0.10904427  1
  O  O176  1  0.61539219  0.11694877  0.61693519  1
  O  O177  1  0.61459893  0.61494870  0.11359373  1
  O  O178  1  0.60980113  0.61977104  0.62762813  1
  O  O179  1  0.38176518  0.37830470  0.38161726  1
  O  O180  1  0.38270538  0.38020889  0.88644949  1
  O  O181  1  0.38012267  0.87772624  0.38000552  1
  O  O182  1  0.38367345  0.86750185  0.89027942  1
  O  O183  1  0.88231394  0.38052203  0.38012089  1
  O  O184  1  0.88667051  0.38370166  0.87546717  1
  O  O185  1  0.88961876  0.88811634  0.37240241  1
  O  O186  1  0.88212601  0.88613016  0.87688167  1
  O  O187  1  0.24830089  0.00956806  0.36497111  1
  O  O188  1  0.23863193  -0.01290416  0.85781727  1
  O  O189  1  0.26050891  0.49289213  0.36809734  1
  O  O190  1  0.25369401  0.50260539  0.86473906  1
  O  O191  1  0.76330942  0.01011394  0.36777327  1
  O  O192  1  0.75358797  0.01147768  0.86769447  1
  O  O193  1  0.75977130  0.49045201  0.36431189  1
  O  O194  1  0.75087268  0.48793289  0.85730612  1
  O  O195  1  0.24503743  0.49444345  0.13399437  1
  O  O196  1  0.25078313  0.49277173  0.63734075  1
  O  O197  1  0.24245095  1.00142309  0.13234380  1
  O  O198  1  0.24172797  0.98591774  0.62496412  1
  O  O199  1  0.74368009  0.49440203  0.12974971  1
  O  O200  1  0.74878431  0.48962455  0.63514201  1
  O  O201  1  0.77344707  0.98332690  0.14227686  1
  O  O202  1  0.73104204  1.00229518  0.63643441  1
  O  O203  1  0.00642867  0.37223911  0.25812928  1
  O  O204  1  0.00317035  0.37201241  0.75395968  1
  O  O205  1  -0.00253935  0.86302806  0.25676654  1
  O  O206  1  -0.00181996  0.86721497  0.76036815  1
  O  O207  1  0.50150877  0.36705516  0.26111641  1
  O  O208  1  0.50701203  0.37194401  0.75251972  1
  O  O209  1  0.49871546  0.85806886  0.24694454  1
  O  O210  1  0.50854680  0.86595611  0.75882922  1
  O  O211  1  0.48760452  0.13231066  0.25714211  1
  O  O212  1  0.51196564  0.14196560  0.73675502  1
  O  O213  1  0.48943391  0.62635608  0.23991887  1
  O  O214  1  0.49245706  0.62601018  0.74304054  1
  O  O215  1  0.99270888  0.13743366  0.25723438  1
  O  O216  1  0.99838613  0.14205527  0.74492726  1
  O  O217  1  0.99452027  0.63214621  0.25484076  1
  O  O218  1  0.99456892  0.63312751  0.74393263  1
  O  O219  1  0.36625354  0.26111111  0.00912703  1
  O  O220  1  0.37774524  0.26068367  0.50040526  1
  O  O221  1  0.37090922  0.75478895  0.00932398  1
  O  O222  1  0.36059717  0.74543965  0.50909748  1
  O  O223  1  0.86374495  0.25775738  -0.00225017  1
  O  O224  1  0.87617454  0.25233814  0.49559987  1
  O  O225  1  0.87541210  0.76645622  -0.01063911  1
  O  O226  1  0.90079098  0.75876232  0.52608764  1
  O  O227  1  0.11637303  0.23550870  0.49965764  1
  O  O228  1  0.12794893  0.24467590  0.99821283  1
  O  O229  1  0.12583904  0.74332946  0.49294049  1
  O  O230  1  0.12500548  0.74587364  0.98847327  1
  O  O231  1  0.62047019  0.23460032  0.49556759  1
  O  O232  1  0.63768482  0.25621666  0.98959795  1
  O  O233  1  0.62652009  0.73015572  0.50689560  1
  O  O234  1  0.62871395  0.73661278  0.99259673  1
  O  O235  1  0.49352784  0.25667862  0.13939044  1
  O  O236  1  0.49837544  0.24369116  0.63072909  1
  O  O237  1  0.48563086  0.73640346  0.11925506  1
  O  O238  1  0.49282337  0.73995122  0.63110748  1
  O  O239  1  0.99801119  0.26159336  0.13782235  1
  O  O240  1  0.99762692  0.24849179  0.63825852  1
  O  O241  1  1.01700625  0.75402497  0.13734346  1
  O  O242  1  0.99980655  0.74718352  0.63935887  1
  O  O243  1  0.00324093  0.26240858  0.36563684  1
  O  O244  1  0.00513667  0.26053941  0.86737871  1
  O  O245  1  0.00384915  0.75823472  0.36974084  1
  O  O246  1  0.00818037  0.75962531  0.86663515  1
  O  O247  1  0.50043743  0.25569994  0.36497515  1
  O  O248  1  0.50659168  0.26276430  0.86477994  1
  O  O249  1  0.50363424  0.74285292  0.38446464  1
  O  O250  1  0.50634577  0.75578508  0.86820084  1
  O  O251  1  0.24046006  0.11879299  0.49052171  1
  O  O252  1  0.24158343  0.13855597  1.00682532  1
  O  O253  1  0.23525113  0.63311767  0.51004813  1
  O  O254  1  0.24025951  0.62517159  0.99113048  1
  O  O255  1  0.74770336  0.12691511  0.49752175  1
  O  O256  1  0.75266006  0.14010967  0.97879285  1
  O  O257  1  0.73116070  0.61220046  0.50765781  1
  O  O258  1  0.72987037  0.59751708  0.97705321  1
  O  O259  1  0.25391017  0.36885306  0.00887080  1
  O  O260  1  0.25547779  0.38198576  0.50943140  1
  O  O261  1  0.26401890  0.87284290  0.00179917  1
  O  O262  1  0.24786569  0.86626307  0.50743582  1
  O  O263  1  0.75211891  0.37266449  0.00557174  1
  O  O264  1  0.75392224  0.37810887  0.50920063  1
  O  O265  1  0.76607178  0.87268873  -0.00733186  1
  O  O266  1  0.75205376  0.88108285  0.49904847  1
  O  O267  1  0.13250136  0.49747331  0.24873900  1
  O  O268  1  0.12964176  0.49223627  0.75628697  1
  O  O269  1  0.13418167  1.01117727  0.23486881  1
  O  O270  1  0.11588611  1.00261392  0.74276694  1
  O  O271  1  0.63770906  0.49630140  0.23631901  1
  O  O272  1  0.62908932  0.48988928  0.74700098  1
  O  O273  1  0.65291443  1.01236184  0.23752072  1
  O  O274  1  0.62065039  0.99065184  0.74286698  1
  O  O275  1  0.36794833  0.00750469  0.24875460  1
  O  O276  1  0.41002198  0.00514684  0.76076245  1
  O  O277  1  0.36983360  0.50509522  0.25899473  1
  O  O278  1  0.36435807  0.50358246  0.75529667  1
  O  O279  1  0.87487776  0.00640372  0.25600153  1
  O  O280  1  0.85721093  -0.00503465  0.75305953  1
  O  O281  1  0.87331446  0.50079986  0.25821073  1
  O  O282  1  0.86701820  0.51079828  0.75083087  1
  O  O283  1  0.11819376  0.37366537  0.36987709  1
  O  O284  1  0.11185799  0.37210932  0.86736747  1
  O  O285  1  0.11420921  0.86558566  0.37924717  1
  O  O286  1  0.12269379  0.87572821  0.87229569  1
  O  O287  1  0.61158507  0.37253317  0.37683677  1
  O  O288  1  0.61784211  0.37057225  0.86727685  1
  O  O289  1  0.60520256  0.91069356  0.35392168  1
  O  O290  1  0.61781718  0.86344183  0.87026777  1
  O  O291  1  0.37031251  0.13879761  0.13250059  1
  O  O292  1  0.38629138  0.12712884  0.61800394  1
  O  O293  1  0.38068808  0.62733892  0.13091486  1
  O  O294  1  0.38238072  0.62702184  0.62964021  1
  O  O295  1  0.87014546  0.12810077  0.13381672  1
  O  O296  1  0.86476835  0.12618698  0.60769789  1
  O  O297  1  0.89558325  0.60232771  0.14134809  1
  O  O298  1  0.88482830  0.63507017  0.63387227  1
  O  O299  1  0.25798911  0.25626356  0.12037340  1
  O  O300  1  0.24379976  0.26447378  0.62687635  1
  O  O301  1  0.25988750  0.75340230  0.12248378  1
  O  O302  1  0.24639751  0.75939250  0.61690231  1
  O  O303  1  0.75158069  0.26132241  0.11432546  1
  O  O304  1  0.74582216  0.25268780  0.62497057  1
  O  O305  1  0.76863811  0.68922555  0.09620708  1
  O  O306  1  0.76578787  0.74544637  0.61682014  1
  O  O307  1  0.24885150  0.23649576  0.36951220  1
  O  O308  1  0.22919278  0.26646169  0.88782505  1
  O  O309  1  0.23958601  0.75491637  0.38747324  1
  O  O310  1  0.24179150  0.74340067  0.87511861  1
  O  O311  1  0.75154524  0.23603871  0.36954356  1
  O  O312  1  0.74411581  0.25076267  0.87586834  1
  O  O313  1  0.80240909  0.74116517  0.40322885  1
  O  O314  1  0.73680964  0.74984108  0.87366961  1
  O  O315  1  0.00691331  0.13744967  0.00363395  1
  O  O316  1  0.00768399  0.11325125  0.49976286  1
  O  O317  1  0.01162985  0.61956423  -0.00573287  1
  O  O318  1  0.00125094  0.61694821  0.50869336  1
  O  O319  1  0.51007441  0.13835530  0.00184324  1
  O  O320  1  0.50729382  0.12135638  0.50804180  1
  O  O321  1  0.50130408  0.62114702  0.00913718  1
  O  O322  1  0.50530930  0.61415808  0.50892410  1
  O  O323  1  0.49120496  0.37903957  0.49704976  1
  O  O324  1  0.49034698  0.36727254  0.99155189  1
  O  O325  1  0.49997082  0.88560449  0.50046770  1
  O  O326  1  0.48736942  0.86489717  0.99435365  1
  O  O327  1  0.99382342  0.38042886  0.49487247  1
  O  O328  1  0.99853275  0.38452010  0.99060453  1
  O  O329  1  1.00120629  0.88793389  0.49187965  1
  O  O330  1  0.99161072  0.87600794  0.98225551  1
  O  O331  1  0.48586151  0.48857030  0.38958668  1
  O  O332  1  0.49108101  0.48607011  0.86855737  1
  O  O333  1  0.49061615  1.01826777  0.39304833  1
  O  O334  1  0.50867701  0.98199186  0.88943312  1
  O  O335  1  0.99506409  0.48743922  0.38227198  1
  O  O336  1  0.99900202  0.49601110  0.88614728  1
  O  O337  1  0.99889232  0.99553249  0.37857697  1
  O  O338  1  0.98644304  0.99623614  0.86637551  1
  O  O339  1  0.01393562  0.00305231  0.13393771  1
  O  O340  1  0.00389813  0.00298918  0.61729899  1
  O  O341  1  0.01061072  0.49057208  0.11069091  1
  O  O342  1  -0.00779827  0.50954822  0.61693998  1
  O  O343  1  0.50431537  0.00601246  0.12403929  1
  O  O344  1  0.50662604  0.00730629  0.61615363  1
  O  O345  1  0.50786083  0.50646654  0.13274566  1
  O  O346  1  0.49541480  0.50364638  0.61504061  1
  O  O347  1  0.24776679  0.38344684  0.24491274  1
  O  O348  1  0.23501382  0.38391008  0.74065063  1
  O  O349  1  0.25272977  0.89016634  0.24929449  1
  O  O350  1  0.24619852  0.86679827  0.74210596  1
  O  O351  1  0.74991277  0.38227202  0.24154185  1
  O  O352  1  0.74223851  0.37864341  0.73982896  1
  O  O353  1  0.75376423  0.88475249  0.26184565  1
  O  O354  1  0.73407054  0.88424296  0.75777058  1
  O  O355  1  0.26004496  0.11823541  0.25601813  1
  O  O356  1  0.25810130  0.13721375  0.74888628  1
  O  O357  1  0.25905608  0.61136290  0.24621395  1
  O  O358  1  0.25139296  0.61817892  0.75309867  1
  O  O359  1  0.76584512  0.11990078  0.25839285  1
  O  O360  1  0.74129069  0.11737842  0.75882667  1
  O  O361  1  0.77105261  0.60926843  0.24767665  1
  O  O362  1  0.75780730  0.61592106  0.74170224  1
  O  O363  1  0.36666552  0.12263211  0.36645460  1
  O  O364  1  0.35674986  0.14390153  0.87811534  1
  O  O365  1  0.37651252  0.61257852  0.36757313  1
  O  O366  1  0.36935056  0.61809079  0.87118903  1
  O  O367  1  0.87382151  0.11493191  0.36919841  1
  O  O368  1  0.86752393  0.11923292  0.87131311  1
  O  O369  1  0.88805612  0.60477500  0.36503493  1
  O  O370  1  0.88125448  0.62871408  0.85880800  1
  O  O371  1  0.13316954  0.38289942  0.13171972  1
  O  O372  1  0.12552761  0.37488077  0.63500547  1
  O  O373  1  0.12900879  0.89778616  0.10979419  1
  O  O374  1  0.12790812  0.88787745  0.62273461  1
  O  O375  1  0.63406193  0.37987192  0.12563408  1
  O  O376  1  0.63252377  0.37526789  0.63092106  1
  O  O377  1  0.63180795  0.87230003  0.12913712  1
  O  O378  1  0.61513012  0.88129523  0.63479336  1
  O  O379  1  0.12040113  0.25646955  0.25054845  1
  O  O380  1  0.11383398  0.25965577  0.75872826  1
  O  O381  1  0.12066126  0.73808201  0.26528518  1
  O  O382  1  0.11684818  0.74571780  0.76244246  1
  O  O383  1  0.61860860  0.24912269  0.25292589  1
  O  O384  1  0.61815363  0.26335234  0.75552978  1
  O  O385  1  0.65058316  0.74213051  0.25955206  1
  O  O386  1  0.62152192  0.75394734  0.75368817  1
  O  O387  1  0.38238192  0.24508424  0.24220554  1
  O  O388  1  0.38729723  0.26426716  0.74321137  1
  O  O389  1  0.36328979  0.73613663  0.24114680  1
  O  O390  1  0.37971984  0.74061796  0.74507472  1
  O  O391  1  0.88477559  0.24203492  0.24725439  1
  O  O392  1  0.88814991  0.25716216  0.75446765  1
  O  O393  1  0.88502358  0.73141157  0.24573338  1
  O  O394  1  0.87957147  0.74780872  0.74197929  1
  O  O395  1  0.37683937  0.49351408  0.49466091  1
  O  O396  1  0.36616299  0.48639627  0.99829426  1
  O  O397  1  0.38341655  0.99527670  0.50267020  1
  O  O398  1  0.37689911  0.98690258  1.00430784  1
  O  O399  1  0.88230441  0.49544611  0.49388983  1
  O  O400  1  0.88259943  0.50758911  0.99963963  1
  O  O401  1  0.88570795  0.99621980  0.48914197  1
  O  O402  1  0.86546001  0.99584490  0.98904643  1
  O  O403  1  0.12311124  0.02042376  0.00959605  1
  O  O404  1  0.11946138  0.00664970  0.50614572  1
  O  O405  1  0.12048940  0.50914353  0.00300060  1
  O  O406  1  0.11016781  0.50738319  0.49590309  1
  O  O407  1  0.62244310  0.00378154  0.00134831  1
  O  O408  1  0.61790616  0.00904363  0.50755464  1
  O  O409  1  0.61800408  0.49945284  0.01234753  1
  O  O410  1  0.61250951  0.50518791  0.50295449  1
  O  O411  1  0.37189541  0.36702537  0.12207769  1
  O  O412  1  0.36195201  0.37278228  0.61579222  1
  O  O413  1  0.37386654  0.86644250  0.11470741  1
  O  O414  1  0.36395335  0.86485549  0.62258486  1
  O  O415  1  0.86319780  0.37530512  0.12243943  1
  O  O416  1  0.86290111  0.37443711  0.61831174  1
  O  O417  1  0.88804389  0.87519376  0.10400027  1
  O  O418  1  0.87528318  0.86455939  0.63093648  1
  O  O419  1  0.13247065  0.12724585  0.38302011  1
  O  O420  1  0.11765409  0.13773375  0.89073866  1
  O  O421  1  0.11773434  0.63242639  0.39110740  1
  O  O422  1  0.12907893  0.63441120  0.88122997  1
  O  O423  1  0.63921368  0.11903365  0.38404744  1
  O  O424  1  0.63185119  0.14300084  0.87134243  1
  O  O425  1  0.62489758  0.61517422  0.38844365  1
  O  O426  1  0.60922194  0.63339033  0.88273648  1
