# generated using pymatgen
data_V85Zn86O256
_symmetry_space_group_name_H-M   'P 1'
_cell_length_a   16.94996875
_cell_length_b   16.94734104
_cell_length_c   16.94895075
_cell_angle_alpha   89.88364081
_cell_angle_beta   90.02121452
_cell_angle_gamma   90.00041305
_symmetry_Int_Tables_number   1
_chemical_formula_structural   V85Zn86O256
_chemical_formula_sum   'V85 Zn86 O256'
_cell_volume   4868.69269338
_cell_formula_units_Z   1
loop_
 _symmetry_equiv_pos_site_id
 _symmetry_equiv_pos_as_xyz
  1  'x, y, z'
loop_
 _atom_site_type_symbol
 _atom_site_label
 _atom_site_symmetry_multiplicity
 _atom_site_fract_x
 _atom_site_fract_y
 _atom_site_fract_z
 _atom_site_occupancy
  V  V0  1  0.06423291  0.56965993  0.67324231  1
  V  V1  1  0.74825160  0.00232002  0.25019175  1
  V  V2  1  0.75034999  0.25375394  0.00078847  1
  V  V3  1  0.62262187  0.51336998  0.62190902  1
  V  V4  1  0.36655228  0.75668844  0.12617000  1
  V  V5  1  0.75133219  0.50005442  0.75335485  1
  V  V6  1  0.62551440  0.74917022  0.87130221  1
  V  V7  1  0.62660115  0.37656144  0.74784324  1
  V  V8  1  0.62470362  0.50248338  0.12593808  1
  V  V9  1  0.75036252  -0.00139174  0.74922414  1
  V  V10  1  -0.00378510  0.00216843  0.00617850  1
  V  V11  1  -0.00106270  0.76416316  0.74130012  1
  V  V12  1  0.50135434  0.87277820  0.87515040  1
  V  V13  1  0.12572352  -0.01230927  0.62511603  1
  V  V14  1  0.87517301  -0.00674583  0.87470348  1
  V  V15  1  0.48255975  0.74344487  0.74552551  1
  V  V16  1  0.75289584  0.87210357  0.13239448  1
  V  V17  1  0.62268285  0.74495842  0.38007393  1
  V  V18  1  0.36774370  0.62489042  0.24827967  1
  V  V19  1  0.49535815  0.25029670  0.24393312  1
  V  V20  1  0.74785506  0.50146282  0.25154529  1
  V  V21  1  0.50067892  0.00017460  -0.00074509  1
  V  V22  1  0.50500566  0.75695680  0.24919658  1
  V  V23  1  0.62495267  -0.00403014  0.12752393  1
  V  V24  1  0.12379605  0.75288731  0.38578078  1
  V  V25  1  0.50102535  0.25130897  0.74492173  1
  V  V26  1  0.75776988  0.62402419  0.87507415  1
  V  V27  1  0.11600793  0.24548060  0.36112030  1
  V  V28  1  0.12868361  0.87195209  0.24793977  1
  V  V29  1  0.50350314  0.87780651  0.37507031  1
  V  V30  1  0.87168687  0.62977389  0.24880740  1
  V  V31  1  0.87492335  0.86289217  0.00317292  1
  V  V32  1  0.88076144  0.73746735  0.62320130  1
  V  V33  1  0.37210246  0.50204610  0.86316436  1
  V  V34  1  0.37758975  0.36922713  0.01457526  1
  V  V35  1  0.37622334  0.12336089  0.74314606  1
  V  V36  1  0.87580956  0.25260101  0.62107090  1
  V  V37  1  0.62809602  0.00184866  0.61488535  1
  V  V38  1  0.49794436  0.62983169  0.12587152  1
  V  V39  1  0.01427379  0.87069557  0.87703456  1
  V  V40  1  0.87538432  0.13025543  0.75788815  1
  V  V41  1  0.24739406  -0.00429856  0.74483235  1
  V  V42  1  0.11882839  0.61638842  0.49570765  1
  V  V43  1  0.75127028  0.37702961  0.61583589  1
  V  V44  1  0.75191203  0.87083337  0.62580576  1
  V  V45  1  0.36327382  0.87848864  0.00266071  1
  V  V46  1  0.90294359  0.60365861  0.76694450  1
  V  V47  1  0.01416300  0.26130190  0.76960336  1
  V  V48  1  0.24027116  0.37862996  0.13445620  1
  V  V49  1  0.74144453  0.12525872  0.38435326  1
  V  V50  1  0.62207578  0.24838837  0.87342448  1
  V  V51  1  0.25180749  -0.00407644  0.24791948  1
  V  V52  1  0.12423607  0.12459496  0.50122221  1
  V  V53  1  0.00154406  0.61231404  0.12870594  1
  V  V54  1  -0.00152826  0.48960092  0.49985103  1
  V  V55  1  0.24713664  0.62959627  0.37649135  1
  V  V56  1  0.37090598  0.86623284  0.50350911  1
  V  V57  1  0.24527390  0.25121617  0.49880670  1
  V  V58  1  0.37098991  0.37633033  0.49863113  1
  V  V59  1  0.37401309  0.25102670  0.62039143  1
  V  V60  1  0.62016338  0.12412755  -0.00088161  1
  V  V61  1  0.12815305  0.61111379  0.01185490  1
  V  V62  1  0.62488409  0.37193519  0.25152366  1
  V  V63  1  0.49641687  0.50408910  -0.00084383  1
  V  V64  1  0.00024913  0.12662975  0.62902935  1
  V  V65  1  0.37742154  0.00191673  0.87179927  1
  V  V66  1  0.75098585  0.75133169  0.00403820  1
  V  V67  1  0.50762680  0.12735901  0.61243414  1
  V  V68  1  0.37181896  0.12840647  0.24443800  1
  V  V69  1  0.12497649  0.00144219  0.12632169  1
  V  V70  1  0.87021649  0.49246851  0.38158321  1
  V  V71  1  0.87465201  0.00149215  0.37506703  1
  V  V72  1  0.62459780  0.62695418  -0.00014923  1
  V  V73  1  0.49671985  0.37648614  0.37476914  1
  V  V74  1  0.74496676  0.73955032  0.50330823  1
  V  V75  1  0.89828828  0.41121493  -0.00656965  1
  V  V76  1  0.49966523  0.51065291  0.49841065  1
  V  V77  1  -0.00494951  0.75235122  0.24654788  1
  V  V78  1  0.14881674  0.71835103  0.82935506  1
  V  V79  1  0.36357816  0.49890301  0.37066201  1
  V  V80  1  -0.00070824  -0.00738677  0.50019713  1
  V  V81  1  0.50003658  0.37711828  0.87377585  1
  V  V82  1  0.23696636  0.75834737  0.00295785  1
  V  V83  1  0.23529541  0.38341690  0.63654951  1
  V  V84  1  0.11559267  0.39175497  0.24906939  1
  Zn  Zn85  1  0.74498020  0.62300830  0.38019001  1
  Zn  Zn86  1  0.47620363  0.62849868  0.62597618  1
  Zn  Zn87  1  0.50042732  0.00150778  0.49600342  1
  Zn  Zn88  1  -0.01231354  0.36556216  0.37190739  1
  Zn  Zn89  1  0.74607031  0.24963970  0.50172581  1
  Zn  Zn90  1  0.12722536  0.13771885  -0.00178160  1
  Zn  Zn91  1  0.25971303  0.86702531  0.62396700  1
  Zn  Zn92  1  0.49654329  0.12947768  0.12193344  1
  Zn  Zn93  1  0.00424310  0.14350949  0.13780512  1
  Zn  Zn94  1  0.61838793  0.24361670  0.38326376  1
  Zn  Zn95  1  0.24982747  0.24835271  0.00220758  1
  Zn  Zn96  1  -0.00322944  0.87434744  0.37387612  1
  Zn  Zn97  1  0.62322643  0.87405148  0.74747605  1
  Zn  Zn98  1  0.25460780  0.61163341  0.88024281  1
  Zn  Zn99  1  0.23776105  0.13937095  0.87138838  1
  Zn  Zn100  1  0.87771144  0.14098463  0.24775006  1
  Zn  Zn101  1  0.25072585  0.12420932  0.37270041  1
  Zn  Zn102  1  0.75296853  0.37513604  0.12262289  1
  Zn  Zn103  1  0.87567703  0.86950040  0.50046512  1
  Zn  Zn104  1  0.88261679  0.25513282  0.12358788  1
  Zn  Zn105  1  0.74855450  0.12366994  0.87549182  1
  Zn  Zn106  1  0.37537426  0.00018664  0.37528203  1
  Zn  Zn107  1  0.19245808  0.18943840  0.17774800  1
  Zn  Zn108  1  0.18739434  0.18838971  0.68583113  1
  Zn  Zn109  1  0.18552905  0.68934387  0.19008993  1
  Zn  Zn110  1  0.29025703  0.68495286  0.68449721  1
  Zn  Zn111  1  0.68930335  0.18594433  0.18896512  1
  Zn  Zn112  1  0.68945117  0.18736368  0.68591133  1
  Zn  Zn113  1  0.68610621  0.69014984  0.19026778  1
  Zn  Zn114  1  0.68928097  0.68626750  0.69205130  1
  Zn  Zn115  1  0.30662278  0.30951272  0.30880852  1
  Zn  Zn116  1  0.31238650  0.31685207  0.81325831  1
  Zn  Zn117  1  0.31292457  0.81350318  0.31731990  1
  Zn  Zn118  1  0.30922586  0.81911118  0.81733706  1
  Zn  Zn119  1  0.80895415  0.31047500  0.31135150  1
  Zn  Zn120  1  0.81806217  0.31495822  0.82065442  1
  Zn  Zn121  1  0.80993301  0.81404344  0.31564091  1
  Zn  Zn122  1  0.81814638  0.80756726  0.81236545  1
  Zn  Zn123  1  0.18403614  0.43329408  0.43378453  1
  Zn  Zn124  1  0.19244815  0.42323500  0.93305823  1
  Zn  Zn125  1  0.18901074  0.93695290  0.43531615  1
  Zn  Zn126  1  0.17434925  0.97391967  0.92352651  1
  Zn  Zn127  1  0.68232838  0.43811204  0.43819593  1
  Zn  Zn128  1  0.68768484  0.43904544  0.93504648  1
  Zn  Zn129  1  0.68750739  0.92957390  0.43726930  1
  Zn  Zn130  1  0.68919394  0.93619962  0.93847880  1
  Zn  Zn131  1  0.30884055  0.06422836  0.06496497  1
  Zn  Zn132  1  0.31443646  0.05737165  0.55669762  1
  Zn  Zn133  1  0.30888102  0.56135935  0.06355001  1
  Zn  Zn134  1  0.30582707  0.56053877  0.55881546  1
  Zn  Zn135  1  0.81491017  0.06760090  0.06300630  1
  Zn  Zn136  1  0.81585014  0.06365697  0.56459540  1
  Zn  Zn137  1  0.81302466  0.56853156  0.06865702  1
  Zn  Zn138  1  0.81649496  0.56140051  0.56707141  1
  Zn  Zn139  1  0.43846993  0.44236783  0.18954743  1
  Zn  Zn140  1  0.43493175  0.43780603  0.68119991  1
  Zn  Zn141  1  0.43667814  0.93915756  0.18804783  1
  Zn  Zn142  1  0.44201501  0.93631194  0.68388564  1
  Zn  Zn143  1  0.93110181  0.42971482  0.18654601  1
  Zn  Zn144  1  0.93808458  0.42873295  0.68571984  1
  Zn  Zn145  1  0.93477254  0.94069068  0.18953864  1
  Zn  Zn146  1  0.93485033  0.93713679  0.68325126  1
  Zn  Zn147  1  0.06025889  0.06395091  0.31036754  1
  Zn  Zn148  1  0.05961474  0.06377953  0.81256825  1
  Zn  Zn149  1  0.05381000  0.56245856  0.31762888  1
  Zn  Zn150  1  0.04466893  0.46755671  0.84013023  1
  Zn  Zn151  1  0.56291611  0.06185529  0.30797075  1
  Zn  Zn152  1  0.56334768  0.06258910  0.80577222  1
  Zn  Zn153  1  0.55802425  0.56587612  0.31343607  1
  Zn  Zn154  1  0.56313421  0.56486512  0.81118735  1
  Zn  Zn155  1  0.43445944  0.18770902  0.43014646  1
  Zn  Zn156  1  0.41080419  0.20212361  0.92197123  1
  Zn  Zn157  1  0.43417934  0.68914869  0.43611349  1
  Zn  Zn158  1  0.43201790  0.68903177  0.93722458  1
  Zn  Zn159  1  0.93583721  0.18199578  0.43758942  1
  Zn  Zn160  1  0.96303351  0.21229296  0.96968505  1
  Zn  Zn161  1  0.93757325  0.68247033  0.43451357  1
  Zn  Zn162  1  0.97722843  0.64834728  0.91174310  1
  Zn  Zn163  1  0.07037368  0.32585196  0.04254463  1
  Zn  Zn164  1  0.05988748  0.30994782  0.56449925  1
  Zn  Zn165  1  0.05541723  0.81454219  0.07111559  1
  Zn  Zn166  1  0.12008829  0.76267111  0.60943721  1
  Zn  Zn167  1  0.56399441  0.31444866  0.06319964  1
  Zn  Zn168  1  0.56495634  0.31860968  0.55856367  1
  Zn  Zn169  1  0.56249746  0.81551693  0.06205068  1
  Zn  Zn170  1  0.56070352  0.81287951  0.56251577  1
  O  O171  1  0.12132987  0.11551696  0.12056843  1
  O  O172  1  0.12082964  0.12010598  0.61363679  1
  O  O173  1  0.12116569  0.62466610  0.11992984  1
  O  O174  1  0.12620267  0.62517258  0.61052585  1
  O  O175  1  0.62361523  0.11275281  0.11739147  1
  O  O176  1  0.61843395  0.11630662  0.62852547  1
  O  O177  1  0.61802481  0.62249071  0.11993136  1
  O  O178  1  0.62289687  0.61441819  0.63078078  1
  O  O179  1  0.37498287  0.38236908  0.37637886  1
  O  O180  1  0.38409600  0.38627789  0.88811501  1
  O  O181  1  0.38692799  0.87559663  0.38184580  1
  O  O182  1  0.38374123  0.88292347  0.88182348  1
  O  O183  1  0.86951356  0.38755851  0.37355374  1
  O  O184  1  0.87000546  0.37608448  0.90125307  1
  O  O185  1  0.87278931  0.88817278  0.38031913  1
  O  O186  1  0.88041403  0.87631433  0.88350477  1
  O  O187  1  0.24742419  0.00430365  0.36063467  1
  O  O188  1  0.26883311  -0.00147587  0.86283956  1
  O  O189  1  0.25933759  0.50451260  0.37442235  1
  O  O190  1  0.26902614  0.49547934  0.87966588  1
  O  O191  1  0.75162372  0.00451714  0.37035995  1
  O  O192  1  0.75736990  -0.00285686  0.86747982  1
  O  O193  1  0.75103298  0.50328886  0.36978300  1
  O  O194  1  0.74490210  0.51013795  0.86412745  1
  O  O195  1  0.26004868  0.47839000  0.12442090  1
  O  O196  1  0.24697876  0.48106593  0.61801710  1
  O  O197  1  0.24002274  1.00016831  0.13751879  1
  O  O198  1  0.24239101  0.99959484  0.62882983  1
  O  O199  1  0.74182530  0.50059249  0.13376017  1
  O  O200  1  0.74257015  0.49606216  0.63225072  1
  O  O201  1  0.74496953  0.99513054  0.13185146  1
  O  O202  1  0.74748653  0.99154473  0.62894372  1
  O  O203  1  0.01153321  0.37610636  0.25056243  1
  O  O204  1  -0.00248085  0.36288535  0.75590468  1
  O  O205  1  0.00363824  0.86823695  0.25372366  1
  O  O206  1  -0.01196397  0.86763290  0.76092729  1
  O  O207  1  0.50424741  0.37074610  0.25495676  1
  O  O208  1  0.50635657  0.37044710  0.75096154  1
  O  O209  1  0.49372838  0.86585446  0.25851162  1
  O  O210  1  0.49950243  0.86399753  0.76007532  1
  O  O211  1  0.49336692  0.13397674  0.24917066  1
  O  O212  1  0.49372552  0.12953993  0.73593206  1
  O  O213  1  0.48796310  0.63525386  0.24609275  1
  O  O214  1  0.50059495  0.64139422  0.75226798  1
  O  O215  1  0.99197475  0.12385846  0.24917338  1
  O  O216  1  0.99194142  0.12983764  0.74640355  1
  O  O217  1  0.99164477  0.63149922  0.24805934  1
  O  O218  1  1.00415067  0.64169345  0.72411169  1
  O  O219  1  0.39329304  0.26928945  0.01245030  1
  O  O220  1  0.36491611  0.25456096  0.49987430  1
  O  O221  1  0.36488742  0.75826173  0.00578105  1
  O  O222  1  0.37767702  0.76621276  0.49629221  1
  O  O223  1  0.85028709  0.24008022  -0.00596338  1
  O  O224  1  0.87118178  0.23951041  0.51746861  1
  O  O225  1  0.86841116  0.76123866  -0.00132193  1
  O  O226  1  0.87053609  0.74705618  0.50771471  1
  O  O227  1  0.12958745  0.24251816  0.49519211  1
  O  O228  1  0.13459599  0.25205696  0.98916905  1
  O  O229  1  0.11537177  0.73767573  0.48865358  1
  O  O230  1  0.13648857  0.75355955  1.01614499  1
  O  O231  1  0.63188010  0.25902036  0.49461553  1
  O  O232  1  0.62543938  0.24179226  0.99348233  1
  O  O233  1  0.63251812  0.75181471  0.49426242  1
  O  O234  1  0.62685820  0.74626457  0.98936149  1
  O  O235  1  0.50890391  0.24931583  0.14039122  1
  O  O236  1  0.49633000  0.24542541  0.62614667  1
  O  O237  1  0.49301769  0.74843317  0.13059477  1
  O  O238  1  0.50315531  0.74919643  0.64298178  1
  O  O239  1  0.99141786  0.24584020  0.07849578  1
  O  O240  1  0.99197079  0.24509266  0.63462888  1
  O  O241  1  1.00273474  0.74068142  0.14263029  1
  O  O242  1  0.99506258  0.76465797  0.63367042  1
  O  O243  1  0.01220959  0.25057169  0.38389575  1
  O  O244  1  -0.00450099  0.24294537  0.86590207  1
  O  O245  1  0.00643272  0.75038766  0.36630913  1
  O  O246  1  0.01629913  0.75016503  0.85617917  1
  O  O247  1  0.49994106  0.25936097  0.36512063  1
  O  O248  1  0.50259642  0.25760292  0.86574985  1
  O  O249  1  0.50432169  0.75453352  0.36803911  1
  O  O250  1  0.50385815  0.75443746  0.86825508  1
  O  O251  1  0.24152781  0.13183321  0.49848396  1
  O  O252  1  0.25089219  0.12732999  0.99504037  1
  O  O253  1  0.23640527  0.61649281  0.48313807  1
  O  O254  1  0.24273242  0.63749964  1.00115260  1
  O  O255  1  0.75086976  0.12051679  0.48697424  1
  O  O256  1  0.73455448  0.12996950  0.99690708  1
  O  O257  1  0.75277544  0.63583124  0.50221728  1
  O  O258  1  0.74363290  0.63149846  0.99535429  1
  O  O259  1  0.26745210  0.37438802  0.00786935  1
  O  O260  1  0.25225261  0.36564476  0.50187501  1
  O  O261  1  0.26108691  0.87553056  -0.00263059  1
  O  O262  1  0.26688426  0.88103391  0.49773872  1
  O  O263  1  0.73520483  0.36018100  0.00221025  1
  O  O264  1  0.74911672  0.37998862  0.51350899  1
  O  O265  1  0.75643886  0.87120572  0.00817558  1
  O  O266  1  0.75236761  0.86372085  0.51227507  1
  O  O267  1  0.12289698  0.48927908  0.25912286  1
  O  O268  1  0.11191286  0.51904726  0.74115876  1
  O  O269  1  0.12918037  0.99258029  0.24440059  1
  O  O270  1  0.13593583  1.00841799  0.73703461  1
  O  O271  1  0.63167683  0.49845667  0.24828694  1
  O  O272  1  0.63164956  0.49666254  0.74385202  1
  O  O273  1  0.63708896  1.00169911  0.24062920  1
  O  O274  1  0.63533772  0.99612834  0.74105628  1
  O  O275  1  0.36636486  0.00408551  0.25201728  1
  O  O276  1  0.37421736  0.00647257  0.75075814  1
  O  O277  1  0.38213459  0.51320616  0.25932634  1
  O  O278  1  0.38259713  0.49458219  0.76512519  1
  O  O279  1  0.86150826  -0.00139999  0.25938857  1
  O  O280  1  0.86804752  0.00435117  0.75336286  1
  O  O281  1  0.86041859  0.50278211  0.25488850  1
  O  O282  1  0.86468250  0.50658507  0.73761367  1
  O  O283  1  0.12277795  0.36296073  0.36061088  1
  O  O284  1  0.10999006  0.38949042  0.87386080  1
  O  O285  1  0.12140895  0.86765999  0.36907209  1
  O  O286  1  0.11335649  0.88198191  0.87750569  1
  O  O287  1  0.61652477  0.37956427  0.36233813  1
  O  O288  1  0.61815083  0.37071696  0.86699727  1
  O  O289  1  0.61280064  0.86250839  0.37840585  1
  O  O290  1  0.61746602  0.86713106  0.87452562  1
  O  O291  1  0.38030321  0.11718163  0.13895971  1
  O  O292  1  0.38196363  0.12931508  0.62818127  1
  O  O293  1  0.37771942  0.63347499  0.13082760  1
  O  O294  1  0.36359065  0.61835024  0.63345670  1
  O  O295  1  0.88105303  0.12970288  0.12649314  1
  O  O296  1  0.87868280  0.12979627  0.63848587  1
  O  O297  1  0.88179667  0.62539417  0.14123471  1
  O  O298  1  0.87351355  0.63507281  0.63742012  1
  O  O299  1  0.25299174  0.27046962  0.12219145  1
  O  O300  1  0.25440019  0.25305633  0.61319652  1
  O  O301  1  0.26142427  0.75037987  0.12177906  1
  O  O302  1  0.23196362  0.75893841  0.62561961  1
  O  O303  1  0.74130015  0.25291417  0.10987055  1
  O  O304  1  0.75654845  0.26009130  0.62658404  1
  O  O305  1  0.74050413  0.76099070  0.11789297  1
  O  O306  1  0.75736955  0.75277416  0.62268382  1
  O  O307  1  0.23699973  0.24799793  0.38426389  1
  O  O308  1  0.29583915  0.23715115  0.88893269  1
  O  O309  1  0.23849727  0.74073308  0.37077824  1
  O  O310  1  0.23427366  0.76458897  0.88625296  1
  O  O311  1  0.75047843  0.23417239  0.37867477  1
  O  O312  1  0.73768626  0.24841435  0.88192714  1
  O  O313  1  0.74095880  0.75028981  0.38559436  1
  O  O314  1  0.74109246  0.74679184  0.88067298  1
  O  O315  1  0.00326833  0.10362530  -0.00893802  1
  O  O316  1  0.00629006  0.11638380  0.50766844  1
  O  O317  1  0.01869212  0.62922596  0.01503092  1
  O  O318  1  0.01048988  0.61186050  0.49230983  1
  O  O319  1  0.50975210  0.11939348  0.00012930  1
  O  O320  1  0.49535150  0.12586041  0.50943749  1
  O  O321  1  0.50399454  0.62231417  0.00442609  1
  O  O322  1  0.49099678  0.61422092  0.50299006  1
  O  O323  1  0.48977401  0.38580411  0.49379581  1
  O  O324  1  0.49687969  0.38636866  0.99774542  1
  O  O325  1  0.49372705  0.87644597  0.49152241  1
  O  O326  1  0.49348642  0.87788653  0.98840445  1
  O  O327  1  1.00245762  0.38561094  0.49859556  1
  O  O328  1  0.99810912  0.40541442  0.99816042  1
  O  O329  1  0.99795600  0.89033541  0.49752013  1
  O  O330  1  0.99193788  0.87709845  0.99507955  1
  O  O331  1  0.49070789  0.49691704  0.38079160  1
  O  O332  1  0.49688369  0.49704693  0.88211049  1
  O  O333  1  0.50307622  0.99019900  0.37400277  1
  O  O334  1  0.49753973  0.98977524  0.87552958  1
  O  O335  1  0.98722277  0.49281730  0.38219949  1
  O  O336  1  0.97358260  0.55403908  0.84041985  1
  O  O337  1  0.99031505  1.00076887  0.38306354  1
  O  O338  1  0.99058830  0.98651786  0.87941749  1
  O  O339  1  0.00527814  -0.00265461  0.11862569  1
  O  O340  1  0.00568712  0.00585892  0.62000894  1
  O  O341  1  -0.00461390  0.51361096  0.13770375  1
  O  O342  1  0.00087259  0.50276821  0.62007711  1
  O  O343  1  0.50922490  -0.00141120  0.11774811  1
  O  O344  1  0.51200234  0.00914749  0.62436230  1
  O  O345  1  0.50477957  0.51035944  0.11870040  1
  O  O346  1  0.50569488  0.50384295  0.61703362  1
  O  O347  1  0.23577568  0.37295099  0.24264767  1
  O  O348  1  0.25481896  0.37068174  0.73548307  1
  O  O349  1  0.24111826  0.88173345  0.25570181  1
  O  O350  1  0.25861297  0.89216211  0.74468558  1
  O  O351  1  0.73944929  0.38433115  0.24711228  1
  O  O352  1  0.74679918  0.38419295  0.74751230  1
  O  O353  1  0.75243032  0.88096304  0.23905334  1
  O  O354  1  0.75209745  0.87687462  0.73995601  1
  O  O355  1  0.25631888  0.11924836  0.24832977  1
  O  O356  1  0.26316840  0.11923335  0.74953509  1
  O  O357  1  0.26086718  0.62949683  0.25700639  1
  O  O358  1  0.22325774  0.65698952  0.77827793  1
  O  O359  1  0.75261338  0.11684803  0.26045189  1
  O  O360  1  0.75693175  0.11723556  0.75175509  1
  O  O361  1  0.75448728  0.61950999  0.25232540  1
  O  O362  1  0.75584371  0.61648091  0.75905368  1
  O  O363  1  0.37182303  0.12100776  0.36123699  1
  O  O364  1  0.39268950  0.10966597  0.85803765  1
  O  O365  1  0.36591439  0.62119837  0.36860645  1
  O  O366  1  0.37512461  0.60768306  0.88089774  1
  O  O367  1  0.86350102  0.11346657  0.37515736  1
  O  O368  1  0.87233797  0.11289682  0.86332908  1
  O  O369  1  0.87111036  0.61263768  0.36424581  1
  O  O370  1  0.86086534  0.64167031  0.87067191  1
  O  O371  1  0.13051858  0.37633353  0.13775553  1
  O  O372  1  0.13657305  0.36674391  0.62536199  1
  O  O373  1  0.11986495  0.88001831  0.14270620  1
  O  O374  1  0.12432916  0.88807823  0.61649344  1
  O  O375  1  0.62175201  0.38517121  0.13803543  1
  O  O376  1  0.63228502  0.38522344  0.63307542  1
  O  O377  1  0.63470615  0.88858224  0.11619387  1
  O  O378  1  0.63346381  0.88090518  0.62793908  1
  O  O379  1  0.12697464  0.24630163  0.26071780  1
  O  O380  1  0.11204894  0.23999300  0.75424968  1
  O  O381  1  0.11813763  0.75646277  0.25958524  1
  O  O382  1  0.10856903  0.76235450  0.73877216  1
  O  O383  1  0.62035022  0.25854997  0.25582355  1
  O  O384  1  0.62041904  0.25537111  0.75353339  1
  O  O385  1  0.61105074  0.74816109  0.25620839  1
  O  O386  1  0.62191460  0.75179316  0.76245586  1
  O  O387  1  0.38246784  0.24227576  0.25342601  1
  O  O388  1  0.38229129  0.24206445  0.73970977  1
  O  O389  1  0.38072418  0.74661392  0.24265094  1
  O  O390  1  0.38060722  0.75109474  0.75523143  1
  O  O391  1  0.86850641  0.25727349  0.23642098  1
  O  O392  1  0.87784065  0.24331227  0.74645840  1
  O  O393  1  0.88127744  0.74137301  0.26065670  1
  O  O394  1  0.88878698  0.73724373  0.74775403  1
  O  O395  1  0.37879765  0.49457140  0.48902190  1
  O  O396  1  0.38789263  0.49584855  0.99980237  1
  O  O397  1  0.38156066  0.99176593  0.49311629  1
  O  O398  1  0.38161717  0.99552001  0.99147444  1
  O  O399  1  0.88314201  0.50674393  0.49253183  1
  O  O400  1  0.87367669  0.50879707  0.99442341  1
  O  O401  1  0.88269802  0.99983246  0.49498317  1
  O  O402  1  0.87872890  0.99048578  0.99330654  1
  O  O403  1  0.11393131  -0.01574830  0.02013118  1
  O  O404  1  0.11917574  0.00765133  0.50245961  1
  O  O405  1  0.13974584  0.51479641  0.00221053  1
  O  O406  1  0.11363201  0.50514324  0.48888223  1
  O  O407  1  0.62046237  0.00573692  0.00342445  1
  O  O408  1  0.62506923  -0.00549985  0.51195600  1
  O  O409  1  0.61475637  0.50671763  0.00293794  1
  O  O410  1  0.61196171  0.49649838  0.50888993  1
  O  O411  1  0.37709261  0.38017789  0.11681615  1
  O  O412  1  0.36956066  0.36720298  0.61495341  1
  O  O413  1  0.38251883  0.86759248  0.11395979  1
  O  O414  1  0.37883513  0.87917362  0.60875465  1
  O  O415  1  0.87129322  0.37918480  0.10019319  1
  O  O416  1  0.86394862  0.36441880  0.62913629  1
  O  O417  1  0.86401013  0.87979829  0.11670998  1
  O  O418  1  0.86703624  0.86235578  0.62419131  1
  O  O419  1  0.12470515  0.13229911  0.38492399  1
  O  O420  1  0.13728260  0.08607001  0.88953053  1
  O  O421  1  0.12967250  0.63125405  0.37578807  1
  O  O422  1  0.12433804  0.63879443  0.89822612  1
  O  O423  1  0.63825705  0.12298730  0.37205138  1
  O  O424  1  0.62313393  0.12996649  0.88023620  1
  O  O425  1  0.62422775  0.63918955  0.37224952  1
  O  O426  1  0.63461426  0.63195107  0.87898464  1
