# generated using pymatgen
data_V85Zn86O256
_symmetry_space_group_name_H-M   'P 1'
_cell_length_a   16.93669013
_cell_length_b   16.93974128
_cell_length_c   16.93244366
_cell_angle_alpha   89.96306710
_cell_angle_beta   90.00733984
_cell_angle_gamma   90.04870014
_symmetry_Int_Tables_number   1
_chemical_formula_structural   V85Zn86O256
_chemical_formula_sum   'V85 Zn86 O256'
_cell_volume   4857.96860078
_cell_formula_units_Z   1
loop_
 _symmetry_equiv_pos_site_id
 _symmetry_equiv_pos_as_xyz
  1  'x, y, z'
loop_
 _atom_site_type_symbol
 _atom_site_label
 _atom_site_symmetry_multiplicity
 _atom_site_fract_x
 _atom_site_fract_y
 _atom_site_fract_z
 _atom_site_occupancy
  V  V0  1  0.13936791  0.12829195  -0.00050598  1
  V  V1  1  0.87847890  0.74751712  0.62688515  1
  V  V2  1  0.75569094  0.37966064  0.63691911  1
  V  V3  1  0.87290874  0.37710707  0.00067636  1
  V  V4  1  0.12858976  0.50305060  0.62550786  1
  V  V5  1  0.25038359  0.87430807  0.12921179  1
  V  V6  1  0.37022887  0.11823191  0.24869576  1
  V  V7  1  0.26272250  0.60945232  0.86460398  1
  V  V8  1  0.50303153  0.51067887  0.50384346  1
  V  V9  1  0.74152850  0.63000645  0.86759524  1
  V  V10  1  0.12844046  0.00184530  0.12523849  1
  V  V11  1  0.25089188  0.12898194  0.37676681  1
  V  V12  1  0.50384711  0.86912051  0.87451532  1
  V  V13  1  0.12457191  0.75063082  0.37363486  1
  V  V14  1  0.24565482  0.49783188  0.25270285  1
  V  V15  1  0.62632437  0.38022863  0.25301701  1
  V  V16  1  0.12471979  0.88023199  0.24892278  1
  V  V17  1  0.24232561  0.35887420  0.61036834  1
  V  V18  1  0.00743100  0.37664610  0.37206064  1
  V  V19  1  0.37285113  0.76782840  0.62550691  1
  V  V20  1  0.12949887  0.87060476  0.75923707  1
  V  V21  1  0.37402312  0.49176562  0.38473267  1
  V  V22  1  0.50038843  0.25127720  0.24890055  1
  V  V23  1  0.12414104  0.49948496  0.12725399  1
  V  V24  1  0.37383327  0.25439357  0.12596920  1
  V  V25  1  0.00299280  0.74759342  0.75998013  1
  V  V26  1  0.74968082  0.25148534  0.00064299  1
  V  V27  1  0.87504638  0.10859303  0.75499380  1
  V  V28  1  0.25285359  0.00013511  0.74763689  1
  V  V29  1  0.24693022  0.74974288  -0.01120895  1
  V  V30  1  0.30864990  0.31120832  -0.04924603  1
  V  V31  1  0.12989519  0.37882685  0.75014375  1
  V  V32  1  -0.00328883  0.50274531  0.00019174  1
  V  V33  1  0.62052487  0.25384714  0.86965989  1
  V  V34  1  0.37407837  0.87385125  -0.00015346  1
  V  V35  1  0.00053720  -0.00083690  0.49934383  1
  V  V36  1  0.86558547  0.50007450  0.86652049  1
  V  V37  1  0.38085372  0.62258902  0.25040603  1
  V  V38  1  -0.00368980  0.00248444  -0.00737553  1
  V  V39  1  0.74280480  0.61888312  0.37464420  1
  V  V40  1  0.74712187  0.87382564  0.12394762  1
  V  V41  1  0.87513565  0.87305416  0.49879533  1
  V  V42  1  0.25155040  0.62500490  0.38335609  1
  V  V43  1  0.48967163  0.49689009  -0.00831671  1
  V  V44  1  0.51072661  0.00664924  0.50108083  1
  V  V45  1  0.87139524  0.49949238  0.36933767  1
  V  V46  1  0.74887685  0.38436132  0.12989739  1
  V  V47  1  0.37835225  0.74409930  0.12554033  1
  V  V48  1  0.74742504  0.87948991  0.62856503  1
  V  V49  1  0.50005706  0.74824553  0.74817298  1
  V  V50  1  0.49545482  0.87085757  0.38171839  1
  V  V51  1  -0.00195247  0.37648778  0.87564751  1
  V  V52  1  0.62124511  0.74610885  0.37840431  1
  V  V53  1  0.63384551  0.51277278  0.62448359  1
  V  V54  1  0.12976782  0.13166111  0.50127217  1
  V  V55  1  0.42038486  0.31399823  0.55781820  1
  V  V56  1  0.75145052  0.24244204  0.50116503  1
  V  V57  1  0.87489121  0.25303480  0.12761767  1
  V  V58  1  0.36998414  0.00612373  0.87458326  1
  V  V59  1  0.74696882  -0.00069210  0.25067612  1
  V  V60  1  0.62683960  0.24365694  0.37545993  1
  V  V61  1  0.12309213  0.62888505  -0.01047558  1
  V  V62  1  0.62586453  0.12616012  0.00112693  1
  V  V63  1  0.87523287  0.75152762  0.12164215  1
  V  V64  1  -0.00156948  0.24736484  0.75179875  1
  V  V65  1  0.62604555  0.88008182  0.75022801  1
  V  V66  1  0.13198979  -0.00919244  0.62319105  1
  V  V67  1  0.61499937  0.50351180  0.12595984  1
  V  V68  1  0.37015628  -0.00611808  0.37930438  1
  V  V69  1  0.61889893  0.38122373  0.75200393  1
  V  V70  1  0.50072371  -0.00133490  0.00083929  1
  V  V71  1  0.12548814  0.24739937  0.88158693  1
  V  V72  1  0.87561671  -0.00205136  0.37365700  1
  V  V73  1  0.74587246  0.74455305  0.50090857  1
  V  V74  1  0.00949709  0.25240626  0.25069942  1
  V  V75  1  0.24796757  0.37164599  0.13073694  1
  V  V76  1  0.87439531  0.37549986  0.49950275  1
  V  V77  1  0.25386130  0.77337244  0.50281348  1
  V  V78  1  0.87630846  0.12509361  0.25103766  1
  V  V79  1  0.87078511  0.62410340  0.24772598  1
  V  V80  1  0.75437943  0.11440468  0.87214291  1
  V  V81  1  0.38151840  0.12976557  0.73913740  1
  V  V82  1  0.62043376  0.63032487  0.00212869  1
  V  V83  1  0.00049935  0.12209062  0.62653755  1
  V  V84  1  0.45727223  0.60303982  0.64596813  1
  Zn  Zn85  1  0.74507584  0.11967095  0.38092885  1
  Zn  Zn86  1  -0.00107380  0.87398165  0.37200033  1
  Zn  Zn87  1  0.62077348  0.87368582  0.25134430  1
  Zn  Zn88  1  0.50672883  0.13836709  0.62397777  1
  Zn  Zn89  1  0.49775061  0.37297386  0.38083872  1
  Zn  Zn90  1  0.00033775  0.50542101  0.49966879  1
  Zn  Zn91  1  0.12357199  0.62794294  0.50269523  1
  Zn  Zn92  1  0.00083606  0.75000374  0.24769548  1
  Zn  Zn93  1  0.00125597  0.62724069  0.12518291  1
  Zn  Zn94  1  0.00276223  0.12634088  0.12404260  1
  Zn  Zn95  1  0.00328071  0.62494335  0.62528473  1
  Zn  Zn96  1  0.50046799  0.74713321  0.24972840  1
  Zn  Zn97  1  -0.00656331  0.87625331  0.87421985  1
  Zn  Zn98  1  0.63133233  0.01263193  0.62673892  1
  Zn  Zn99  1  0.62222682  -0.00091103  0.12693731  1
  Zn  Zn100  1  0.86837893  0.88300827  -0.00682225  1
  Zn  Zn101  1  0.13213550  0.25636498  0.37660413  1
  Zn  Zn102  1  0.49912368  0.12524374  0.12467165  1
  Zn  Zn103  1  0.87493534  0.24825496  0.62740472  1
  Zn  Zn104  1  0.74453228  0.75333362  -0.00557524  1
  Zn  Zn105  1  0.48847494  0.37385951  0.87466193  1
  Zn  Zn106  1  0.87274802  0.62145489  0.74810580  1
  Zn  Zn107  1  0.19112165  0.18560953  0.18872909  1
  Zn  Zn108  1  0.18754756  0.18016124  0.69294018  1
  Zn  Zn109  1  0.19200410  0.68594229  0.18724913  1
  Zn  Zn110  1  0.19218943  0.69160669  0.68677125  1
  Zn  Zn111  1  0.68822507  0.18882918  0.18756995  1
  Zn  Zn112  1  0.68730072  0.18988805  0.68980165  1
  Zn  Zn113  1  0.68676745  0.68614082  0.18971442  1
  Zn  Zn114  1  0.68665855  0.69497698  0.69180213  1
  Zn  Zn115  1  0.31171276  0.31162618  0.31178025  1
  Zn  Zn116  1  0.31034349  0.31067476  0.78772385  1
  Zn  Zn117  1  0.31162312  0.81216086  0.31170531  1
  Zn  Zn118  1  0.31498100  0.81582336  0.80994606  1
  Zn  Zn119  1  0.81224831  0.31247777  0.31286435  1
  Zn  Zn120  1  0.81066205  0.30660707  0.81490305  1
  Zn  Zn121  1  0.81040201  0.81027845  0.31111088  1
  Zn  Zn122  1  0.81467572  0.81405517  0.81371961  1
  Zn  Zn123  1  0.18641044  0.44006172  0.44252787  1
  Zn  Zn124  1  0.18279445  0.44574035  0.93414290  1
  Zn  Zn125  1  0.18541885  0.94579031  0.43082572  1
  Zn  Zn126  1  0.18725677  0.93943092  0.93750251  1
  Zn  Zn127  1  0.68791056  0.43478474  0.44089305  1
  Zn  Zn128  1  0.68475460  0.44175199  0.93959517  1
  Zn  Zn129  1  0.68614884  0.93108970  0.43681481  1
  Zn  Zn130  1  0.68414546  0.93594330  0.93681652  1
  Zn  Zn131  1  0.31283333  0.06140021  0.06446383  1
  Zn  Zn132  1  0.31487452  0.05946693  0.55998665  1
  Zn  Zn133  1  0.30874032  0.56487439  0.06132384  1
  Zn  Zn134  1  0.31101007  0.55422646  0.57525771  1
  Zn  Zn135  1  0.81234298  0.06368016  0.06553645  1
  Zn  Zn136  1  0.81576480  0.06190216  0.56642494  1
  Zn  Zn137  1  0.80669376  0.56434446  0.05905722  1
  Zn  Zn138  1  0.81444534  0.56303015  0.55875354  1
  Zn  Zn139  1  0.43620188  0.43707352  0.18793361  1
  Zn  Zn140  1  0.43785921  0.43566510  0.69350475  1
  Zn  Zn141  1  0.43783281  0.93423748  0.19195071  1
  Zn  Zn142  1  0.43946473  0.93954813  0.68541787  1
  Zn  Zn143  1  0.93868657  0.43923834  0.19045397  1
  Zn  Zn144  1  0.94327087  0.43782434  0.68723458  1
  Zn  Zn145  1  0.93997573  0.93683813  0.18239428  1
  Zn  Zn146  1  0.94151178  0.93142582  0.68698824  1
  Zn  Zn147  1  0.06369210  0.06286804  0.31222710  1
  Zn  Zn148  1  0.06918743  0.06354023  0.81355276  1
  Zn  Zn149  1  0.06029838  0.56535434  0.31250368  1
  Zn  Zn150  1  0.06174003  0.56325475  0.81094419  1
  Zn  Zn151  1  0.55813566  0.06173104  0.31196234  1
  Zn  Zn152  1  0.56241735  0.06179846  0.81255008  1
  Zn  Zn153  1  0.56107162  0.55936078  0.31494588  1
  Zn  Zn154  1  0.56215760  0.55966075  0.81272331  1
  Zn  Zn155  1  0.44258873  0.18074336  0.43122002  1
  Zn  Zn156  1  0.44183606  0.18170204  0.93155436  1
  Zn  Zn157  1  0.43272078  0.68454764  0.44734709  1
  Zn  Zn158  1  0.43785467  0.68474805  0.93696276  1
  Zn  Zn159  1  0.93857216  0.18776008  0.43604897  1
  Zn  Zn160  1  0.93918487  0.18417939  0.94049281  1
  Zn  Zn161  1  0.93796964  0.68590478  0.43812342  1
  Zn  Zn162  1  0.93123282  0.68707272  0.93694534  1
  Zn  Zn163  1  0.06347073  0.31490925  0.06418752  1
  Zn  Zn164  1  0.05822463  0.31201271  0.56258404  1
  Zn  Zn165  1  0.06089087  0.81309015  0.05954503  1
  Zn  Zn166  1  0.06325844  0.81185035  0.56343210  1
  Zn  Zn167  1  0.55969113  0.31578864  0.06042994  1
  Zn  Zn168  1  0.58263654  0.31660164  0.56339195  1
  Zn  Zn169  1  0.56150713  0.81202197  0.06589148  1
  Zn  Zn170  1  0.56007206  0.81169415  0.56265458  1
  O  O171  1  0.12655792  0.11764595  0.11994757  1
  O  O172  1  0.12012261  0.11513113  0.61957209  1
  O  O173  1  0.12852728  0.61364962  0.11692531  1
  O  O174  1  0.12959610  0.61597202  0.62513382  1
  O  O175  1  0.62479030  0.12402543  0.11268039  1
  O  O176  1  0.61956492  0.12509970  0.63214905  1
  O  O177  1  0.63047460  0.61530872  0.11607685  1
  O  O178  1  0.63984733  0.61247624  0.62690325  1
  O  O179  1  0.37584479  0.38840767  0.36971790  1
  O  O180  1  0.36654211  0.36049053  0.88130813  1
  O  O181  1  0.37974654  0.88423686  0.36963111  1
  O  O182  1  0.38499444  0.88348112  0.88078376  1
  O  O183  1  0.87880816  0.38239755  0.38014275  1
  O  O184  1  0.87580425  0.38090922  0.88097619  1
  O  O185  1  0.87595126  0.87911215  0.37982241  1
  O  O186  1  0.87901352  0.87265600  0.88154607  1
  O  O187  1  0.26143656  0.01065019  0.37507970  1
  O  O188  1  0.26077717  -0.00544112  0.86710569  1
  O  O189  1  0.25432195  0.50521446  0.37131971  1
  O  O190  1  0.25315759  0.50850858  0.87242510  1
  O  O191  1  0.75529452  -0.00006338  0.36818564  1
  O  O192  1  0.74491855  0.01600434  0.87900843  1
  O  O193  1  0.75655832  0.50858377  0.38187821  1
  O  O194  1  0.75712049  0.51128535  0.88134527  1
  O  O195  1  0.24555338  0.49233736  0.13211811  1
  O  O196  1  0.23390266  0.48169795  0.61954057  1
  O  O197  1  0.23794789  0.98953686  0.11861560  1
  O  O198  1  0.24216564  1.00161458  0.63102057  1
  O  O199  1  0.73883818  0.48878530  0.11935795  1
  O  O200  1  0.74746136  0.48877844  0.61512053  1
  O  O201  1  0.74936539  0.99009800  0.13166068  1
  O  O202  1  0.74947118  0.98366094  0.61764553  1
  O  O203  1  -0.00677163  0.36535085  0.26038231  1
  O  O204  1  0.00764059  0.36496878  0.75581883  1
  O  O205  1  0.01026547  0.87150318  0.24994910  1
  O  O206  1  0.00919280  0.86650865  0.75241202  1
  O  O207  1  0.50793041  0.36849837  0.25182028  1
  O  O208  1  0.50828112  0.37732066  0.75713596  1
  O  O209  1  0.50083413  0.87006711  0.26463522  1
  O  O210  1  0.50302208  0.86944054  0.75661582  1
  O  O211  1  0.48981200  0.13205056  0.24661635  1
  O  O212  1  0.48629535  0.11690754  0.74700623  1
  O  O213  1  0.48491606  0.62385037  0.25563337  1
  O  O214  1  0.50440960  0.63280864  0.74077697  1
  O  O215  1  0.99271190  0.13216463  0.24831269  1
  O  O216  1  0.99558447  0.12953423  0.74927258  1
  O  O217  1  0.98555495  0.62805816  0.24837239  1
  O  O218  1  0.99716095  0.63326085  0.74588537  1
  O  O219  1  0.37124275  0.24607299  0.00330031  1
  O  O220  1  0.37549024  0.25313595  0.49383244  1
  O  O221  1  0.36893578  0.75449411  0.00699434  1
  O  O222  1  0.35957969  0.75872867  0.50018923  1
  O  O223  1  0.87137391  0.25626873  0.00726838  1
  O  O224  1  0.87039128  0.25794180  0.50088133  1
  O  O225  1  0.86831751  0.74699938  0.01357230  1
  O  O226  1  0.86911939  0.75583789  0.50505380  1
  O  O227  1  0.11549867  0.23441393  0.49722850  1
  O  O228  1  0.11975339  0.24273184  0.99375809  1
  O  O229  1  0.13778874  0.75186141  0.49380084  1
  O  O230  1  0.13400642  0.74001895  1.00682697  1
  O  O231  1  0.63882292  0.25638350  0.48785662  1
  O  O232  1  0.63035943  0.24319426  0.99687461  1
  O  O233  1  0.63226419  0.75145864  0.48984247  1
  O  O234  1  0.62258378  0.73461127  1.00636876  1
  O  O235  1  0.49050268  0.24954583  0.12814910  1
  O  O236  1  0.49031130  0.25903687  0.61000409  1
  O  O237  1  0.48287642  0.75551843  0.12861514  1
  O  O238  1  0.48556962  0.74751712  0.62835708  1
  O  O239  1  0.99318985  0.25209763  0.13370244  1
  O  O240  1  0.99958911  0.24173055  0.63586311  1
  O  O241  1  0.99031079  0.74776019  0.12567454  1
  O  O242  1  0.99131486  0.75084652  0.63183306  1
  O  O243  1  0.00034070  0.25818461  0.36663857  1
  O  O244  1  0.00725488  0.25565944  0.87226848  1
  O  O245  1  0.01447616  0.75171490  0.37443903  1
  O  O246  1  -0.00197212  0.74708868  0.86328718  1
  O  O247  1  0.50877188  0.25340886  0.36921875  1
  O  O248  1  0.51633689  0.25368823  0.88322988  1
  O  O249  1  0.50392140  0.75215266  0.38065070  1
  O  O250  1  0.48994572  0.75829168  0.86296039  1
  O  O251  1  0.24121902  0.11980227  0.49156984  1
  O  O252  1  0.23907685  0.12282971  1.00163196  1
  O  O253  1  0.24968390  0.62598408  0.48841550  1
  O  O254  1  0.24265478  0.63136142  0.99078932  1
  O  O255  1  0.75943520  0.13814686  0.50017151  1
  O  O256  1  0.74497888  0.12916053  0.99337314  1
  O  O257  1  0.75687715  0.63804025  0.48981745  1
  O  O258  1  0.73614569  0.62693385  0.99195603  1
  O  O259  1  0.25221305  0.37823051  0.00576708  1
  O  O260  1  0.24374239  0.36643733  0.51034783  1
  O  O261  1  0.25211105  0.86820024  0.00814241  1
  O  O262  1  0.24621557  0.87093132  0.49576326  1
  O  O263  1  0.75365166  0.37093276  0.00794575  1
  O  O264  1  0.76190648  0.36657286  0.50500043  1
  O  O265  1  0.74749145  0.87281779  0.00863530  1
  O  O266  1  0.75487223  0.86290465  0.50481050  1
  O  O267  1  0.13708269  0.50850709  0.24374040  1
  O  O268  1  0.11646843  0.48754372  0.74269051  1
  O  O269  1  0.12260539  0.98939231  0.24197742  1
  O  O270  1  0.13361624  0.99684888  0.74301756  1
  O  O271  1  0.61917621  0.48876026  0.24358627  1
  O  O272  1  0.62530061  0.49027245  0.74183224  1
  O  O273  1  0.63383592  1.00024268  0.24848116  1
  O  O274  1  0.61867694  0.98477864  0.74731462  1
  O  O275  1  0.38310495  0.00881651  0.26202617  1
  O  O276  1  0.36995635  0.00102721  0.75577144  1
  O  O277  1  0.36507723  0.50535402  0.25586977  1
  O  O278  1  0.38428914  0.53285381  0.68407198  1
  O  O279  1  0.87022228  0.00626455  0.25177791  1
  O  O280  1  0.88150513  0.00957092  0.74755774  1
  O  O281  1  0.87473807  0.50658851  0.26131656  1
  O  O282  1  0.88037514  0.49970499  0.76286357  1
  O  O283  1  0.11159529  0.37509316  0.38024564  1
  O  O284  1  0.12026062  0.36807742  0.86905087  1
  O  O285  1  0.12652003  0.87020154  0.36445949  1
  O  O286  1  0.11984743  0.88108107  0.86222380  1
  O  O287  1  0.62444928  0.36779369  0.36696101  1
  O  O288  1  0.62895795  0.37044624  0.86724885  1
  O  O289  1  0.61706724  0.86300691  0.37246718  1
  O  O290  1  0.61215965  0.87571171  0.86910247  1
  O  O291  1  0.37295884  0.13506863  0.13100739  1
  O  O292  1  0.38244684  0.11846091  0.63489354  1
  O  O293  1  0.36432575  0.63329490  0.13668769  1
  O  O294  1  0.36945437  0.65178930  0.60599270  1
  O  O295  1  0.87654494  0.13167152  0.13669266  1
  O  O296  1  0.88194137  0.12676711  0.63666506  1
  O  O297  1  0.87088414  0.63002091  0.13228277  1
  O  O298  1  0.87255336  0.63689787  0.62649863  1
  O  O299  1  0.25368461  0.26357398  0.12970328  1
  O  O300  1  0.23954158  0.25992095  0.62835261  1
  O  O301  1  0.25844774  0.75617725  0.11674407  1
  O  O302  1  0.25714877  0.75617135  0.61104885  1
  O  O303  1  0.75541477  0.25962132  0.12028042  1
  O  O304  1  0.75364306  0.26069142  0.61764547  1
  O  O305  1  0.75399011  0.76215038  0.12792799  1
  O  O306  1  0.75569515  0.75635181  0.61730858  1
  O  O307  1  0.24784074  0.23577208  0.36858340  1
  O  O308  1  0.24605650  0.26208502  0.88434209  1
  O  O309  1  0.24380809  0.74630545  0.38441535  1
  O  O310  1  0.25484666  0.75226827  0.88712981  1
  O  O311  1  0.74507790  0.24748198  0.38220501  1
  O  O312  1  0.74058486  0.24313886  0.88410527  1
  O  O313  1  0.74170465  0.74371566  0.38129990  1
  O  O314  1  0.75177568  0.73374170  0.87717438  1
  O  O315  1  0.00954433  0.11651745  0.00389486  1
  O  O316  1  0.00392059  0.11625994  0.50444038  1
  O  O317  1  0.00629892  0.62101406  0.00113744  1
  O  O318  1  0.00418690  0.62482890  0.50557551  1
  O  O319  1  0.50837802  0.11627467  0.00098200  1
  O  O320  1  0.50109433  0.11036142  0.50019486  1
  O  O321  1  0.51268716  0.61536568  -0.00645026  1
  O  O322  1  0.49373526  0.61354382  0.51963209  1
  O  O323  1  0.48966544  0.37788877  0.50719622  1
  O  O324  1  0.50354929  0.39092951  0.99477329  1
  O  O325  1  0.50344735  0.88289609  0.48718509  1
  O  O326  1  0.49630818  0.87923650  0.99389568  1
  O  O327  1  0.98749381  0.37354859  0.49159157  1
  O  O328  1  0.99273869  0.38108747  0.99510084  1
  O  O329  1  0.99467745  0.88252757  0.49822315  1
  O  O330  1  1.00354981  0.89156623  0.99808827  1
  O  O331  1  0.49345083  0.49700858  0.38750872  1
  O  O332  1  0.49762543  0.49711565  0.88615741  1
  O  O333  1  0.49518211  0.99284125  0.38319026  1
  O  O334  1  0.49486247  0.99320002  0.88599634  1
  O  O335  1  0.99193536  0.49282374  0.37419835  1
  O  O336  1  0.99188724  0.49427254  0.88111590  1
  O  O337  1  0.99390442  0.99825133  0.38126480  1
  O  O338  1  1.00555815  1.00463928  0.88999590  1
  O  O339  1  0.01402616  0.00161284  0.11703774  1
  O  O340  1  0.00666073  0.00397974  0.61849630  1
  O  O341  1  0.00778985  0.50241816  0.12136785  1
  O  O342  1  0.01277753  0.49970963  0.62186186  1
  O  O343  1  0.49812012  -0.00073528  0.11261237  1
  O  O344  1  0.50256466  -0.00585829  0.60599817  1
  O  O345  1  0.51058357  0.49481910  0.11805966  1
  O  O346  1  0.51446444  0.50399825  0.62096025  1
  O  O347  1  0.25063855  0.38521645  0.24337395  1
  O  O348  1  0.23464302  0.37417801  0.73763745  1
  O  O349  1  0.24268075  0.86986751  0.23632084  1
  O  O350  1  0.24238603  0.88546500  0.75156189  1
  O  O351  1  0.74059529  0.37031343  0.24098569  1
  O  O352  1  0.75012097  0.37274160  0.74022327  1
  O  O353  1  0.74947106  0.88607604  0.24473079  1
  O  O354  1  0.73867252  0.86340949  0.74032236  1
  O  O355  1  0.26288034  0.12465494  0.25559341  1
  O  O356  1  0.26259102  0.11027836  0.74716865  1
  O  O357  1  0.25801647  0.61925998  0.26288346  1
  O  O358  1  0.24495024  0.63252781  0.76808015  1
  O  O359  1  0.75725000  0.11405809  0.24910806  1
  O  O360  1  0.76044756  0.13171509  0.76436488  1
  O  O361  1  0.76117737  0.62863757  0.26060320  1
  O  O362  1  0.74928930  0.62741583  0.76386862  1
  O  O363  1  0.36975494  0.11779862  0.36709516  1
  O  O364  1  0.38035823  0.11086216  0.86546041  1
  O  O365  1  0.36901024  0.61532696  0.37183275  1
  O  O366  1  0.36136901  0.62566200  0.87755466  1
  O  O367  1  0.87301466  0.11917627  0.36358653  1
  O  O368  1  0.86255733  0.12887881  0.87197993  1
  O  O369  1  0.86734533  0.61865381  0.36893639  1
  O  O370  1  0.86105078  0.61641019  0.87496479  1
  O  O371  1  0.13275663  0.38977536  0.12031883  1
  O  O372  1  0.12837415  0.37618969  0.62958996  1
  O  O373  1  0.13092590  0.88000164  0.13005548  1
  O  O374  1  0.11958264  0.88773530  0.63309750  1
  O  O375  1  0.63051227  0.38073944  0.13207570  1
  O  O376  1  0.63708761  0.38369253  0.63553200  1
  O  O377  1  0.63193880  0.87663661  0.13072153  1
  O  O378  1  0.63227370  0.87541804  0.63093277  1
  O  O379  1  0.11244985  0.24466081  0.25200585  1
  O  O380  1  0.11621290  0.25189782  0.75985171  1
  O  O381  1  0.12712423  0.75777397  0.25678773  1
  O  O382  1  0.11709796  0.76150774  0.74122784  1
  O  O383  1  0.62095746  0.25903226  0.25383288  1
  O  O384  1  0.63243665  0.26595890  0.75965649  1
  O  O385  1  0.62104955  0.74701681  0.26401894  1
  O  O386  1  0.60728225  0.76140172  0.74237210  1
  O  O387  1  0.38048220  0.24391863  0.24234392  1
  O  O388  1  0.37517443  0.22870052  0.75085247  1
  O  O389  1  0.37253338  0.73988844  0.24425170  1
  O  O390  1  0.38089820  0.75758467  0.73383556  1
  O  O391  1  0.88051161  0.24219982  0.24687001  1
  O  O392  1  0.88899287  0.24444385  0.75357798  1
  O  O393  1  0.87501157  0.74365393  0.23952933  1
  O  O394  1  0.88404587  0.74812597  0.74156487  1
  O  O395  1  0.38318584  0.50168967  0.49458051  1
  O  O396  1  0.39219954  0.50652203  1.00983445  1
  O  O397  1  0.38607151  1.00331031  0.48477592  1
  O  O398  1  0.37996470  0.99499537  0.99369884  1
  O  O399  1  0.87755483  0.49272913  0.48812271  1
  O  O400  1  0.87872086  0.49593065  0.99347957  1
  O  O401  1  0.88050903  0.99393038  0.49475706  1
  O  O402  1  0.89297254  1.00358675  1.00943375  1
  O  O403  1  0.11948973  0.00853181  0.00532487  1
  O  O404  1  0.11933328  0.00644267  0.50610932  1
  O  O405  1  0.11674092  0.50763551  0.00698866  1
  O  O406  1  0.12054243  0.50434843  0.50869291  1
  O  O407  1  0.61687955  0.00795814  0.00123516  1
  O  O408  1  0.61397050  -0.00138132  0.49660324  1
  O  O409  1  0.61620212  0.50839840  0.00802634  1
  O  O410  1  0.61377744  0.48975557  0.51041769  1
  O  O411  1  0.36683990  0.36278261  0.12811128  1
  O  O412  1  0.36069651  0.36648372  0.62746346  1
  O  O413  1  0.36657092  0.87112568  0.12019470  1
  O  O414  1  0.37733424  0.86713824  0.61880368  1
  O  O415  1  0.86648573  0.37474918  0.12245576  1
  O  O416  1  0.87224048  0.37441892  0.61783299  1
  O  O417  1  0.86715757  0.86812916  0.12051219  1
  O  O418  1  0.86836508  0.86452146  0.62100605  1
  O  O419  1  0.13429480  0.12229350  0.38275341  1
  O  O420  1  0.12580892  0.13981391  0.88140530  1
  O  O421  1  0.13320570  0.63494315  0.37420925  1
  O  O422  1  0.13199362  0.61818207  0.88677975  1
  O  O423  1  0.62704372  0.13929452  0.36637361  1
  O  O424  1  0.63263307  0.13129672  0.88144221  1
  O  O425  1  0.63514249  0.62718496  0.37283533  1
  O  O426  1  0.63513526  0.61825576  0.88405518  1
