# generated using pymatgen
data_V85Zn86O256
_symmetry_space_group_name_H-M   'P 1'
_cell_length_a   16.94326263
_cell_length_b   16.96312806
_cell_length_c   16.97545650
_cell_angle_alpha   90.00325391
_cell_angle_beta   89.93117969
_cell_angle_gamma   89.97791035
_symmetry_Int_Tables_number   1
_chemical_formula_structural   V85Zn86O256
_chemical_formula_sum   'V85 Zn86 O256'
_cell_volume   4878.92451688
_cell_formula_units_Z   1
loop_
 _symmetry_equiv_pos_site_id
 _symmetry_equiv_pos_as_xyz
  1  'x, y, z'
loop_
 _atom_site_type_symbol
 _atom_site_label
 _atom_site_symmetry_multiplicity
 _atom_site_fract_x
 _atom_site_fract_y
 _atom_site_fract_z
 _atom_site_occupancy
  V  V0  1  0.11736728  0.12884025  0.50509647  1
  V  V1  1  -0.00410547  0.63332429  0.12292769  1
  V  V2  1  0.87682549  -0.00038329  0.37499217  1
  V  V3  1  0.12912720  0.62449407  0.00063085  1
  V  V4  1  0.75426419  -0.00126728  0.24773471  1
  V  V5  1  0.49047560  0.73691583  0.74348164  1
  V  V6  1  0.74741271  0.62793325  0.37590904  1
  V  V7  1  0.87428247  0.50251299  0.37398374  1
  V  V8  1  0.62001058  0.37902583  0.25173561  1
  V  V9  1  0.87465711  0.24518310  0.62378813  1
  V  V10  1  0.87406580  0.63841611  0.24513348  1
  V  V11  1  0.37504936  0.62422023  0.25611809  1
  V  V12  1  0.14280300  0.91607800  0.28490819  1
  V  V13  1  -0.00004925  0.50098685  -0.00111502  1
  V  V14  1  0.49945133  -0.00400058  0.00106747  1
  V  V15  1  0.38326067  0.49320410  0.86510859  1
  V  V16  1  0.60399740  0.74775596  0.37196729  1
  V  V17  1  0.11790535  0.00581264  0.62740045  1
  V  V18  1  0.25649255  0.75371775  0.01529973  1
  V  V19  1  0.25003229  0.38055327  0.11879689  1
  V  V20  1  0.61665490  0.36137698  0.76421071  1
  V  V21  1  0.49739864  0.25326773  0.25825884  1
  V  V22  1  0.00265871  0.25085803  0.74414869  1
  V  V23  1  0.44004657  0.79770105  0.18901007  1
  V  V24  1  0.74574545  0.87233970  0.62421856  1
  V  V25  1  0.74774150  0.50699821  0.75365338  1
  V  V26  1  0.00065427  0.62504966  0.62494964  1
  V  V27  1  0.37134180  0.25531004  0.12653330  1
  V  V28  1  0.50044999  0.12591394  0.62244993  1
  V  V29  1  0.87122463  0.50741663  0.87505404  1
  V  V30  1  0.24975558  0.12770388  0.87170198  1
  V  V31  1  0.13353271  0.74927417  0.87212224  1
  V  V32  1  0.74756630  0.74459419  -0.01550762  1
  V  V33  1  0.49942915  0.86201669  0.87581660  1
  V  V34  1  0.24410172  0.49929861  0.75278097  1
  V  V35  1  0.00180762  0.50256224  0.49802136  1
  V  V36  1  0.00035141  0.25290911  0.24985279  1
  V  V37  1  0.37737404  -0.00531154  0.87108383  1
  V  V38  1  0.00235758  0.37800083  0.86918619  1
  V  V39  1  0.62880699  -0.00049497  0.12323305  1
  V  V40  1  0.24718781  0.50256949  0.25874459  1
  V  V41  1  0.49335962  0.48591668  0.00014628  1
  V  V42  1  0.61855731  -0.00166197  0.63057491  1
  V  V43  1  0.87221872  0.37566345  0.49931336  1
  V  V44  1  0.38409480  0.89784596  0.48899328  1
  V  V45  1  0.25115328  0.24700397  0.49586157  1
  V  V46  1  0.00292418  0.87476490  0.87368547  1
  V  V47  1  0.13820686  -0.01052400  0.11598838  1
  V  V48  1  0.61277274  0.09152181  0.47423308  1
  V  V49  1  0.74745035  0.37597602  0.62902436  1
  V  V50  1  0.49625067  0.62270049  0.12534818  1
  V  V51  1  -0.00091387  0.00018859  -0.00170565  1
  V  V52  1  0.75116020  -0.00228137  0.75289214  1
  V  V53  1  0.87876410  0.12425569  0.74488257  1
  V  V54  1  0.12485878  0.49025255  0.62723703  1
  V  V55  1  0.00004307  0.86650855  0.37760560  1
  V  V56  1  0.37071265  0.73902392  0.61288247  1
  V  V57  1  0.12857268  0.24895543  0.37305705  1
  V  V58  1  0.74533680  0.24690877  0.50020242  1
  V  V59  1  0.74438662  0.74889137  0.49896018  1
  V  V60  1  0.62328253  0.86211349  0.75514977  1
  V  V61  1  0.75057153  0.50236752  0.24984220  1
  V  V62  1  0.62272213  0.86577038  0.25056189  1
  V  V63  1  0.87224679  0.87349312  0.50123390  1
  V  V64  1  0.61441699  0.50113558  0.62934799  1
  V  V65  1  0.75145005  0.37659640  0.12589225  1
  V  V66  1  0.35596172  0.11996606  0.26528048  1
  V  V67  1  0.43375293  0.18265550  0.79743954  1
  V  V68  1  0.00362785  0.12385845  0.12223742  1
  V  V69  1  0.25719540  0.00162552  0.74428316  1
  V  V70  1  0.87650110  0.24999541  0.12360929  1
  V  V71  1  0.00270107  0.74846993  0.74767221  1
  V  V72  1  0.62547164  0.25928849  0.37969768  1
  V  V73  1  0.87604920  0.00068388  0.87496179  1
  V  V74  1  0.87698536  0.86695866  0.00399383  1
  V  V75  1  0.75611591  0.86210373  0.12457876  1
  V  V76  1  0.12889199  0.87505675  0.74548247  1
  V  V77  1  0.50057374  0.48893478  0.49160385  1
  V  V78  1  0.62450759  0.62535162  -0.01330515  1
  V  V79  1  0.12556436  0.25585027  0.87167901  1
  V  V80  1  0.74397570  0.24937890  -0.00471259  1
  V  V81  1  0.14190532  0.73730966  0.37755993  1
  V  V82  1  0.61183999  0.62570497  0.50502446  1
  V  V83  1  0.49914735  0.12559181  0.13167649  1
  V  V84  1  0.37539154  0.24609736  0.62443804  1
  Zn  Zn85  1  0.87760432  0.12323536  0.25044240  1
  Zn  Zn86  1  0.14464464  0.62453844  0.50164909  1
  Zn  Zn87  1  0.62359367  0.12816983  -0.00437916  1
  Zn  Zn88  1  0.24995663  0.37024212  0.62895069  1
  Zn  Zn89  1  0.37255653  0.87193506  0.01019790  1
  Zn  Zn90  1  0.26100909  0.62638675  0.87073250  1
  Zn  Zn91  1  0.87126220  0.62872244  0.75263042  1
  Zn  Zn92  1  0.12454152  0.50025203  0.12607403  1
  Zn  Zn93  1  0.62587433  0.50302070  0.12265561  1
  Zn  Zn94  1  0.25355126  0.25602764  -0.00378920  1
  Zn  Zn95  1  0.12484895  0.37754096  0.24920139  1
  Zn  Zn96  1  0.12756892  0.12720358  -0.00309567  1
  Zn  Zn97  1  -0.00061303  0.37656992  0.37310604  1
  Zn  Zn98  1  0.74481350  0.13381723  0.86995460  1
  Zn  Zn99  1  0.25329941  0.86845986  0.61407132  1
  Zn  Zn100  1  -0.00387193  0.00467682  0.50570432  1
  Zn  Zn101  1  0.87400037  0.74766851  0.62585701  1
  Zn  Zn102  1  0.75390752  0.12911900  0.37254517  1
  Zn  Zn103  1  0.37370573  0.49539903  0.37567776  1
  Zn  Zn104  1  0.37915718  0.36834329  0.49362214  1
  Zn  Zn105  1  0.87504966  0.37643034  -0.00247279  1
  Zn  Zn106  1  0.00745419  0.75763225  0.24489511  1
  Zn  Zn107  1  0.18537072  0.18849501  0.18472856  1
  Zn  Zn108  1  0.18935981  0.18553804  0.68835775  1
  Zn  Zn109  1  0.18662644  0.68664577  0.19211799  1
  Zn  Zn110  1  0.19253656  0.67974270  0.68324819  1
  Zn  Zn111  1  0.68760503  0.18789216  0.18817757  1
  Zn  Zn112  1  0.68624929  0.18425295  0.68694011  1
  Zn  Zn113  1  0.68281710  0.68522696  0.18257211  1
  Zn  Zn114  1  0.68393172  0.68563333  0.68701288  1
  Zn  Zn115  1  0.31243987  0.31934592  0.31291201  1
  Zn  Zn116  1  0.31014008  0.32436381  0.81536857  1
  Zn  Zn117  1  0.31013824  0.82589018  0.32108570  1
  Zn  Zn118  1  0.31446111  0.81387860  0.80838057  1
  Zn  Zn119  1  0.81308629  0.31471236  0.31164788  1
  Zn  Zn120  1  0.81360288  0.31916503  0.81198464  1
  Zn  Zn121  1  0.80817320  0.81229115  0.31548061  1
  Zn  Zn122  1  0.81650870  0.81284123  0.81179213  1
  Zn  Zn123  1  0.18806336  0.43148020  0.43988588  1
  Zn  Zn124  1  0.18906652  0.43769171  0.93564381  1
  Zn  Zn125  1  0.19327006  0.93993059  0.44991182  1
  Zn  Zn126  1  0.19183055  0.93582939  0.93806296  1
  Zn  Zn127  1  0.68720100  0.43910898  0.43925600  1
  Zn  Zn128  1  0.68592221  0.43919037  0.93804158  1
  Zn  Zn129  1  0.67721459  0.93582840  0.43073527  1
  Zn  Zn130  1  0.68708307  0.93491349  0.93639631  1
  Zn  Zn131  1  0.31690536  0.06797162  0.06008912  1
  Zn  Zn132  1  0.30976255  0.06669092  0.56039877  1
  Zn  Zn133  1  0.31513326  0.56456375  0.06454348  1
  Zn  Zn134  1  0.31917854  0.55835907  0.57209616  1
  Zn  Zn135  1  0.81538870  0.06219359  0.06223414  1
  Zn  Zn136  1  0.80257012  0.06241328  0.56107383  1
  Zn  Zn137  1  0.81220743  0.56513064  0.06125938  1
  Zn  Zn138  1  0.81043578  0.56351006  0.56466023  1
  Zn  Zn139  1  0.43485335  0.43948008  0.18766632  1
  Zn  Zn140  1  0.43767035  0.42995402  0.68870577  1
  Zn  Zn141  1  0.43479112  0.95699700  0.19547584  1
  Zn  Zn142  1  0.43675770  0.93047425  0.68152987  1
  Zn  Zn143  1  0.93768507  0.44258610  0.18552311  1
  Zn  Zn144  1  0.93540070  0.43731666  0.68845931  1
  Zn  Zn145  1  0.94636753  0.93536334  0.18885737  1
  Zn  Zn146  1  0.93753454  0.93397267  0.68590816  1
  Zn  Zn147  1  0.06823323  0.06653085  0.31580949  1
  Zn  Zn148  1  0.06410249  0.06592667  0.80991690  1
  Zn  Zn149  1  0.06190589  0.56589428  0.31042271  1
  Zn  Zn150  1  0.06543782  0.56404708  0.81216214  1
  Zn  Zn151  1  0.56883407  0.06571619  0.30586654  1
  Zn  Zn152  1  0.56884957  0.05636119  0.81758732  1
  Zn  Zn153  1  0.55967689  0.56714376  0.31267263  1
  Zn  Zn154  1  0.56051311  0.55587205  0.81399541  1
  Zn  Zn155  1  0.43975119  0.18564990  0.43812155  1
  Zn  Zn156  1  0.44020456  0.18911101  0.95732184  1
  Zn  Zn157  1  0.32220841  0.68178558  0.44076676  1
  Zn  Zn158  1  0.43514920  0.68036195  0.93756213  1
  Zn  Zn159  1  0.93885227  0.18676432  0.43640553  1
  Zn  Zn160  1  0.93472166  0.18830775  0.93506106  1
  Zn  Zn161  1  0.93633528  0.68648371  0.43858950  1
  Zn  Zn162  1  0.94009882  0.68919849  0.93576686  1
  Zn  Zn163  1  0.06686458  0.31518998  0.05758859  1
  Zn  Zn164  1  0.06018696  0.31428808  0.56059584  1
  Zn  Zn165  1  0.06591672  0.80985896  0.05939663  1
  Zn  Zn166  1  0.06721449  0.81228578  0.55888559  1
  Zn  Zn167  1  0.56466845  0.31199405  0.06956890  1
  Zn  Zn168  1  0.56304078  0.31098610  0.57118218  1
  Zn  Zn169  1  0.57000911  0.81196953  0.05561141  1
  Zn  Zn170  1  0.55165441  0.81248256  0.56103110  1
  O  O171  1  0.11481775  0.12114454  0.11785937  1
  O  O172  1  0.12486470  0.11777296  0.62000487  1
  O  O173  1  0.11801616  0.62572945  0.11289687  1
  O  O174  1  0.11419947  0.61493169  0.62080976  1
  O  O175  1  0.61921589  0.11579283  0.12570847  1
  O  O176  1  0.61779944  0.11418748  0.62518356  1
  O  O177  1  0.61222987  0.62241224  0.11833492  1
  O  O178  1  0.63093881  0.61236188  0.61649357  1
  O  O179  1  0.37505695  0.38078951  0.38053597  1
  O  O180  1  0.36881156  0.39413358  0.88404800  1
  O  O181  1  0.37865447  0.88203155  0.38773985  1
  O  O182  1  0.38186236  0.88193537  0.87756233  1
  O  O183  1  0.87548500  0.38419844  0.38059643  1
  O  O184  1  0.88375626  0.38685678  0.87666007  1
  O  O185  1  0.88011027  0.87974449  0.38072609  1
  O  O186  1  0.88430816  0.88075414  0.88123373  1
  O  O187  1  0.17374326  -0.00887684  0.35005853  1
  O  O188  1  0.26183556  0.00661811  0.87089730  1
  O  O189  1  0.24657022  0.49484538  0.36155954  1
  O  O190  1  0.25480654  0.50127484  0.86546287  1
  O  O191  1  0.76144077  -0.00392481  0.36416117  1
  O  O192  1  0.75778356  -0.00744833  0.86317867  1
  O  O193  1  0.75361214  0.50821388  0.37006045  1
  O  O194  1  0.75965067  0.49539218  0.86716310  1
  O  O195  1  0.24887694  0.49428855  0.12989463  1
  O  O196  1  0.24244869  0.49596499  0.63494233  1
  O  O197  1  0.23673067  1.00452392  0.11443956  1
  O  O198  1  0.24195437  1.00316647  0.63466581  1
  O  O199  1  0.75010829  0.49163563  0.13009017  1
  O  O200  1  0.74415727  0.49154674  0.63187221  1
  O  O201  1  0.74633413  0.99120937  0.12893529  1
  O  O202  1  0.74828673  0.99214122  0.64058789  1
  O  O203  1  -0.00092178  0.36361135  0.24644464  1
  O  O204  1  -0.00634141  0.36664252  0.76142223  1
  O  O205  1  0.02092282  0.87917022  0.26242576  1
  O  O206  1  0.00806421  0.86802746  0.75380075  1
  O  O207  1  0.51201596  0.36782357  0.24212322  1
  O  O208  1  0.51749941  0.37364295  0.74798259  1
  O  O209  1  0.50262944  0.86497292  0.23938959  1
  O  O210  1  0.50682348  0.86667113  0.75722523  1
  O  O211  1  0.49966777  0.13225532  0.24375250  1
  O  O212  1  0.49969200  0.12256304  0.74533704  1
  O  O213  1  0.49137665  0.61972286  0.23835893  1
  O  O214  1  0.50599580  0.63994509  0.75675981  1
  O  O215  1  0.99991835  0.13623626  0.24093526  1
  O  O216  1  0.98626798  0.13394054  0.75436886  1
  O  O217  1  0.99010844  0.62711218  0.24016866  1
  O  O218  1  1.00100332  0.63161331  0.74170640  1
  O  O219  1  0.37166936  0.24891759  0.02008730  1
  O  O220  1  0.36775353  0.24594389  0.50668653  1
  O  O221  1  0.36013086  0.74865760  -0.00240047  1
  O  O222  1  0.38036485  0.75153843  0.51147340  1
  O  O223  1  0.86948548  0.25307745  0.01172716  1
  O  O224  1  0.86835634  0.25388716  0.50473943  1
  O  O225  1  0.86959894  0.76055751  -0.00469542  1
  O  O226  1  0.86787801  0.76084511  0.50058901  1
  O  O227  1  0.12751317  0.24664565  0.49554925  1
  O  O228  1  0.12703759  0.24724289  0.98413240  1
  O  O229  1  0.11971756  0.74411735  0.48311994  1
  O  O230  1  0.13547515  0.74497271  0.99062041  1
  O  O231  1  0.63040147  0.25729215  0.49135370  1
  O  O232  1  0.64046360  0.24877477  1.00911762  1
  O  O233  1  0.62355032  0.74315838  0.49487758  1
  O  O234  1  0.63256749  0.73606231  0.99858308  1
  O  O235  1  0.49534719  0.24355058  0.13550062  1
  O  O236  1  0.49554894  0.23496246  0.62528326  1
  O  O237  1  0.50012290  0.74407981  0.12366757  1
  O  O238  1  0.49100953  0.75085152  0.63815066  1
  O  O239  1  0.99515024  0.24481296  0.12693026  1
  O  O240  1  0.99321539  0.25770003  0.63815521  1
  O  O241  1  1.00470411  0.73909001  0.12624694  1
  O  O242  1  1.00166518  0.74181939  0.62860016  1
  O  O243  1  0.00142119  0.25336066  0.36366072  1
  O  O244  1  0.00381625  0.25729141  0.86687172  1
  O  O245  1  -0.00552135  0.76080433  0.37166959  1
  O  O246  1  0.01330672  0.75469247  0.86943537  1
  O  O247  1  0.50846325  0.24918577  0.36395438  1
  O  O248  1  0.48595918  0.23520720  0.86291825  1
  O  O249  1  0.50881046  0.74183378  0.37254093  1
  O  O250  1  0.49086277  0.75849827  0.86785568  1
  O  O251  1  0.23563104  0.13899047  0.50465205  1
  O  O252  1  0.25387956  0.12926822  0.98308454  1
  O  O253  1  0.25630344  0.61336929  0.49856036  1
  O  O254  1  0.24363227  0.63449658  0.99813630  1
  O  O255  1  0.72976142  0.12591520  0.49376878  1
  O  O256  1  0.75256418  0.14048560  1.00425249  1
  O  O257  1  0.74238183  0.63103507  0.49602459  1
  O  O258  1  0.73579533  0.63132949  1.00577690  1
  O  O259  1  0.24540758  0.37484371  0.01362049  1
  O  O260  1  0.24963183  0.35994634  0.50847047  1
  O  O261  1  0.25331665  0.85880095  -0.00348626  1
  O  O262  1  0.26859848  0.87978657  0.50046076  1
  O  O263  1  0.75096567  0.36694594  0.00948814  1
  O  O264  1  0.75433403  0.37122125  0.50921812  1
  O  O265  1  0.75642087  0.86715143  0.00546945  1
  O  O266  1  0.75335599  0.86841830  0.50157240  1
  O  O267  1  0.13169866  0.50128357  0.24637450  1
  O  O268  1  0.13387527  0.50138807  0.74354373  1
  O  O269  1  0.11086904  1.00139725  0.22261913  1
  O  O270  1  0.13212912  0.99623106  0.74512232  1
  O  O271  1  0.63076566  0.49379868  0.24923323  1
  O  O272  1  0.63064546  0.49386200  0.74476178  1
  O  O273  1  0.63233108  0.98988295  0.23859103  1
  O  O274  1  0.63379364  0.98853590  0.74553441  1
  O  O275  1  0.37038077  0.01911898  0.25757302  1
  O  O276  1  0.36777984  -0.00656451  0.75736174  1
  O  O277  1  0.36678792  0.50783273  0.25056455  1
  O  O278  1  0.37085569  0.49518720  0.75918392  1
  O  O279  1  0.87056376  -0.00282789  0.25557695  1
  O  O280  1  0.87108520  0.00506832  0.75258300  1
  O  O281  1  0.86908109  0.50837349  0.25604424  1
  O  O282  1  0.86594290  0.50125576  0.75686476  1
  O  O283  1  0.11834585  0.36325976  0.37319278  1
  O  O284  1  0.11677919  0.36721483  0.87525340  1
  O  O285  1  0.11736829  0.85719900  0.37902365  1
  O  O286  1  0.12210585  0.86857844  0.86820168  1
  O  O287  1  0.63193270  0.36848676  0.36463094  1
  O  O288  1  0.62993978  0.37554275  0.86285884  1
  O  O289  1  0.62725965  0.86262585  0.35786612  1
  O  O290  1  0.61286332  0.87952408  0.86650633  1
  O  O291  1  0.38288210  0.13079493  0.13568005  1
  O  O292  1  0.38472622  0.13413877  0.62299906  1
  O  O293  1  0.38872185  0.62505871  0.13108837  1
  O  O294  1  0.37929586  0.64023470  0.62625456  1
  O  O295  1  0.88642765  0.13178927  0.12641481  1
  O  O296  1  0.86719163  0.13236993  0.63184611  1
  O  O297  1  0.88256775  0.62281976  0.13328625  1
  O  O298  1  0.88787589  0.62536631  0.62733935  1
  O  O299  1  0.25596107  0.25843009  0.12503577  1
  O  O300  1  0.25888983  0.24834592  0.62130112  1
  O  O301  1  0.24496154  0.74909623  0.11307420  1
  O  O302  1  0.26533775  0.75099728  0.63225227  1
  O  O303  1  0.75825874  0.25649420  0.12173250  1
  O  O304  1  0.75334568  0.25630922  0.61900469  1
  O  O305  1  0.74679059  0.76029953  0.11633466  1
  O  O306  1  0.74972662  0.75556213  0.61795116  1
  O  O307  1  0.23977283  0.25568831  0.38282548  1
  O  O308  1  0.24304643  0.24545324  0.87090902  1
  O  O309  1  0.24487187  0.74524701  0.37453510  1
  O  O310  1  0.24160970  0.74717902  0.87266542  1
  O  O311  1  0.74552716  0.25132940  0.38167466  1
  O  O312  1  0.76077852  0.25316150  0.89312444  1
  O  O313  1  0.74364458  0.74414844  0.38291384  1
  O  O314  1  0.75255041  0.75284832  0.88530814  1
  O  O315  1  -0.00083962  0.11973009  0.00519171  1
  O  O316  1  0.01052785  0.12430807  0.50100399  1
  O  O317  1  0.00686176  0.62310930  0.00527952  1
  O  O318  1  -0.00416644  0.61266584  0.50662037  1
  O  O319  1  0.50303897  0.11594452  0.01623563  1
  O  O320  1  0.51605934  0.12771887  0.50636765  1
  O  O321  1  0.51010990  0.61971566  0.00493252  1
  O  O322  1  0.51337713  0.60926293  0.50318995  1
  O  O323  1  0.50660111  0.38630685  0.50385315  1
  O  O324  1  0.50735706  0.38787289  1.00642913  1
  O  O325  1  0.48511751  0.88077188  0.50386109  1
  O  O326  1  0.49776955  0.87774770  0.99286788  1
  O  O327  1  0.99038915  0.38736012  0.50039886  1
  O  O328  1  0.99825657  0.38131036  0.98840990  1
  O  O329  1  0.98969193  0.87827644  0.49449066  1
  O  O330  1  0.99360600  0.87749510  0.99452325  1
  O  O331  1  0.50550565  0.49986369  0.39017947  1
  O  O332  1  0.49163772  0.49703136  0.88510939  1
  O  O333  1  0.58308414  1.01451879  0.40472271  1
  O  O334  1  0.48983535  0.99137674  0.87789463  1
  O  O335  1  0.99380487  0.50062620  0.38251401  1
  O  O336  1  0.99666085  0.49385931  0.87775233  1
  O  O337  1  0.98933210  0.99155368  0.37663038  1
  O  O338  1  0.99704306  0.99557897  0.87933608  1
  O  O339  1  0.00144436  0.00800167  0.11402824  1
  O  O340  1  0.01311773  -0.00475688  0.62611587  1
  O  O341  1  0.00085061  0.51119551  0.11589938  1
  O  O342  1  0.00430657  0.50488843  0.62051474  1
  O  O343  1  0.50932916  0.00698413  0.12416905  1
  O  O344  1  0.50905844  0.01031331  0.63414788  1
  O  O345  1  0.50171302  0.50493560  0.11414523  1
  O  O346  1  0.51181418  0.49373977  0.62051019  1
  O  O347  1  0.24653538  0.38564938  0.23903387  1
  O  O348  1  0.25115064  0.39112682  0.74517744  1
  O  O349  1  0.22824950  0.87632547  0.25335902  1
  O  O350  1  0.24363873  0.88718308  0.75050521  1
  O  O351  1  0.74369940  0.38058439  0.24310744  1
  O  O352  1  0.74557753  0.38493753  0.74364299  1
  O  O353  1  0.74474149  0.88076398  0.24203483  1
  O  O354  1  0.74320025  0.87716275  0.74637397  1
  O  O355  1  0.25740690  0.13163104  0.25177874  1
  O  O356  1  0.24864226  0.11394418  0.76145138  1
  O  O357  1  0.26105009  0.61343021  0.23957242  1
  O  O358  1  0.24866624  0.60691607  0.75249251  1
  O  O359  1  0.75248596  0.11009225  0.24822394  1
  O  O360  1  0.75960857  0.11484420  0.75015524  1
  O  O361  1  0.75582685  0.62182405  0.25202227  1
  O  O362  1  0.75099111  0.61166992  0.74516153  1
  O  O363  1  0.37408799  0.13307563  0.36334399  1
  O  O364  1  0.37552877  0.12248679  0.86685625  1
  O  O365  1  0.37857217  0.61847958  0.35945802  1
  O  O366  1  0.37339657  0.60186956  0.88309743  1
  O  O367  1  0.87323595  0.11448501  0.37238486  1
  O  O368  1  0.86895782  0.11778925  0.86652485  1
  O  O369  1  0.86809655  0.62133278  0.36743900  1
  O  O370  1  0.88314898  0.61193634  0.87225555  1
  O  O371  1  0.13288520  0.37778620  0.12746026  1
  O  O372  1  0.12208481  0.38744140  0.62442927  1
  O  O373  1  0.12456996  0.88987125  0.11574410  1
  O  O374  1  0.13150681  0.88185373  0.62860798  1
  O  O375  1  0.63720471  0.37692186  0.13454376  1
  O  O376  1  0.63630144  0.38093689  0.63201978  1
  O  O377  1  0.63319885  0.87833094  0.13231853  1
  O  O378  1  0.62684193  0.87805018  0.63511792  1
  O  O379  1  0.11648941  0.25087945  0.25636344  1
  O  O380  1  0.11420647  0.24261048  0.75965451  1
  O  O381  1  0.12261398  0.74242217  0.26951205  1
  O  O382  1  0.12284899  0.75267407  0.75452779  1
  O  O383  1  0.61951010  0.25926751  0.25489911  1
  O  O384  1  0.63466361  0.26283363  0.74929779  1
  O  O385  1  0.62923462  0.75544146  0.25643391  1
  O  O386  1  0.61543487  0.75790724  0.74634283  1
  O  O387  1  0.38279589  0.24371758  0.24443953  1
  O  O388  1  0.37203789  0.24832816  0.74593813  1
  O  O389  1  0.37323682  0.74806056  0.25051080  1
  O  O390  1  0.38679296  0.75275661  0.74376181  1
  O  O391  1  0.87973340  0.24827558  0.23857382  1
  O  O392  1  0.87833555  0.24270947  0.74534071  1
  O  O393  1  0.87606666  0.74083594  0.25281977  1
  O  O394  1  0.88681833  0.74885651  0.74762597  1
  O  O395  1  0.39423945  0.49602765  0.50521387  1
  O  O396  1  0.39081132  0.50081834  0.99905811  1
  O  O397  1  0.37689591  0.99877861  0.50042182  1
  O  O398  1  0.38213358  0.99599716  0.99290678  1
  O  O399  1  0.87897683  0.49596222  0.49459207  1
  O  O400  1  0.88064931  0.49973814  0.99252538  1
  O  O401  1  0.87104540  0.99039325  0.49370789  1
  O  O402  1  0.87855784  0.98937329  0.99441255  1
  O  O403  1  0.11925127  0.00318710  0.00343350  1
  O  O404  1  0.12335885  0.01094792  0.51138999  1
  O  O405  1  0.11904200  0.51034725  -0.00180069  1
  O  O406  1  0.11564530  0.49973948  0.50657953  1
  O  O407  1  0.62135804  -0.00552042  0.01330892  1
  O  O408  1  0.64736102  -0.00425097  0.52818765  1
  O  O409  1  0.61716749  0.50945450  0.00086486  1
  O  O410  1  0.61943945  0.50282326  0.50870159  1
  O  O411  1  0.36482906  0.36599526  0.13326975  1
  O  O412  1  0.37885430  0.35728812  0.62021515  1
  O  O413  1  0.38738963  0.86616898  0.13351949  1
  O  O414  1  0.37327619  0.86545681  0.61535449  1
  O  O415  1  0.86594480  0.36895024  0.12451785  1
  O  O416  1  0.86348140  0.36865333  0.62216374  1
  O  O417  1  0.86901177  0.87945632  0.11632590  1
  O  O418  1  0.86657658  0.87363667  0.61585935  1
  O  O419  1  0.11711757  0.14223198  0.38621498  1
  O  O420  1  0.13451721  0.13178615  0.87531412  1
  O  O421  1  0.11924119  0.63538787  0.38187480  1
  O  O422  1  0.12574647  0.63383997  0.88567836  1
  O  O423  1  0.63126034  0.14705656  0.37178203  1
  O  O424  1  0.63460455  0.11423797  0.88402165  1
  O  O425  1  0.63014219  0.63046716  0.38254383  1
  O  O426  1  0.62295451  0.62038810  0.88828484  1
