# generated using pymatgen
data_V85Zn86O256
_symmetry_space_group_name_H-M   'P 1'
_cell_length_a   16.92176841
_cell_length_b   16.92856116
_cell_length_c   16.92633112
_cell_angle_alpha   89.97011219
_cell_angle_beta   89.98410331
_cell_angle_gamma   90.05571924
_symmetry_Int_Tables_number   1
_chemical_formula_structural   V85Zn86O256
_chemical_formula_sum   'V85 Zn86 O256'
_cell_volume   4848.73383940
_cell_formula_units_Z   1
loop_
 _symmetry_equiv_pos_site_id
 _symmetry_equiv_pos_as_xyz
  1  'x, y, z'
loop_
 _atom_site_type_symbol
 _atom_site_label
 _atom_site_symmetry_multiplicity
 _atom_site_fract_x
 _atom_site_fract_y
 _atom_site_fract_z
 _atom_site_occupancy
  V  V0  1  0.12445366  0.87247041  0.74962333  1
  V  V1  1  0.12896656  0.49633815  0.63104029  1
  V  V2  1  0.01671595  0.37360689  0.87171835  1
  V  V3  1  0.62780043  0.24388201  0.38139147  1
  V  V4  1  0.87865199  -0.00125102  0.37421849  1
  V  V5  1  0.87645003  0.50175781  0.37883735  1
  V  V6  1  0.37762287  0.36952597  0.50683252  1
  V  V7  1  0.24488862  0.25287122  -0.00514459  1
  V  V8  1  0.87554384  0.12565913  0.75170889  1
  V  V9  1  0.50011721  0.62399948  0.11942994  1
  V  V10  1  0.62958208  0.37627731  0.74947573  1
  V  V11  1  0.87898512  0.36678389  0.49852721  1
  V  V12  1  0.50116790  0.24787353  0.24718413  1
  V  V13  1  0.37963668  0.25303090  0.12029509  1
  V  V14  1  0.50417029  0.76338095  0.75034120  1
  V  V15  1  0.12663239  -0.00297297  0.62608526  1
  V  V16  1  0.75400388  0.24814437  0.00067147  1
  V  V17  1  0.01438031  0.25109537  0.75435657  1
  V  V18  1  0.62073328  0.12654959  0.00049265  1
  V  V19  1  0.00147886  -0.00477281  0.49817704  1
  V  V20  1  0.62119169  0.49892776  0.12266102  1
  V  V21  1  0.77200690  0.39608666  0.63838140  1
  V  V22  1  0.37698261  0.13149911  0.75090149  1
  V  V23  1  0.74178194  -0.00126674  0.75030542  1
  V  V24  1  0.49791774  0.13202239  0.62266510  1
  V  V25  1  0.24989819  0.87224793  0.61722759  1
  V  V26  1  0.00662287  0.50369293  0.50181071  1
  V  V27  1  0.49925130  0.38882296  0.87575172  1
  V  V28  1  0.62146165  0.74191502  0.38087612  1
  V  V29  1  0.75076260  0.50330357  0.25206881  1
  V  V30  1  0.26067866  -0.00425965  0.75563282  1
  V  V31  1  0.36969168  0.49704246  0.37599129  1
  V  V32  1  0.00054537  0.00285292  -0.00215310  1
  V  V33  1  0.12021361  0.00051371  0.12892882  1
  V  V34  1  0.87289378  0.13071955  0.24445421  1
  V  V35  1  -0.00126308  0.25417637  0.24419515  1
  V  V36  1  0.37046480  0.75176954  0.62450903  1
  V  V37  1  0.24744100  0.50329688  0.25244628  1
  V  V38  1  0.74279303  0.87493443  0.62695871  1
  V  V39  1  0.75214552  -0.00313185  0.24788796  1
  V  V40  1  0.25147040  0.49473411  0.75984736  1
  V  V41  1  0.50470446  0.00592743  0.49488975  1
  V  V42  1  0.62942408  0.87335457  0.24475678  1
  V  V43  1  0.62440299  0.00331289  0.12365508  1
  V  V44  1  0.12256970  0.50244829  0.12549107  1
  V  V45  1  0.49630206  0.75194538  0.25008139  1
  V  V46  1  -0.00019919  0.87423819  0.87342114  1
  V  V47  1  0.49876557  0.87288733  0.36974443  1
  V  V48  1  0.50274248  0.50504226  0.49648001  1
  V  V49  1  0.25086380  0.37697572  0.12379350  1
  V  V50  1  0.13113547  0.75009121  0.87595978  1
  V  V51  1  0.00333930  0.12548292  0.62502082  1
  V  V52  1  0.38011146  0.39071091  -0.00429563  1
  V  V53  1  0.48772037  0.88325410  0.89240632  1
  V  V54  1  0.24937945  0.12370299  0.87583760  1
  V  V55  1  0.37348659  0.12517624  0.24407315  1
  V  V56  1  -0.00849062  0.63152824  0.13087011  1
  V  V57  1  0.25231493  0.36692597  0.63410088  1
  V  V58  1  0.87903259  0.74698859  0.63271709  1
  V  V59  1  0.11031482  0.86266185  0.26144865  1
  V  V60  1  0.12568615  0.73536659  0.38945874  1
  V  V61  1  0.62537083  0.37371481  0.24943028  1
  V  V62  1  0.62291083  0.50107879  0.62458632  1
  V  V63  1  0.87430504  0.87264361  0.49693869  1
  V  V64  1  0.62728931  0.75887886  0.87240931  1
  V  V65  1  0.36670845  0.74888522  0.11340485  1
  V  V66  1  0.25612324  0.62525345  0.88106748  1
  V  V67  1  0.37230859  0.62635950  0.25240349  1
  V  V68  1  0.24836664  0.12543628  0.37317468  1
  V  V69  1  0.24213633  0.86502679  0.11765356  1
  V  V70  1  0.62550333  0.62074198  -0.00580449  1
  V  V71  1  0.87320974  0.37521998  -0.01374192  1
  V  V72  1  0.86780642  0.87697920  0.00634133  1
  V  V73  1  0.50445591  0.63059000  0.61988664  1
  V  V74  1  0.37561654  -0.00112567  0.37051817  1
  V  V75  1  0.74645766  0.73873794  0.50349200  1
  V  V76  1  0.75953522  0.37260217  0.12383020  1
  V  V77  1  0.76479327  0.61674228  0.86367516  1
  V  V78  1  -0.00727351  0.50191618  -0.00486978  1
  V  V79  1  0.25285979  0.24779571  0.50293870  1
  V  V80  1  0.74975019  0.75124158  0.00630883  1
  V  V81  1  0.62747448  0.00840164  0.61794798  1
  V  V82  1  0.87267490  -0.00064061  0.87403671  1
  V  V83  1  0.12484556  0.63089686  0.00090455  1
  V  V84  1  0.38097356  0.62079369  0.75623602  1
  Zn  Zn85  1  0.62230250  0.25023679  0.87396618  1
  Zn  Zn86  1  0.16512961  0.62409478  0.50267512  1
  Zn  Zn87  1  0.37210352  0.87398076  0.49391924  1
  Zn  Zn88  1  0.46345121  0.07417773  0.06785516  1
  Zn  Zn89  1  0.12525046  0.25279809  0.37384799  1
  Zn  Zn90  1  0.12572382  0.12472492  0.49805810  1
  Zn  Zn91  1  -0.00614839  0.73584416  0.75920931  1
  Zn  Zn92  1  0.50179507  0.37374755  0.37704645  1
  Zn  Zn93  1  0.12060400  0.13175588  -0.00389530  1
  Zn  Zn94  1  0.74487302  0.62020726  0.38362276  1
  Zn  Zn95  1  0.87143694  0.76064465  0.13638363  1
  Zn  Zn96  1  0.12568816  0.37519151  0.25171459  1
  Zn  Zn97  1  0.87793122  0.63314053  0.26027876  1
  Zn  Zn98  1  0.74779426  0.12263702  0.38430125  1
  Zn  Zn99  1  0.49857198  0.25402178  0.74791472  1
  Zn  Zn100  1  -0.00369915  0.13145057  0.12008784  1
  Zn  Zn101  1  0.74459229  0.24853576  0.51200574  1
  Zn  Zn102  1  0.24408414  -0.00469947  0.25068218  1
  Zn  Zn103  1  0.87431558  0.24384913  0.62465973  1
  Zn  Zn104  1  0.74677130  0.12703786  0.87317438  1
  Zn  Zn105  1  0.00757083  0.62345685  0.63005131  1
  Zn  Zn106  1  0.00513754  0.37494648  0.37480631  1
  Zn  Zn107  1  0.18512574  0.18820215  0.18375954  1
  Zn  Zn108  1  0.19013328  0.18448014  0.68834440  1
  Zn  Zn109  1  0.18213003  0.68878281  0.19365828  1
  Zn  Zn110  1  0.18752522  0.68359851  0.69174170  1
  Zn  Zn111  1  0.69004145  0.18631064  0.18656909  1
  Zn  Zn112  1  0.68916604  0.19295306  0.68473250  1
  Zn  Zn113  1  0.68889514  0.68748504  0.18979452  1
  Zn  Zn114  1  0.68618828  0.68728196  0.68931970  1
  Zn  Zn115  1  0.31201202  0.31419466  0.31379860  1
  Zn  Zn116  1  0.31780155  0.31033629  0.81662342  1
  Zn  Zn117  1  0.30280761  0.81252238  0.30708275  1
  Zn  Zn118  1  0.31511128  0.81085059  0.81285512  1
  Zn  Zn119  1  0.81378548  0.31434465  0.31303418  1
  Zn  Zn120  1  0.81299090  0.30938829  0.81218722  1
  Zn  Zn121  1  0.81165885  0.81042308  0.31646224  1
  Zn  Zn122  1  0.80790828  0.81348071  0.81515377  1
  Zn  Zn123  1  0.18760841  0.43471010  0.44017276  1
  Zn  Zn124  1  0.18784675  0.44234980  0.94114312  1
  Zn  Zn125  1  0.18618291  0.93638816  0.43427974  1
  Zn  Zn126  1  0.18819118  0.93953692  0.93744993  1
  Zn  Zn127  1  0.69007571  0.43089074  0.44131256  1
  Zn  Zn128  1  0.68780766  0.44029771  0.93394806  1
  Zn  Zn129  1  0.68857022  0.93394039  0.43529219  1
  Zn  Zn130  1  0.68295794  0.93893180  0.93833060  1
  Zn  Zn131  1  0.29857568  0.05650191  0.05903949  1
  Zn  Zn132  1  0.31727389  0.05920261  0.56200478  1
  Zn  Zn133  1  0.31051541  0.56561194  0.06395027  1
  Zn  Zn134  1  0.31928301  0.55265648  0.57555499  1
  Zn  Zn135  1  0.80840530  0.06200058  0.06482975  1
  Zn  Zn136  1  0.81260958  0.06594095  0.56017110  1
  Zn  Zn137  1  0.80979152  0.56155715  0.05743426  1
  Zn  Zn138  1  0.82300696  0.55452450  0.57853730  1
  Zn  Zn139  1  0.43858091  0.43643681  0.18713694  1
  Zn  Zn140  1  0.43841605  0.43887247  0.68914956  1
  Zn  Zn141  1  0.42206735  0.94530851  0.16121026  1
  Zn  Zn142  1  0.43924627  0.94085310  0.68662097  1
  Zn  Zn143  1  0.93573270  0.44081878  0.18656240  1
  Zn  Zn144  1  0.94014242  0.43563944  0.68856087  1
  Zn  Zn145  1  0.93817690  0.93874516  0.18716711  1
  Zn  Zn146  1  0.93507103  0.93492387  0.68653627  1
  Zn  Zn147  1  0.05973883  0.06443982  0.31021947  1
  Zn  Zn148  1  0.06799855  0.06259264  0.81271945  1
  Zn  Zn149  1  0.06367676  0.56600523  0.31585332  1
  Zn  Zn150  1  0.06225207  0.55996851  0.81121016  1
  Zn  Zn151  1  0.56158681  0.06428181  0.30517663  1
  Zn  Zn152  1  0.56095459  0.06042652  0.81446680  1
  Zn  Zn153  1  0.55819972  0.56259587  0.31059861  1
  Zn  Zn154  1  0.56930473  0.56536426  0.80809298  1
  Zn  Zn155  1  0.43782295  0.18744238  0.43470158  1
  Zn  Zn156  1  0.43436684  0.19773617  0.92793838  1
  Zn  Zn157  1  0.37493808  0.66502147  0.45953942  1
  Zn  Zn158  1  0.44175974  0.69127888  0.93678512  1
  Zn  Zn159  1  0.93988209  0.18326384  0.43005662  1
  Zn  Zn160  1  0.93504381  0.19077976  0.93520680  1
  Zn  Zn161  1  0.94333301  0.68776881  0.43983899  1
  Zn  Zn162  1  0.93684094  0.69069889  0.94016911  1
  Zn  Zn163  1  0.06125185  0.31559195  0.06483423  1
  Zn  Zn164  1  0.06672107  0.31319990  0.56353600  1
  Zn  Zn165  1  0.05966527  0.81345734  0.06140162  1
  Zn  Zn166  1  0.06265187  0.80943379  0.55652002  1
  Zn  Zn167  1  0.56351038  0.31301415  0.05822323  1
  Zn  Zn168  1  0.56485395  0.31643967  0.56478032  1
  Zn  Zn169  1  0.56357535  0.81023944  0.06455473  1
  Zn  Zn170  1  0.56130611  0.81782881  0.55919822  1
  O  O171  1  0.12151196  0.11426345  0.12007707  1
  O  O172  1  0.11666098  0.11670483  0.62453825  1
  O  O173  1  0.11513527  0.62282615  0.11869017  1
  O  O174  1  0.13337648  0.61048083  0.62082107  1
  O  O175  1  0.62995062  0.11782267  0.11506704  1
  O  O176  1  0.61839526  0.11433448  0.62861305  1
  O  O177  1  0.61860594  0.61953223  0.11924631  1
  O  O178  1  0.61153806  0.62040344  0.62843484  1
  O  O179  1  0.37746824  0.38049445  0.38502645  1
  O  O180  1  0.38885853  0.37698168  0.88125737  1
  O  O181  1  0.38137615  0.87919889  0.37004455  1
  O  O182  1  0.38817770  0.86892130  0.87660496  1
  O  O183  1  0.87714794  0.38599215  0.38112018  1
  O  O184  1  0.88005152  0.37535002  0.88388119  1
  O  O185  1  0.87020874  0.88161531  0.38939102  1
  O  O186  1  0.87995478  0.88058806  0.88291798  1
  O  O187  1  0.25733013  0.00744331  0.37275487  1
  O  O188  1  0.25009126  0.00575848  0.86699271  1
  O  O189  1  0.26223209  0.49379574  0.36788209  1
  O  O190  1  0.24864383  0.50814149  0.86822905  1
  O  O191  1  0.76041261  0.00051875  0.36821335  1
  O  O192  1  0.75409013  0.00015490  0.86554613  1
  O  O193  1  0.75538101  0.49946442  0.37030086  1
  O  O194  1  0.74966810  0.51742521  0.87831826  1
  O  O195  1  0.24345673  0.49677259  0.13166534  1
  O  O196  1  0.24903265  0.48751769  0.63838868  1
  O  O197  1  0.23124423  0.98845038  0.12779486  1
  O  O198  1  0.24608311  0.99223223  0.63253571  1
  O  O199  1  0.74088926  0.49614101  0.13137363  1
  O  O200  1  0.72268154  0.49731147  0.59378217  1
  O  O201  1  0.74206103  1.00088999  0.13985948  1
  O  O202  1  0.74505208  0.99550225  0.62847973  1
  O  O203  1  -0.00231684  0.36533356  0.24932338  1
  O  O204  1  -0.00335735  0.36843208  0.76377903  1
  O  O205  1  0.01238673  0.87420637  0.24366864  1
  O  O206  1  0.00727736  0.87627877  0.75797635  1
  O  O207  1  0.50441590  0.36384723  0.25123641  1
  O  O208  1  0.50590944  0.37617981  0.75732434  1
  O  O209  1  0.50531327  0.87258118  0.25826924  1
  O  O210  1  0.49756551  0.86548849  0.75227534  1
  O  O211  1  0.48959361  0.13930258  0.25206345  1
  O  O212  1  0.49325681  0.12357581  0.74242879  1
  O  O213  1  0.49349520  0.63010983  0.23806991  1
  O  O214  1  0.49510400  0.63366810  0.74482798  1
  O  O215  1  0.99240867  0.13625501  0.24700923  1
  O  O216  1  0.99643027  0.12856670  0.74560910  1
  O  O217  1  0.99781375  0.61749328  0.23380164  1
  O  O218  1  1.00328476  0.62418305  0.74339089  1
  O  O219  1  0.36748254  0.25934945  0.00661901  1
  O  O220  1  0.36479999  0.25634126  0.49532204  1
  O  O221  1  0.37340249  0.74115231  0.01459332  1
  O  O222  1  0.38585496  0.76016688  0.52015109  1
  O  O223  1  0.86366918  0.25853819  -0.00138583  1
  O  O224  1  0.88142712  0.26041689  0.49318533  1
  O  O225  1  0.86650361  0.76041758  0.00248894  1
  O  O226  1  0.86866251  0.75724066  0.50796609  1
  O  O227  1  0.13926667  0.24615509  0.49893278  1
  O  O228  1  0.14067946  0.25131467  1.00945399  1
  O  O229  1  0.12995856  0.74110272  0.49664650  1
  O  O230  1  0.11973293  0.73803986  0.99312281  1
  O  O231  1  0.62425067  0.25771505  0.48415723  1
  O  O232  1  0.63678447  0.24457900  1.00013078  1
  O  O233  1  0.63227460  0.75552072  0.49247406  1
  O  O234  1  0.63079332  0.74092801  0.99495786  1
  O  O235  1  0.48813122  0.25746882  0.13020380  1
  O  O236  1  0.50652720  0.23541209  0.62375007  1
  O  O237  1  0.49052332  0.74369833  0.13139348  1
  O  O238  1  0.49882374  0.74737889  0.63195493  1
  O  O239  1  0.99971155  0.24994887  0.13736970  1
  O  O240  1  1.00221911  0.24025272  0.63225412  1
  O  O241  1  0.99433722  0.73414983  0.11669077  1
  O  O242  1  0.98612760  0.75352155  0.62488286  1
  O  O243  1  0.00465666  0.25073160  0.36094849  1
  O  O244  1  -0.00130787  0.26341512  0.87000742  1
  O  O245  1  0.02108435  0.74839209  0.38435739  1
  O  O246  1  0.01068657  0.75652595  0.87661290  1
  O  O247  1  0.50989997  0.25153057  0.36689116  1
  O  O248  1  0.50389970  0.26570935  0.86801713  1
  O  O249  1  0.50560343  0.75982584  0.36820978  1
  O  O250  1  0.50802362  0.75748820  0.86808623  1
  O  O251  1  0.25317085  0.13058299  0.49323266  1
  O  O252  1  0.24994006  0.13330806  0.99300066  1
  O  O253  1  0.27802670  0.62066501  0.49905150  1
  O  O254  1  0.24077169  0.61945738  0.98946775  1
  O  O255  1  0.75600389  0.13628676  0.49731455  1
  O  O256  1  0.74451871  0.13384671  0.99973737  1
  O  O257  1  0.75500563  0.63703708  0.50588399  1
  O  O258  1  0.74294466  0.63244378  0.99209179  1
  O  O259  1  0.25825088  0.37129262  0.00270793  1
  O  O260  1  0.25812061  0.36687450  0.50934350  1
  O  O261  1  0.23983900  0.87551958  0.01798309  1
  O  O262  1  0.25151109  0.88156183  0.51374407  1
  O  O263  1  0.75599713  0.37139710  0.00363170  1
  O  O264  1  0.76422672  0.37201556  0.51069514  1
  O  O265  1  0.75692331  0.86635707  -0.00662303  1
  O  O266  1  0.75622559  0.86788415  0.50760511  1
  O  O267  1  0.13295885  0.50123514  0.24583628  1
  O  O268  1  0.14077334  0.50053256  0.74459554  1
  O  O269  1  0.12052973  0.99296807  0.24242230  1
  O  O270  1  0.13504341  0.99239453  0.74452852  1
  O  O271  1  0.63076320  0.49388771  0.24518523  1
  O  O272  1  0.62216994  0.49052644  0.73675135  1
  O  O273  1  0.63558030  0.99372205  0.25009399  1
  O  O274  1  0.63740105  1.00477723  0.74136449  1
  O  O275  1  0.37149190  0.01091869  0.25115607  1
  O  O276  1  0.36452701  0.00696822  0.74633527  1
  O  O277  1  0.36984592  0.50373314  0.25587277  1
  O  O278  1  0.36939454  0.51380747  0.74625075  1
  O  O279  1  0.87053882  0.00239107  0.25695344  1
  O  O280  1  0.86866391  0.00891537  0.75275166  1
  O  O281  1  0.86734077  0.50280006  0.26020798  1
  O  O282  1  0.83586216  0.47957365  0.67639503  1
  O  O283  1  0.12429483  0.37233696  0.37009215  1
  O  O284  1  0.11503895  0.37389183  0.88062404  1
  O  O285  1  0.11957916  0.87765252  0.36335629  1
  O  O286  1  0.12211669  0.86709087  0.87186940  1
  O  O287  1  0.62387942  0.36633866  0.36581569  1
  O  O288  1  0.61755503  0.37716269  0.86799313  1
  O  O289  1  0.61819273  0.86708471  0.36569818  1
  O  O290  1  0.61835982  0.86244228  0.87998341  1
  O  O291  1  0.37192062  0.13744798  0.13384792  1
  O  O292  1  0.38746037  0.11629582  0.63416673  1
  O  O293  1  0.38089315  0.62764346  0.13334360  1
  O  O294  1  0.38546924  0.63301322  0.63762340  1
  O  O295  1  0.87596578  0.11785792  0.14006938  1
  O  O296  1  0.88854734  0.12329704  0.63294171  1
  O  O297  1  0.88693044  0.62128289  0.12254770  1
  O  O298  1  0.87372370  0.64597055  0.62496273  1
  O  O299  1  0.26082103  0.25802124  0.12119353  1
  O  O300  1  0.24814963  0.25838686  0.62012924  1
  O  O301  1  0.24968237  0.75563692  0.12667225  1
  O  O302  1  0.25990715  0.75909456  0.63683970  1
  O  O303  1  0.74561255  0.26343478  0.11800683  1
  O  O304  1  0.75706672  0.26685636  0.62868963  1
  O  O305  1  0.74944750  0.74439576  0.11040590  1
  O  O306  1  0.75469700  0.75822542  0.62246883  1
  O  O307  1  0.24981315  0.24183364  0.38195983  1
  O  O308  1  0.25535808  0.24199185  0.88516679  1
  O  O309  1  0.22632722  0.75991033  0.37271759  1
  O  O310  1  0.23911467  0.74160659  0.87053520  1
  O  O311  1  0.73454591  0.25186564  0.37089251  1
  O  O312  1  0.74570927  0.24880630  0.88491463  1
  O  O313  1  0.73959900  0.74664034  0.38710506  1
  O  O314  1  0.74260723  0.74464718  0.88325175  1
  O  O315  1  -0.00139896  0.11726038  -0.00107740  1
  O  O316  1  0.00031128  0.11473480  0.50780546  1
  O  O317  1  0.00457674  0.61761057  0.00464433  1
  O  O318  1  -0.00630086  0.60836836  0.51142969  1
  O  O319  1  0.51379879  0.14126393  -0.00384390  1
  O  O320  1  0.49423543  0.11379949  0.50506246  1
  O  O321  1  0.50839872  0.62972429  0.01172464  1
  O  O322  1  0.48215771  0.61652817  0.51052883  1
  O  O323  1  0.49162073  0.38057910  0.50052363  1
  O  O324  1  0.49514586  0.37532193  0.98658738  1
  O  O325  1  0.50037203  0.88637430  0.48490832  1
  O  O326  1  0.50057829  0.87004260  0.99173352  1
  O  O327  1  0.99689935  0.38373704  0.49903957  1
  O  O328  1  0.99406653  0.37940113  0.99107720  1
  O  O329  1  0.99098135  0.88815848  0.50769823  1
  O  O330  1  0.99282441  0.88469625  0.99326213  1
  O  O331  1  0.48840463  0.49765532  0.37853418  1
  O  O332  1  0.50601049  0.48872243  0.87015093  1
  O  O333  1  0.49678571  0.99671150  0.37692260  1
  O  O334  1  0.50506863  0.98123753  0.87384927  1
  O  O335  1  0.99377333  0.49945227  0.38310665  1
  O  O336  1  1.00497754  0.48596438  0.88226150  1
  O  O337  1  0.98795344  1.00534207  0.38344918  1
  O  O338  1  0.99554710  0.99586051  0.88090142  1
  O  O339  1  0.00592803  0.00176852  0.11498861  1
  O  O340  1  0.00486285  0.00573387  0.61997130  1
  O  O341  1  0.00438359  0.50686661  0.11561670  1
  O  O342  1  0.01445295  0.49478358  0.62087822  1
  O  O343  1  0.52193019  0.00509209  0.14559800  1
  O  O344  1  0.50929208  0.00411671  0.61508321  1
  O  O345  1  0.51294792  0.50752890  0.13120453  1
  O  O346  1  0.50498987  0.50804415  0.61701263  1
  O  O347  1  0.25281493  0.38720748  0.24255686  1
  O  O348  1  0.26161160  0.38148207  0.74555645  1
  O  O349  1  0.23139339  0.87638219  0.23949282  1
  O  O350  1  0.24558086  0.88106630  0.74559287  1
  O  O351  1  0.74818869  0.38454835  0.24150406  1
  O  O352  1  0.74374867  0.37488529  0.74536583  1
  O  O353  1  0.74061551  0.88403976  0.25747650  1
  O  O354  1  0.75565056  0.88636298  0.73972512  1
  O  O355  1  0.25633212  0.12539010  0.25567379  1
  O  O356  1  0.25717097  0.11690041  0.75482691  1
  O  O357  1  0.25767520  0.61214939  0.24339112  1
  O  O358  1  0.25897634  0.61746291  0.76182110  1
  O  O359  1  0.75663728  0.11743067  0.25482508  1
  O  O360  1  0.75952762  0.11906269  0.74785863  1
  O  O361  1  0.74810174  0.61098059  0.25342409  1
  O  O362  1  0.74858659  0.63039417  0.76468794  1
  O  O363  1  0.36638923  0.12263363  0.36347271  1
  O  O364  1  0.36555699  0.12562801  0.86566160  1
  O  O365  1  0.38188793  0.61392541  0.35808842  1
  O  O366  1  0.36791874  0.63322009  0.86947192  1
  O  O367  1  0.87317963  0.11516854  0.36307085  1
  O  O368  1  0.87238802  0.11697318  0.86766304  1
  O  O369  1  0.87233117  0.61269999  0.38013194  1
  O  O370  1  0.86417714  0.63066048  0.87668513  1
  O  O371  1  0.13218945  0.38543329  0.12649903  1
  O  O372  1  0.13953195  0.38497764  0.62229438  1
  O  O373  1  0.12677247  0.87592409  0.13162588  1
  O  O374  1  0.13168035  0.87619921  0.62982980  1
  O  O375  1  0.63143006  0.38340826  0.12800293  1
  O  O376  1  0.63095197  0.38347181  0.63262442  1
  O  O377  1  0.62229937  0.87924455  0.13846463  1
  O  O378  1  0.63620727  0.88672954  0.62047773  1
  O  O379  1  0.11311876  0.25212306  0.24851389  1
  O  O380  1  0.11372250  0.24468802  0.74964932  1
  O  O381  1  0.11891076  0.75713088  0.25943200  1
  O  O382  1  0.12274214  0.75607275  0.75860966  1
  O  O383  1  0.61764051  0.25417186  0.25237906  1
  O  O384  1  0.62282926  0.26438749  0.74985538  1
  O  O385  1  0.61987128  0.75658182  0.25501723  1
  O  O386  1  0.61612218  0.74771239  0.75968950  1
  O  O387  1  0.38083874  0.24726871  0.24347354  1
  O  O388  1  0.37649691  0.23598293  0.74803723  1
  O  O389  1  0.37632480  0.74039451  0.24581131  1
  O  O390  1  0.38451223  0.74233961  0.74309654  1
  O  O391  1  0.88441440  0.24328754  0.25435615  1
  O  O392  1  0.88429132  0.23535483  0.75272201  1
  O  O393  1  0.86503634  0.74407584  0.24717073  1
  O  O394  1  0.87681178  0.76279447  0.73602713  1
  O  O395  1  0.38313859  0.48868353  0.49291184  1
  O  O396  1  0.37362060  0.48974383  1.00597200  1
  O  O397  1  0.38437853  0.99562495  0.48901037  1
  O  O398  1  0.38866840  0.99341272  1.05772423  1
  O  O399  1  0.88345266  0.48895988  0.49655426  1
  O  O400  1  0.88630731  0.49326796  1.00103287  1
  O  O401  1  0.88055579  0.99360843  0.49415081  1
  O  O402  1  0.87879878  0.99611603  0.99465986  1
  O  O403  1  0.11245726  0.00036098  0.00512985  1
  O  O404  1  0.11703724  0.00082309  0.50581280  1
  O  O405  1  0.11543855  0.51133342  0.00448601  1
  O  O406  1  0.12252799  0.50339965  0.50790935  1
  O  O407  1  0.63069756  0.01083828  0.01140660  1
  O  O408  1  0.61814780  -0.00212451  0.50485776  1
  O  O409  1  0.63040216  0.51211515  0.00867905  1
  O  O410  1  0.60606423  0.49349714  0.49684562  1
  O  O411  1  0.37096859  0.37148489  0.11737092  1
  O  O412  1  0.36865639  0.37888297  0.61527077  1
  O  O413  1  0.35173615  0.85820432  0.13801934  1
  O  O414  1  0.36693833  0.86923170  0.62781966  1
  O  O415  1  0.86329768  0.38444568  0.11347166  1
  O  O416  1  0.88114715  0.36030635  0.61369673  1
  O  O417  1  0.87703032  0.87810085  0.11064363  1
  O  O418  1  0.86482052  0.87066159  0.61520809  1
  O  O419  1  0.13835936  0.12390729  0.37524277  1
  O  O420  1  0.14171710  0.12197487  0.87742914  1
  O  O421  1  0.12983484  0.62982365  0.38342075  1
  O  O422  1  0.13186123  0.63124190  0.88226720  1
  O  O423  1  0.62510955  0.14069326  0.36796792  1
  O  O424  1  0.62767543  0.12577218  0.88432617  1
  O  O425  1  0.62225056  0.63803878  0.37102277  1
  O  O426  1  0.62687793  0.63460629  0.88277088  1
