# generated using pymatgen
data_V85Zn86O256
_symmetry_space_group_name_H-M   'P 1'
_cell_length_a   16.92565799
_cell_length_b   16.92593063
_cell_length_c   16.92345624
_cell_angle_alpha   90.01812615
_cell_angle_beta   89.92061757
_cell_angle_gamma   90.03476385
_symmetry_Int_Tables_number   1
_chemical_formula_structural   V85Zn86O256
_chemical_formula_sum   'V85 Zn86 O256'
_cell_volume   4848.26848536
_cell_formula_units_Z   1
loop_
 _symmetry_equiv_pos_site_id
 _symmetry_equiv_pos_as_xyz
  1  'x, y, z'
loop_
 _atom_site_type_symbol
 _atom_site_label
 _atom_site_symmetry_multiplicity
 _atom_site_fract_x
 _atom_site_fract_y
 _atom_site_fract_z
 _atom_site_occupancy
  V  V0  1  0.24998368  0.87478651  0.62558201  1
  V  V1  1  0.37495435  0.87499664  0.50092618  1
  V  V2  1  0.75030591  0.87688642  0.12938351  1
  V  V3  1  0.36836131  0.62596523  0.74582758  1
  V  V4  1  0.37965126  0.50157262  0.37187263  1
  V  V5  1  -0.00015149  0.49979296  0.49794307  1
  V  V6  1  0.87486244  0.36999870  0.00521611  1
  V  V7  1  0.12853295  0.50154844  0.62608706  1
  V  V8  1  0.50508994  0.87316693  0.37390169  1
  V  V9  1  0.61528097  0.12681893  0.00399749  1
  V  V10  1  0.12926224  0.37702585  0.74997235  1
  V  V11  1  -0.00281586  0.86975406  0.87158180  1
  V  V12  1  0.25372918  0.12661929  0.37292773  1
  V  V13  1  0.12468669  0.12685704  0.50128342  1
  V  V14  1  0.38175580  -0.00822542  0.87384795  1
  V  V15  1  0.74890231  0.74915094  0.00180315  1
  V  V16  1  0.74668858  0.37639572  0.12814127  1
  V  V17  1  0.01068862  0.87173309  0.36934207  1
  V  V18  1  0.24943017  -0.00341531  0.24474271  1
  V  V19  1  0.36970814  0.49361392  0.87447918  1
  V  V20  1  -0.01253987  0.12706738  0.11855887  1
  V  V21  1  0.61648237  0.00277248  0.12728702  1
  V  V22  1  0.49390403  0.62167916  0.13142791  1
  V  V23  1  -0.00026233  0.24720257  0.73992588  1
  V  V24  1  0.62221613  0.25396261  0.86446211  1
  V  V25  1  0.87030730  0.36997227  0.49911102  1
  V  V26  1  0.60793499  0.75182427  0.88201510  1
  V  V27  1  0.50144870  0.00348389  0.50040150  1
  V  V28  1  0.25173519  0.25302828  0.49860585  1
  V  V29  1  0.87998360  0.62834252  0.75338489  1
  V  V30  1  0.50530184  0.51989758  0.50325287  1
  V  V31  1  0.62501186  0.00150389  0.62609448  1
  V  V32  1  0.87049335  0.51293916  0.37079120  1
  V  V33  1  0.62225300  0.37754847  0.25039023  1
  V  V34  1  0.24732515  0.62646171  0.36990598  1
  V  V35  1  0.87658332  0.74785818  0.13788285  1
  V  V36  1  0.74913210  0.51276273  0.24875061  1
  V  V37  1  0.63706296  0.12977020  0.49942882  1
  V  V38  1  0.62903913  0.73631769  0.37772061  1
  V  V39  1  0.87692797  0.12478550  0.74251549  1
  V  V40  1  0.74106035  0.49683242  0.75076587  1
  V  V41  1  0.38330399  0.25488881  0.11732247  1
  V  V42  1  0.74936052  0.62388869  0.87982049  1
  V  V43  1  0.38650989  0.12419073  0.24014707  1
  V  V44  1  0.12326052  0.62493919  -0.00030722  1
  V  V45  1  0.24735479  0.12343177  0.88174480  1
  V  V46  1  0.87772625  0.00432667  0.36882789  1
  V  V47  1  0.49886735  0.37075168  0.85683463  1
  V  V48  1  0.12686078  0.37098274  0.24614068  1
  V  V49  1  0.38815258  0.37608059  0.49500005  1
  V  V50  1  -0.00239305  0.37348746  0.87353971  1
  V  V51  1  0.12279954  0.24466566  0.88183377  1
  V  V52  1  0.24737362  0.61918262  0.87188659  1
  V  V53  1  0.49745760  0.48710118  0.00468840  1
  V  V54  1  -0.00216528  0.49998330  0.00130291  1
  V  V55  1  0.00158765  0.63264990  0.62776730  1
  V  V56  1  0.75448046  0.01248345  0.24830956  1
  V  V57  1  0.12130349  0.00723835  0.62595634  1
  V  V58  1  0.87636964  0.87481365  0.00067839  1
  V  V59  1  0.25050490  0.37774576  0.62453738  1
  V  V60  1  0.62196777  0.61792540  0.00821067  1
  V  V61  1  0.75092515  0.87640864  0.62222137  1
  V  V62  1  0.25453199  0.50060123  0.24683895  1
  V  V63  1  0.50187587  0.13272575  0.62818975  1
  V  V64  1  0.75049243  0.24916312  0.00556807  1
  V  V65  1  0.37806489  0.25342946  0.62667049  1
  V  V66  1  0.54776254  0.69064747  0.69452163  1
  V  V67  1  0.62725499  0.26025294  0.38181928  1
  V  V68  1  0.75158135  0.73409077  0.49751798  1
  V  V69  1  0.12180939  0.74989436  0.87322479  1
  V  V70  1  0.61083960  0.87571518  0.75203599  1
  V  V71  1  -0.00066138  0.00426917  0.50042501  1
  V  V72  1  0.11878868  0.87024984  0.74725829  1
  V  V73  1  0.37000481  0.75204905  0.13355094  1
  V  V74  1  0.37521807  0.13121690  0.75143641  1
  V  V75  1  0.12549626  0.24935677  0.37019330  1
  V  V76  1  0.74306905  0.37047672  0.62501943  1
  V  V77  1  -0.01606612  0.24276049  0.24809204  1
  V  V78  1  0.24407562  0.75020417  0.49402043  1
  V  V79  1  0.37734929  0.00202474  0.37394223  1
  V  V80  1  0.13054506  0.00586394  0.11503251  1
  V  V81  1  -0.00234132  0.62374136  0.13443011  1
  V  V82  1  0.87390606  0.00070810  0.87559153  1
  V  V83  1  0.74852926  0.12591334  0.87536541  1
  V  V84  1  0.25067537  0.75885806  0.00101912  1
  Zn  Zn85  1  0.74851883  -0.00378457  0.75204677  1
  Zn  Zn86  1  0.87573517  0.87456613  0.49843902  1
  Zn  Zn87  1  0.88100661  0.75473265  0.62737508  1
  Zn  Zn88  1  0.50269382  -0.00642378  -0.00218862  1
  Zn  Zn89  1  0.62729121  0.87491203  0.25381152  1
  Zn  Zn90  1  0.25195819  0.25255542  0.00126627  1
  Zn  Zn91  1  0.37733804  0.74769209  0.62814778  1
  Zn  Zn92  1  0.38792131  0.86851532  -0.00360783  1
  Zn  Zn93  1  0.00944853  0.74351450  0.25755557  1
  Zn  Zn94  1  0.87389038  0.24751265  0.61874677  1
  Zn  Zn95  1  0.75801871  0.13363657  0.37432124  1
  Zn  Zn96  1  0.25609257  0.37622070  0.11595573  1
  Zn  Zn97  1  0.24856823  0.00016442  0.75128243  1
  Zn  Zn98  1  0.12341749  0.62873886  0.49557948  1
  Zn  Zn99  1  0.49911101  0.74265975  0.25390363  1
  Zn  Zn100  1  0.50306869  0.25176365  0.25215351  1
  Zn  Zn101  1  0.12751000  0.49712152  0.12399872  1
  Zn  Zn102  1  0.00693146  0.00591513  -0.00449248  1
  Zn  Zn103  1  0.13551612  0.86679774  0.23987429  1
  Zn  Zn104  1  -0.00408195  0.37538904  0.37006610  1
  Zn  Zn105  1  0.62017410  0.50372686  0.62515963  1
  Zn  Zn106  1  0.87211667  0.49828141  0.87384823  1
  Zn  Zn107  1  0.19098470  0.18347775  0.18252130  1
  Zn  Zn108  1  0.19062580  0.18935836  0.69146199  1
  Zn  Zn109  1  0.18628099  0.68359798  0.18719624  1
  Zn  Zn110  1  0.18818099  0.68914401  0.68707196  1
  Zn  Zn111  1  0.68620368  0.19095584  0.18730992  1
  Zn  Zn112  1  0.69173539  0.18842747  0.68803004  1
  Zn  Zn113  1  0.68251092  0.69052196  0.18832273  1
  Zn  Zn114  1  0.71014565  0.69018202  0.69108136  1
  Zn  Zn115  1  0.31587407  0.31422507  0.30894618  1
  Zn  Zn116  1  0.31067875  0.31252658  0.81450817  1
  Zn  Zn117  1  0.31364033  0.81313427  0.31247524  1
  Zn  Zn118  1  0.30994464  0.80792842  0.80925010  1
  Zn  Zn119  1  0.80788212  0.31794398  0.31749027  1
  Zn  Zn120  1  0.81134178  0.31239881  0.81271565  1
  Zn  Zn121  1  0.81525321  0.81717464  0.31652054  1
  Zn  Zn122  1  0.80630370  0.81035127  0.81155438  1
  Zn  Zn123  1  0.18843062  0.43693207  0.43467810  1
  Zn  Zn124  1  0.18664741  0.43339538  0.93950943  1
  Zn  Zn125  1  0.18856040  0.93999499  0.43596572  1
  Zn  Zn126  1  0.18913041  0.93854852  0.93622149  1
  Zn  Zn127  1  0.68769098  0.44435254  0.43892115  1
  Zn  Zn128  1  0.68284327  0.43545260  0.93756255  1
  Zn  Zn129  1  0.69006279  0.93905838  0.43697089  1
  Zn  Zn130  1  0.68374441  0.93518202  0.93877662  1
  Zn  Zn131  1  0.31499800  0.06363685  0.05891547  1
  Zn  Zn132  1  0.31188181  0.06314006  0.56345833  1
  Zn  Zn133  1  0.31425202  0.56355734  0.05927887  1
  Zn  Zn134  1  0.31212369  0.56226997  0.55829277  1
  Zn  Zn135  1  0.81018941  0.06269717  0.06084727  1
  Zn  Zn136  1  0.81486418  0.05842423  0.56232707  1
  Zn  Zn137  1  0.81438749  0.56103214  0.06703343  1
  Zn  Zn138  1  0.81624114  0.55690455  0.56719627  1
  Zn  Zn139  1  0.43859955  0.43674956  0.18848681  1
  Zn  Zn140  1  0.43492291  0.44581074  0.68552389  1
  Zn  Zn141  1  0.43622475  0.93111422  0.18711053  1
  Zn  Zn142  1  0.43577012  0.94178052  0.68822076  1
  Zn  Zn143  1  0.93497362  0.43408777  0.18819360  1
  Zn  Zn144  1  0.93551815  0.44079629  0.68634731  1
  Zn  Zn145  1  0.94144025  0.94085883  0.18707824  1
  Zn  Zn146  1  0.93788671  0.93862504  0.68713653  1
  Zn  Zn147  1  0.06484455  0.06311854  0.30742865  1
  Zn  Zn148  1  0.06053332  0.06141528  0.81031850  1
  Zn  Zn149  1  0.06641699  0.55864624  0.31300150  1
  Zn  Zn150  1  0.06087516  0.55934812  0.81141747  1
  Zn  Zn151  1  0.56879909  0.06378374  0.31550857  1
  Zn  Zn152  1  0.56283110  0.06672882  0.81061137  1
  Zn  Zn153  1  0.56263038  0.55737011  0.31441004  1
  Zn  Zn154  1  0.56333590  0.55728657  0.82263420  1
  Zn  Zn155  1  0.44411006  0.19048272  0.43571716  1
  Zn  Zn156  1  0.43934049  0.18644430  0.93431131  1
  Zn  Zn157  1  0.43036718  0.68885884  0.43574424  1
  Zn  Zn158  1  0.43278455  0.67957856  0.94216606  1
  Zn  Zn159  1  0.93958895  0.18673701  0.43564326  1
  Zn  Zn160  1  0.93682361  0.18845126  0.93537071  1
  Zn  Zn161  1  0.93763073  0.68926965  0.44009946  1
  Zn  Zn162  1  0.93557311  0.68834071  0.94162330  1
  Zn  Zn163  1  0.06176968  0.30953678  0.06578372  1
  Zn  Zn164  1  0.06063038  0.31514306  0.56021110  1
  Zn  Zn165  1  0.06245495  0.81582439  0.06468359  1
  Zn  Zn166  1  0.06322151  0.81656404  0.55741701  1
  Zn  Zn167  1  0.56319540  0.31045866  0.06571862  1
  Zn  Zn168  1  0.56436439  0.31427189  0.56389634  1
  Zn  Zn169  1  0.55813113  0.81385166  0.06525594  1
  Zn  Zn170  1  0.56894973  0.81526122  0.55487977  1
  O  O171  1  0.11483758  0.11240236  0.12937956  1
  O  O172  1  0.13257029  0.11346812  0.62229804  1
  O  O173  1  0.11563177  0.61957857  0.11474311  1
  O  O174  1  0.12015294  0.61776046  0.62425742  1
  O  O175  1  0.63164343  0.11627060  0.11604467  1
  O  O176  1  0.61977289  0.12420815  0.62063258  1
  O  O177  1  0.61523806  0.63221639  0.11356768  1
  O  O178  1  0.61515781  0.63494577  0.64318898  1
  O  O179  1  0.36990989  0.38606197  0.38447995  1
  O  O180  1  0.38626338  0.37968976  0.87006946  1
  O  O181  1  0.38337886  0.88145197  0.38154709  1
  O  O182  1  0.36837012  0.88985837  0.86954987  1
  O  O183  1  0.87544420  0.38488585  0.38391436  1
  O  O184  1  0.87968700  0.37612684  0.88561911  1
  O  O185  1  0.88549583  0.88781919  0.37791766  1
  O  O186  1  0.87896018  0.88001704  0.87568386  1
  O  O187  1  0.25839942  0.00722162  0.36855040  1
  O  O188  1  0.25810292  0.00778479  0.87239456  1
  O  O189  1  0.25767048  0.50447618  0.36831979  1
  O  O190  1  0.25624873  0.50687257  0.87898693  1
  O  O191  1  0.75849367  0.00093655  0.36517733  1
  O  O192  1  0.75740597  0.00377611  0.87365140  1
  O  O193  1  0.76191595  0.50016323  0.36584122  1
  O  O194  1  0.74962520  0.50440624  0.87012904  1
  O  O195  1  0.25161232  0.49839795  0.13197575  1
  O  O196  1  0.23560563  0.49525396  0.61744883  1
  O  O197  1  0.23990069  1.00854588  0.12875714  1
  O  O198  1  0.24205587  0.98943771  0.62382031  1
  O  O199  1  0.75634308  0.49236688  0.14003207  1
  O  O200  1  0.74436121  0.49461986  0.63340250  1
  O  O201  1  0.74561890  0.99382547  0.13076063  1
  O  O202  1  0.74308139  0.99318905  0.62837455  1
  O  O203  1  0.00636989  0.36099797  0.24708430  1
  O  O204  1  0.00465910  0.36891123  0.75347628  1
  O  O205  1  0.00195449  0.87649247  0.26301936  1
  O  O206  1  0.00654602  0.87705058  0.75792003  1
  O  O207  1  0.51857856  0.37919467  0.24733925  1
  O  O208  1  0.49954281  0.37841297  0.75844208  1
  O  O209  1  0.50046654  0.87200093  0.26468202  1
  O  O210  1  0.51116036  0.87583727  0.74462492  1
  O  O211  1  0.48813675  0.12226937  0.25467479  1
  O  O212  1  0.49301889  0.12262053  0.73597044  1
  O  O213  1  0.50711906  0.62137890  0.23554326  1
  O  O214  1  0.49276213  0.62520982  0.75316870  1
  O  O215  1  1.00095665  0.13719605  0.24274679  1
  O  O216  1  0.98972577  0.13418807  0.75457183  1
  O  O217  1  1.00400925  0.62226947  0.23809595  1
  O  O218  1  0.99264758  0.62096709  0.74147158  1
  O  O219  1  0.37918584  0.24202812  0.01494950  1
  O  O220  1  0.37240838  0.25772936  0.50325537  1
  O  O221  1  0.36578366  0.74952236  0.00496311  1
  O  O222  1  0.36527116  0.75829202  0.50540209  1
  O  O223  1  0.86408481  0.25856870  -0.00664024  1
  O  O224  1  0.88339873  0.26485362  0.49980010  1
  O  O225  1  0.86682590  0.75751379  0.00732538  1
  O  O226  1  0.86231299  0.75382645  0.50085175  1
  O  O227  1  0.12805397  0.24645649  0.49233085  1
  O  O228  1  0.11907049  0.25076255  0.98420918  1
  O  O229  1  0.13961537  0.75099508  0.50103677  1
  O  O230  1  0.13033748  0.74541418  0.99542613  1
  O  O231  1  0.62306079  0.24534927  0.49041972  1
  O  O232  1  0.63051767  0.24299334  0.99475320  1
  O  O233  1  0.63822775  0.75082464  0.48915784  1
  O  O234  1  0.63053582  0.74387505  0.99630895  1
  O  O235  1  0.48896535  0.24955764  0.13175652  1
  O  O236  1  0.49227805  0.24367597  0.62074600  1
  O  O237  1  0.48943437  0.74123781  0.12857988  1
  O  O238  1  0.49982898  0.74912679  0.62483820  1
  O  O239  1  1.00199943  0.23744066  0.13559550  1
  O  O240  1  0.99745474  0.25406311  0.63615913  1
  O  O241  1  0.99150940  0.74162011  0.12322366  1
  O  O242  1  1.00111818  0.73716351  0.61552187  1
  O  O243  1  0.00648722  0.24976227  0.36187120  1
  O  O244  1  0.00508874  0.25464221  0.86470148  1
  O  O245  1  -0.00443171  0.76730811  0.37708268  1
  O  O246  1  0.00422380  0.76209593  0.88062665  1
  O  O247  1  0.51997454  0.24707926  0.37060955  1
  O  O248  1  0.50451604  0.26361415  0.87734557  1
  O  O249  1  0.50959413  0.75497351  0.37772120  1
  O  O250  1  0.50889377  0.74381295  0.88142898  1
  O  O251  1  0.24585798  0.13248794  0.49447538  1
  O  O252  1  0.25416775  0.13097591  0.98537515  1
  O  O253  1  0.24888197  0.63397919  0.49219308  1
  O  O254  1  0.24236316  0.63025209  0.98910751  1
  O  O255  1  0.73969920  0.12351842  0.50269344  1
  O  O256  1  0.74464310  0.13326381  0.99434730  1
  O  O257  1  0.75321563  0.63571164  0.50660583  1
  O  O258  1  0.74167781  0.62576631  0.99944577  1
  O  O259  1  0.24638711  0.36641890  0.00263308  1
  O  O260  1  0.25673383  0.36990679  0.50537251  1
  O  O261  1  0.25224203  0.86095374  -0.00545266  1
  O  O262  1  0.25450336  0.87131070  0.50418713  1
  O  O263  1  0.75426808  0.37088195  0.00624080  1
  O  O264  1  0.75768034  0.38504039  0.51401062  1
  O  O265  1  0.75507905  0.87196162  0.01211257  1
  O  O266  1  0.74959495  0.87286336  0.51194133  1
  O  O267  1  0.13265931  0.48815395  0.24786141  1
  O  O268  1  0.11831841  0.48821133  0.73953897  1
  O  O269  1  0.13585059  0.99889985  0.24063576  1
  O  O270  1  0.12482324  0.99061345  0.74159955  1
  O  O271  1  0.64201143  0.49293943  0.26037946  1
  O  O272  1  0.63684762  0.50565794  0.74939503  1
  O  O273  1  0.63473001  0.99848239  0.24410893  1
  O  O274  1  0.62614517  0.99254997  0.74551314  1
  O  O275  1  0.37268224  0.00899009  0.25079383  1
  O  O276  1  0.37241151  0.01085436  0.75777154  1
  O  O277  1  0.36832586  0.49217026  0.26110714  1
  O  O278  1  0.37884314  0.50917528  0.76462169  1
  O  O279  1  0.86760845  -0.00284535  0.25685250  1
  O  O280  1  0.87458309  0.00645100  0.75962860  1
  O  O281  1  0.86569311  0.49497607  0.26256256  1
  O  O282  1  0.86657548  0.51116575  0.75189935  1
  O  O283  1  0.12183098  0.36814311  0.36386095  1
  O  O284  1  0.11758569  0.36828115  0.86508448  1
  O  O285  1  0.11324496  0.88294108  0.37013998  1
  O  O286  1  0.11661361  0.87327161  0.86708525  1
  O  O287  1  0.63221701  0.36678692  0.37027407  1
  O  O288  1  0.60996676  0.36779461  0.87682061  1
  O  O289  1  0.61793117  0.86948648  0.37665223  1
  O  O290  1  0.63303887  0.86260167  0.86345181  1
  O  O291  1  0.37550592  0.12973699  0.13611482  1
  O  O292  1  0.38156801  0.13077302  0.63048979  1
  O  O293  1  0.38443617  0.63727541  0.11738694  1
  O  O294  1  0.36451587  0.62226698  0.64117741  1
  O  O295  1  0.88801682  0.11955396  0.12517497  1
  O  O296  1  0.86936233  0.12648335  0.63805521  1
  O  O297  1  0.88510404  0.63609014  0.11859008  1
  O  O298  1  0.88481704  0.62536875  0.63331930  1
  O  O299  1  0.26627190  0.24751192  0.12425460  1
  O  O300  1  0.25750611  0.25551107  0.61809895  1
  O  O301  1  0.26317340  0.73930470  0.11623901  1
  O  O302  1  0.25008485  0.76269076  0.61830132  1
  O  O303  1  0.74781554  0.25728703  0.11293153  1
  O  O304  1  0.75410769  0.26603498  0.62922859  1
  O  O305  1  0.75603573  0.75740917  0.12273925  1
  O  O306  1  0.75141254  0.75759805  0.61122061  1
  O  O307  1  0.24628507  0.24604546  0.37880707  1
  O  O308  1  0.23962425  0.24173527  0.87285447  1
  O  O309  1  0.25873629  0.73993288  0.38128369  1
  O  O310  1  0.24171922  0.74254681  0.88225545  1
  O  O311  1  0.73513221  0.24769294  0.37216559  1
  O  O312  1  0.74122131  0.24886091  0.88447868  1
  O  O313  1  0.74239723  0.75459737  0.38655130  1
  O  O314  1  0.74272829  0.74186911  0.88376407  1
  O  O315  1  -0.00381453  0.12634073  0.01284598  1
  O  O316  1  0.00895994  0.11318926  0.49522414  1
  O  O317  1  0.00338111  0.61627987  0.00507945  1
  O  O318  1  0.00192039  0.61562930  0.50568726  1
  O  O319  1  0.51279483  0.11916320  -0.00423522  1
  O  O320  1  0.50750854  0.12203324  0.51028852  1
  O  O321  1  0.50584027  0.61466678  0.00716130  1
  O  O322  1  0.49319108  0.61831880  0.50367326  1
  O  O323  1  0.48979397  0.37870838  0.50192321  1
  O  O324  1  0.50363541  0.38511843  0.99926011  1
  O  O325  1  0.49588176  0.88085807  0.49162322  1
  O  O326  1  0.50226534  0.87947422  0.99569774  1
  O  O327  1  0.99242919  0.38731548  0.49893736  1
  O  O328  1  0.99242754  0.37882477  0.99846565  1
  O  O329  1  1.00254925  0.88721846  0.48804647  1
  O  O330  1  0.99226636  0.87987491  0.99097461  1
  O  O331  1  0.49080763  0.50592669  0.38842753  1
  O  O332  1  0.49447627  0.48591343  0.88125496  1
  O  O333  1  0.49782234  0.99409034  0.38097932  1
  O  O334  1  0.48436330  1.00657620  0.87176041  1
  O  O335  1  0.99044486  0.49818326  0.37998977  1
  O  O336  1  0.99742991  0.49126585  0.88345884  1
  O  O337  1  0.99692856  0.99480194  0.37804817  1
  O  O338  1  0.99224734  0.99121972  0.87618615  1
  O  O339  1  0.00676411  0.01358775  0.12276143  1
  O  O340  1  0.00995953  -0.00476993  0.61442962  1
  O  O341  1  -0.00229258  0.50575323  0.11851101  1
  O  O342  1  0.00781092  0.50825661  0.61718749  1
  O  O343  1  0.51389220  -0.00506969  0.12740153  1
  O  O344  1  0.50560527  0.00870424  0.61898135  1
  O  O345  1  0.48980456  0.50713529  0.11445642  1
  O  O346  1  0.50132449  0.49931079  0.60916981  1
  O  O347  1  0.24337331  0.38345156  0.24760720  1
  O  O348  1  0.23681931  0.36939768  0.74270524  1
  O  O349  1  0.25504509  0.89208404  0.25350100  1
  O  O350  1  0.24149255  0.87733991  0.74080637  1
  O  O351  1  0.74464582  0.38124020  0.24283322  1
  O  O352  1  0.75857452  0.38455564  0.73720864  1
  O  O353  1  0.75204146  0.88183810  0.23958391  1
  O  O354  1  0.73999842  0.87101348  0.73639384  1
  O  O355  1  0.26181206  0.11593207  0.25489963  1
  O  O356  1  0.25911701  0.12214557  0.75706677  1
  O  O357  1  0.24753132  0.60940977  0.25490272  1
  O  O358  1  0.25196489  0.62819580  0.76342170  1
  O  O359  1  0.74902507  0.11537795  0.24962351  1
  O  O360  1  0.75836780  0.12306420  0.75842476  1
  O  O361  1  0.74775994  0.61149437  0.24234185  1
  O  O362  1  0.75741113  0.61618694  0.76086869  1
  O  O363  1  0.37313549  0.12081135  0.36766406  1
  O  O364  1  0.36918268  0.12038658  0.86713742  1
  O  O365  1  0.36320830  0.61191198  0.37855029  1
  O  O366  1  0.36488640  0.61808386  0.86820110  1
  O  O367  1  0.87395470  0.11084976  0.38099324  1
  O  O368  1  0.86970923  0.11730191  0.86871126  1
  O  O369  1  0.87852639  0.61165938  0.37737470  1
  O  O370  1  0.86972082  0.62319397  0.87121786  1
  O  O371  1  0.12658018  0.37409945  0.13619036  1
  O  O372  1  0.12837757  0.38135844  0.63032296  1
  O  O373  1  0.11544635  0.89837500  0.12560512  1
  O  O374  1  0.12938091  0.88231617  0.63017631  1
  O  O375  1  0.63832234  0.37193106  0.13207825  1
  O  O376  1  0.63947100  0.37861082  0.62277021  1
  O  O377  1  0.63490016  0.88164722  0.12910960  1
  O  O378  1  0.62995940  0.88100877  0.63042962  1
  O  O379  1  0.12518579  0.25398941  0.25471025  1
  O  O380  1  0.11684143  0.25693026  0.75404020  1
  O  O381  1  0.12232059  0.75467692  0.24260899  1
  O  O382  1  0.12785285  0.76288315  0.75544389  1
  O  O383  1  0.62516699  0.25916300  0.25852398  1
  O  O384  1  0.62826346  0.24470220  0.76517624  1
  O  O385  1  0.62444595  0.75437685  0.26482627  1
  O  O386  1  0.61718939  0.74955916  0.75397426  1
  O  O387  1  0.37906835  0.23747957  0.24576183  1
  O  O388  1  0.37083141  0.23884143  0.74397558  1
  O  O389  1  0.37614538  0.74917535  0.23771217  1
  O  O390  1  0.37441058  0.73731278  0.74753225  1
  O  O391  1  0.88608741  0.25350439  0.25541921  1
  O  O392  1  0.88248374  0.24209461  0.75032289  1
  O  O393  1  0.87952612  0.75449695  0.24044253  1
  O  O394  1  0.86535772  0.73408102  0.74616912  1
  O  O395  1  0.38317400  0.49417579  0.49442754  1
  O  O396  1  0.38501962  0.50603116  0.98441053  1
  O  O397  1  0.38117259  0.99594154  0.49514668  1
  O  O398  1  0.37653946  0.99860307  0.98538248  1
  O  O399  1  0.88040745  0.49463521  0.49052532  1
  O  O400  1  0.88431451  0.49302255  0.99853530  1
  O  O401  1  0.88499780  0.99756365  0.49456891  1
  O  O402  1  0.87453111  0.99480386  0.98766256  1
  O  O403  1  0.12671139  0.00280636  0.00963546  1
  O  O404  1  0.12097335  0.00647363  0.50647383  1
  O  O405  1  0.11080599  0.50279864  0.00012686  1
  O  O406  1  0.11547209  0.49854783  0.50574474  1
  O  O407  1  0.62815827  0.00904441  0.00881495  1
  O  O408  1  0.62070308  0.00974394  0.50515334  1
  O  O409  1  0.61327797  0.50845941  -0.00468123  1
  O  O410  1  0.61002385  0.50429453  0.50006335  1
  O  O411  1  0.37492057  0.35783853  0.13238599  1
  O  O412  1  0.36942748  0.37282382  0.61935149  1
  O  O413  1  0.37809950  0.85680007  0.12033037  1
  O  O414  1  0.36619692  0.87683381  0.62015496  1
  O  O415  1  0.86511712  0.37655045  0.11309530  1
  O  O416  1  0.86695152  0.37784124  0.61568942  1
  O  O417  1  0.87131998  0.87012056  0.12028478  1
  O  O418  1  0.86689820  0.87386158  0.62353814  1
  O  O419  1  0.13325642  0.13044915  0.37865886  1
  O  O420  1  0.13379794  0.13250959  0.86528308  1
  O  O421  1  0.14106214  0.61731736  0.37830747  1
  O  O422  1  0.12780966  0.62862963  0.87824297  1
  O  O423  1  0.63049613  0.13303409  0.38525959  1
  O  O424  1  0.63006952  0.13106384  0.88203810  1
  O  O425  1  0.62305655  0.63788575  0.37413092  1
  O  O426  1  0.62841723  0.63245621  0.88675565  1
