# generated using pymatgen
data_V85Zn86O256
_symmetry_space_group_name_H-M   'P 1'
_cell_length_a   16.93453830
_cell_length_b   16.93689350
_cell_length_c   16.94540187
_cell_angle_alpha   89.90030840
_cell_angle_beta   89.98917855
_cell_angle_gamma   90.02282054
_symmetry_Int_Tables_number   1
_chemical_formula_structural   V85Zn86O256
_chemical_formula_sum   'V85 Zn86 O256'
_cell_volume   4860.24643471
_cell_formula_units_Z   1
loop_
 _symmetry_equiv_pos_site_id
 _symmetry_equiv_pos_as_xyz
  1  'x, y, z'
loop_
 _atom_site_type_symbol
 _atom_site_label
 _atom_site_symmetry_multiplicity
 _atom_site_fract_x
 _atom_site_fract_y
 _atom_site_fract_z
 _atom_site_occupancy
  V  V0  1  0.74503947  -0.00685698  0.24984192  1
  V  V1  1  0.50228519  0.87509962  0.87669870  1
  V  V2  1  0.87659349  0.87271271  0.49635912  1
  V  V3  1  0.12370089  0.86962430  0.73643484  1
  V  V4  1  0.50030700  0.24919023  0.74995098  1
  V  V5  1  0.25483685  0.50234387  0.74526969  1
  V  V6  1  0.62416790  0.87070984  0.74887925  1
  V  V7  1  0.88139547  0.23846169  0.63188843  1
  V  V8  1  0.25136147  0.74826351  0.00568335  1
  V  V9  1  0.25222542  0.87204562  0.13609622  1
  V  V10  1  0.62777830  0.12636822  0.00313750  1
  V  V11  1  0.62808720  0.25005106  0.87537556  1
  V  V12  1  0.38317410  0.37963917  0.49767241  1
  V  V13  1  0.38153754  0.50985035  0.37468431  1
  V  V14  1  -0.00310107  0.25776711  0.25306221  1
  V  V15  1  0.48978317  0.76243867  0.24634029  1
  V  V16  1  0.62632154  0.75767397  0.36406040  1
  V  V17  1  0.75810431  0.12635944  0.87298554  1
  V  V18  1  0.87174871  0.13122959  0.24534080  1
  V  V19  1  0.51960300  0.58986876  0.15968255  1
  V  V20  1  0.85969073  0.62364225  0.24857723  1
  V  V21  1  0.50175949  0.12698577  0.62412811  1
  V  V22  1  0.49674814  0.00295253  0.49311584  1
  V  V23  1  0.12360076  0.38384409  0.24749594  1
  V  V24  1  0.00305089  0.49447380  0.48811146  1
  V  V25  1  -0.00135268  0.74625840  0.74957560  1
  V  V26  1  -0.00263775  0.13005805  0.12682092  1
  V  V27  1  0.25018136  0.38141356  0.11749093  1
  V  V28  1  0.12304301  0.61160342  0.00441043  1
  V  V29  1  0.62536860  0.73965765  0.87945358  1
  V  V30  1  0.37454849  0.11973789  0.25465150  1
  V  V31  1  0.37235429  0.48865156  0.88283443  1
  V  V32  1  0.74980263  0.87275786  0.62438561  1
  V  V33  1  0.00237259  0.60760829  0.12506119  1
  V  V34  1  0.37471767  0.25450421  0.62437370  1
  V  V35  1  0.12208908  0.25617504  0.37563175  1
  V  V36  1  0.74660959  0.74740415  0.49376402  1
  V  V37  1  0.00536938  0.00336925  0.49737270  1
  V  V38  1  0.88347964  0.75921299  0.11727321  1
  V  V39  1  0.62381582  0.37375163  0.74874982  1
  V  V40  1  0.88851401  0.36972503  0.00781405  1
  V  V41  1  0.12247624  0.74794567  0.87890999  1
  V  V42  1  0.24067412  0.38094129  0.62178368  1
  V  V43  1  0.37361227  0.25475051  0.11792453  1
  V  V44  1  0.75318989  0.37493307  0.62279352  1
  V  V45  1  0.88135962  0.37370694  0.48956286  1
  V  V46  1  0.00393023  0.87586760  0.36627348  1
  V  V47  1  -0.00329415  -0.00703726  0.00657460  1
  V  V48  1  0.25721972  0.62368448  0.87429404  1
  V  V49  1  0.74488373  0.87316071  0.11856929  1
  V  V50  1  0.62705685  0.00170657  0.62368423  1
  V  V51  1  0.12685957  0.75361096  0.36717342  1
  V  V52  1  -0.00034627  0.61438491  0.62163882  1
  V  V53  1  0.24926906  0.25253946  0.49740145  1
  V  V54  1  0.25358478  0.75267859  0.49913815  1
  V  V55  1  0.13054134  0.12390363  0.00698006  1
  V  V56  1  0.25081612  0.12027268  0.37650459  1
  V  V57  1  0.25144600  -0.00028691  0.73705074  1
  V  V58  1  0.24857847  0.12087865  0.87612852  1
  V  V59  1  0.51990509  0.50104359  -0.00571144  1
  V  V60  1  0.75688653  0.00103157  0.75024917  1
  V  V61  1  0.12654171  -0.00602162  0.13757213  1
  V  V62  1  0.12646609  0.62140866  0.49928018  1
  V  V63  1  0.11686412  0.38009927  0.75576699  1
  V  V64  1  0.00021330  0.87344745  0.87698490  1
  V  V65  1  0.30826314  0.81763796  0.66632003  1
  V  V66  1  0.62747756  0.25813946  0.36885517  1
  V  V67  1  0.87204418  -0.00896382  0.88291237  1
  V  V68  1  0.87488937  0.62056464  0.75023478  1
  V  V69  1  0.50051827  0.12787914  0.12618159  1
  V  V70  1  0.75099977  0.50054333  0.74937184  1
  V  V71  1  0.25517996  0.50461092  0.24786322  1
  V  V72  1  0.87348646  0.74282160  0.62269414  1
  V  V73  1  0.89140448  0.49096303  0.87985025  1
  V  V74  1  0.61361414  0.50108368  0.62096894  1
  V  V75  1  0.07130234  0.05002681  0.67190708  1
  V  V76  1  0.75013522  0.12517771  0.37270347  1
  V  V77  1  0.49935594  0.25698051  0.24997197  1
  V  V78  1  0.61858414  0.62711525  0.49926564  1
  V  V79  1  0.37032189  0.88096281  0.49140014  1
  V  V80  1  0.37472567  0.12492226  0.75073716  1
  V  V81  1  0.48800922  0.63361903  0.62963650  1
  V  V82  1  0.75195540  0.24924788  0.49916969  1
  V  V83  1  0.74252312  0.38253137  0.12824113  1
  V  V84  1  0.49867616  0.00063362  0.00153704  1
  Zn  Zn85  1  0.37349441  -0.00182176  0.87669630  1
  Zn  Zn86  1  0.75213526  0.74510647  -0.00116580  1
  Zn  Zn87  1  0.62277039  0.41213898  0.24084167  1
  Zn  Zn88  1  0.75816915  0.24925640  0.01188668  1
  Zn  Zn89  1  0.25354476  0.25330383  -0.00355312  1
  Zn  Zn90  1  0.62473790  0.12662216  0.49853910  1
  Zn  Zn91  1  0.50340674  0.38139996  0.37679341  1
  Zn  Zn92  1  0.00233380  0.74995502  0.24766750  1
  Zn  Zn93  1  0.12145076  0.12558553  0.50279966  1
  Zn  Zn94  1  0.25284919  0.62721769  0.36979124  1
  Zn  Zn95  1  0.37859187  0.86961935  0.00526386  1
  Zn  Zn96  1  0.11922803  0.25434690  0.87880280  1
  Zn  Zn97  1  0.62173608  -0.00421364  0.13148370  1
  Zn  Zn98  1  0.86428144  0.50007675  0.36343861  1
  Zn  Zn99  1  0.25056466  -0.00510873  0.25925985  1
  Zn  Zn100  1  -0.00125961  0.24946386  0.74970719  1
  Zn  Zn101  1  0.87523668  -0.00109920  0.37420521  1
  Zn  Zn102  1  0.37987156  0.72934248  0.12655148  1
  Zn  Zn103  1  0.74578598  0.61347996  0.88427198  1
  Zn  Zn104  1  0.50199387  0.88429594  0.37243009  1
  Zn  Zn105  1  0.48249942  0.74940788  0.74968322  1
  Zn  Zn106  1  0.49062158  0.36729713  0.87882608  1
  Zn  Zn107  1  0.18815092  0.19110944  0.19012326  1
  Zn  Zn108  1  0.19014753  0.19652477  0.69151596  1
  Zn  Zn109  1  0.18523329  0.68474295  0.18628725  1
  Zn  Zn110  1  0.18069609  0.67827620  0.68818449  1
  Zn  Zn111  1  0.68965357  0.19588724  0.18462457  1
  Zn  Zn112  1  0.69179370  0.18628882  0.68815561  1
  Zn  Zn113  1  0.68301938  0.68840363  0.18043632  1
  Zn  Zn114  1  0.68537772  0.68504685  0.68757441  1
  Zn  Zn115  1  0.31217213  0.31514502  0.31042106  1
  Zn  Zn116  1  0.30435207  0.31042044  0.81071419  1
  Zn  Zn117  1  0.31460597  0.81399799  0.31553741  1
  Zn  Zn118  1  0.30872471  0.81768424  0.83168887  1
  Zn  Zn119  1  0.80770747  0.31669652  0.30256471  1
  Zn  Zn120  1  0.81580355  0.31408523  0.81293093  1
  Zn  Zn121  1  0.81467041  0.80883463  0.30774217  1
  Zn  Zn122  1  0.81158264  0.81032858  0.81360223  1
  Zn  Zn123  1  0.19054453  0.43924149  0.43275392  1
  Zn  Zn124  1  0.18642818  0.43670755  0.93520684  1
  Zn  Zn125  1  0.18480124  0.93662158  0.44328850  1
  Zn  Zn126  1  0.18546611  0.93704163  0.93864042  1
  Zn  Zn127  1  0.68753317  0.44057445  0.43333231  1
  Zn  Zn128  1  0.69715568  0.43066148  0.93829393  1
  Zn  Zn129  1  0.68666209  0.93735211  0.43751031  1
  Zn  Zn130  1  0.68490306  0.93535881  0.94117746  1
  Zn  Zn131  1  0.31464916  0.06043352  0.06838298  1
  Zn  Zn132  1  0.31401803  0.06643823  0.55944366  1
  Zn  Zn133  1  0.32897502  0.56438802  0.06847356  1
  Zn  Zn134  1  0.31070983  0.56172220  0.55756291  1
  Zn  Zn135  1  0.81285167  0.06090108  0.06389126  1
  Zn  Zn136  1  0.81528374  0.06063231  0.55812548  1
  Zn  Zn137  1  0.81279572  0.56317025  0.06003497  1
  Zn  Zn138  1  0.79565441  0.54679448  0.52929923  1
  Zn  Zn139  1  0.43606649  0.43672666  0.18489911  1
  Zn  Zn140  1  0.43409160  0.43860129  0.69057855  1
  Zn  Zn141  1  0.43529833  0.93700729  0.18679755  1
  Zn  Zn142  1  0.44315355  0.94354588  0.68768249  1
  Zn  Zn143  1  0.93156708  0.43786549  0.18630502  1
  Zn  Zn144  1  0.93583622  0.43763227  0.67903441  1
  Zn  Zn145  1  0.93103357  0.94014447  0.18958219  1
  Zn  Zn146  1  0.93154695  0.93071877  0.68985616  1
  Zn  Zn147  1  0.06238366  0.06777963  0.31587237  1
  Zn  Zn148  1  0.03621587  0.09482924  0.84275656  1
  Zn  Zn149  1  0.05997593  0.56524797  0.31189848  1
  Zn  Zn150  1  0.06887730  0.56164787  0.81196195  1
  Zn  Zn151  1  0.56588437  0.06906767  0.31159875  1
  Zn  Zn152  1  0.56704534  0.06170780  0.81337992  1
  Zn  Zn153  1  0.55787807  0.57509334  0.32588435  1
  Zn  Zn154  1  0.55432876  0.56051896  0.80743568  1
  Zn  Zn155  1  0.43716231  0.19073343  0.43599569  1
  Zn  Zn156  1  0.43735400  0.18577846  0.93713287  1
  Zn  Zn157  1  0.44018466  0.69312580  0.43900935  1
  Zn  Zn158  1  0.43770898  0.68372425  0.93723250  1
  Zn  Zn159  1  0.93703858  0.18757294  0.43644701  1
  Zn  Zn160  1  0.93676078  0.18753062  0.94133432  1
  Zn  Zn161  1  0.93768943  0.68584475  0.43209919  1
  Zn  Zn162  1  0.93440907  0.67837307  0.94049106  1
  Zn  Zn163  1  0.06611925  0.31193015  0.06717023  1
  Zn  Zn164  1  0.06102484  0.31176127  0.56447926  1
  Zn  Zn165  1  0.06787910  0.81206865  0.06329345  1
  Zn  Zn166  1  0.05953828  0.80668011  0.55506443  1
  Zn  Zn167  1  0.56203903  0.32015845  0.05944627  1
  Zn  Zn168  1  0.56489531  0.31206473  0.56036982  1
  Zn  Zn169  1  0.56609148  0.81061070  0.06303841  1
  Zn  Zn170  1  0.55727919  0.81297226  0.56114317  1
  O  O171  1  0.12046615  0.11777590  0.12287733  1
  O  O172  1  0.12765001  0.12207167  0.62404195  1
  O  O173  1  0.11098084  0.62923567  0.11808673  1
  O  O174  1  0.11417843  0.63075129  0.60825100  1
  O  O175  1  0.61980148  0.12598098  0.11705468  1
  O  O176  1  0.62111124  0.12053199  0.62240267  1
  O  O177  1  0.59775142  0.63799945  0.11993508  1
  O  O178  1  0.61568708  0.61822566  0.62181460  1
  O  O179  1  0.37669283  0.38127742  0.38297423  1
  O  O180  1  0.36970014  0.38428841  0.87141149  1
  O  O181  1  0.37721882  0.87997998  0.38760628  1
  O  O182  1  0.38967149  0.87795033  0.88307510  1
  O  O183  1  0.86778797  0.37489617  0.38673422  1
  O  O184  1  0.87456699  0.38435975  0.88188933  1
  O  O185  1  0.88203172  0.87383465  0.38095918  1
  O  O186  1  0.88141381  0.88397602  0.87220113  1
  O  O187  1  0.24176569  0.01550491  0.37733277  1
  O  O188  1  0.25190642  0.00228550  0.86460712  1
  O  O189  1  0.26115092  0.50260449  0.36630903  1
  O  O190  1  0.25731734  0.50393754  0.86969278  1
  O  O191  1  0.75062233  0.00772609  0.36877200  1
  O  O192  1  0.75459512  0.00130436  0.87134844  1
  O  O193  1  0.76764597  0.51457992  0.41943417  1
  O  O194  1  0.75592280  0.49502869  0.85844576  1
  O  O195  1  0.26310531  0.49221241  0.13309124  1
  O  O196  1  0.25430044  0.49335186  0.63204350  1
  O  O197  1  0.24226414  0.99136355  0.12808295  1
  O  O198  1  0.25373105  1.00555295  0.63724742  1
  O  O199  1  0.75756315  0.48246091  0.11779136  1
  O  O200  1  0.74345313  0.49168458  0.63040568  1
  O  O201  1  0.75032222  0.98832601  0.13047838  1
  O  O202  1  0.74826097  0.99456646  0.63196952  1
  O  O203  1  0.00546768  0.36553787  0.24233522  1
  O  O204  1  0.01510397  0.37784611  0.74086422  1
  O  O205  1  -0.00595492  0.87547775  0.26291064  1
  O  O206  1  0.00640274  0.86801465  0.75606558  1
  O  O207  1  0.50339226  0.36427428  0.24931027  1
  O  O208  1  0.50632827  0.36703917  0.75298072  1
  O  O209  1  0.49749176  0.86932161  0.25635599  1
  O  O210  1  0.50735748  0.87480474  0.75774342  1
  O  O211  1  0.49379458  0.13565742  0.24710104  1
  O  O212  1  0.49638878  0.12867345  0.74540033  1
  O  O213  1  0.50226442  0.64762903  0.25059621  1
  O  O214  1  0.49695089  0.63027942  0.73584756  1
  O  O215  1  0.99144535  0.13140050  0.24571438  1
  O  O216  1  1.01091402  0.10325920  0.73078168  1
  O  O217  1  1.00044842  0.62852597  0.23438632  1
  O  O218  1  0.99909870  0.62708425  0.74096231  1
  O  O219  1  0.37478877  0.24407949  0.01359125  1
  O  O220  1  0.36872699  0.25915538  0.50441359  1
  O  O221  1  0.36754928  0.74702336  0.00493620  1
  O  O222  1  0.36200142  0.75947269  0.49710612  1
  O  O223  1  0.87429657  0.26479806  -0.00854829  1
  O  O224  1  0.87144588  0.25563318  0.50730717  1
  O  O225  1  0.87653415  0.74863796  0.01403754  1
  O  O226  1  0.86603972  0.75123347  0.50109110  1
  O  O227  1  0.12926501  0.24953907  0.49290003  1
  O  O228  1  0.12564480  0.23409952  1.00065473  1
  O  O229  1  0.13560994  0.74523550  0.49100927  1
  O  O230  1  0.13355176  0.74204066  0.99627074  1
  O  O231  1  0.63233401  0.25219564  0.48633400  1
  O  O232  1  0.62480145  0.23983594  0.99182020  1
  O  O233  1  0.62947307  0.74871012  0.49400855  1
  O  O234  1  0.62342700  0.75270110  0.98201284  1
  O  O235  1  0.49486371  0.24792101  0.13083106  1
  O  O236  1  0.49615888  0.24626706  0.62996619  1
  O  O237  1  0.49687567  0.76575446  0.14130814  1
  O  O238  1  0.50047466  0.73929650  0.63039496  1
  O  O239  1  1.00700990  0.23558070  0.13587111  1
  O  O240  1  0.98606932  0.24848278  0.62727434  1
  O  O241  1  0.99091683  0.75490488  0.12719593  1
  O  O242  1  0.99236922  0.73950094  0.62750662  1
  O  O243  1  0.00797678  0.24526126  0.36382265  1
  O  O244  1  0.01059414  0.21092527  0.85935588  1
  O  O245  1  0.00903910  0.75860678  0.37435767  1
  O  O246  1  0.00233551  0.75168809  0.87094392  1
  O  O247  1  0.50874041  0.25451800  0.36790391  1
  O  O248  1  0.50905589  0.24724112  0.86858897  1
  O  O249  1  0.50857130  0.75656311  0.36632876  1
  O  O250  1  0.50678582  0.75609696  0.86970126  1
  O  O251  1  0.24837192  0.13458183  0.49326319  1
  O  O252  1  0.24548549  0.12179758  0.99595623  1
  O  O253  1  0.24189725  0.63295215  0.49738995  1
  O  O254  1  0.24673745  0.63181717  0.99910100  1
  O  O255  1  0.74997814  0.13077091  0.48954995  1
  O  O256  1  0.74351274  0.12721386  0.99505824  1
  O  O257  1  0.73468195  0.64425619  0.51553734  1
  O  O258  1  0.75522295  0.63093899  0.99474302  1
  O  O259  1  0.24101651  0.37174227  0.01323024  1
  O  O260  1  0.25543769  0.37162176  0.50595919  1
  O  O261  1  0.25009769  0.86056763  0.00415719  1
  O  O262  1  0.25689240  0.86864728  0.50405727  1
  O  O263  1  0.76037502  0.36932590  0.00850076  1
  O  O264  1  0.75557997  0.36769044  0.51035345  1
  O  O265  1  0.74971205  0.87264754  0.01380441  1
  O  O266  1  0.75527919  0.86693766  0.50506277  1
  O  O267  1  0.13115374  0.48840539  0.26001873  1
  O  O268  1  0.13751083  0.48813150  0.75371407  1
  O  O269  1  0.12633283  1.00596619  0.24002396  1
  O  O270  1  0.12968499  0.99076435  0.73962560  1
  O  O271  1  0.57359404  0.51942810  0.22855877  1
  O  O272  1  0.63159011  0.49323348  0.74353500  1
  O  O273  1  0.64003776  1.00802667  0.24843204  1
  O  O274  1  0.63383986  0.98922689  0.74633666  1
  O  O275  1  0.37359002  0.01586395  0.24769004  1
  O  O276  1  0.36858706  0.00650090  0.75215645  1
  O  O277  1  0.36976798  0.49401356  0.26506284  1
  O  O278  1  0.36146392  0.49619256  0.76040088  1
  O  O279  1  0.86489581  0.01356789  0.25280748  1
  O  O280  1  0.86274060  -0.00586565  0.75843385  1
  O  O281  1  0.87713047  0.51713005  0.24843480  1
  O  O282  1  0.86882578  0.49925743  0.75395637  1
  O  O283  1  0.13100320  0.36299741  0.36620577  1
  O  O284  1  0.12675083  0.37193336  0.86113172  1
  O  O285  1  0.11641314  0.86655692  0.38082027  1
  O  O286  1  0.11997636  0.86817330  0.86588140  1
  O  O287  1  0.62404578  0.37450534  0.36532744  1
  O  O288  1  0.63069033  0.35897770  0.86888136  1
  O  O289  1  0.62173409  0.86167632  0.38077591  1
  O  O290  1  0.61674065  0.86995309  0.86873266  1
  O  O291  1  0.38126717  0.13302450  0.13383093  1
  O  O292  1  0.38044910  0.13433403  0.63141850  1
  O  O293  1  0.41359802  0.61647347  0.12859673  1
  O  O294  1  0.39053032  0.61936163  0.61638506  1
  O  O295  1  0.88471884  0.12135451  0.13293793  1
  O  O296  1  0.86601901  0.14047963  0.62305004  1
  O  O297  1  0.88806711  0.63308690  0.12902147  1
  O  O298  1  0.88246433  0.62742763  0.63115050  1
  O  O299  1  0.25855930  0.25683221  0.12436822  1
  O  O300  1  0.25640905  0.25940417  0.61858696  1
  O  O301  1  0.25526157  0.75281971  0.12221071  1
  O  O302  1  0.24738193  0.74642373  0.61887793  1
  O  O303  1  0.75262803  0.26707966  0.12608533  1
  O  O304  1  0.75579500  0.25706133  0.62083131  1
  O  O305  1  0.75775631  0.76099983  0.12393976  1
  O  O306  1  0.75373501  0.75671389  0.62073566  1
  O  O307  1  0.24358021  0.24508383  0.37924095  1
  O  O308  1  0.24428021  0.23725744  0.87775078  1
  O  O309  1  0.24467019  0.74840270  0.38133298  1
  O  O310  1  0.24402180  0.74112140  0.88491916  1
  O  O311  1  0.74446158  0.24595115  0.37575528  1
  O  O312  1  0.74553374  0.23963884  0.87301814  1
  O  O313  1  0.73855510  0.75568431  0.38134778  1
  O  O314  1  0.73507537  0.75149346  0.87482437  1
  O  O315  1  0.00656259  0.11483736  0.01058879  1
  O  O316  1  -0.00069232  0.11067781  0.49515842  1
  O  O317  1  0.00861629  0.62828185  0.01449967  1
  O  O318  1  0.00453978  0.61880187  0.50365969  1
  O  O319  1  0.50780103  0.11939979  0.00404014  1
  O  O320  1  0.50039882  0.12159866  0.50626973  1
  O  O321  1  0.49698295  0.60076460  -0.01444397  1
  O  O322  1  0.51101772  0.63496922  0.51212998  1
  O  O323  1  0.48667717  0.37231328  0.50078768  1
  O  O324  1  0.50324161  0.38960341  0.99064147  1
  O  O325  1  0.49091231  0.88572850  0.49960381  1
  O  O326  1  0.50363974  0.88368553  0.99419312  1
  O  O327  1  0.99485734  0.38175953  0.50147052  1
  O  O328  1  0.98884073  0.36955489  1.00571106  1
  O  O329  1  0.99469126  0.88076375  0.49065426  1
  O  O330  1  1.00906564  0.88692871  0.99427996  1
  O  O331  1  0.48572365  0.49954889  0.37837116  1
  O  O332  1  0.48563993  0.49411279  0.87417509  1
  O  O333  1  0.50865883  1.00526683  0.38913979  1
  O  O334  1  0.50180992  0.99286913  0.88232268  1
  O  O335  1  0.98936739  0.50600470  0.38618871  1
  O  O336  1  0.98930848  0.49888633  0.86792451  1
  O  O337  1  0.99934619  0.99374323  0.38062831  1
  O  O338  1  0.99040838  0.99768028  0.88577970  1
  O  O339  1  0.00589234  0.00435031  0.12288155  1
  O  O340  1  0.00218730  -0.00666365  0.61807035  1
  O  O341  1  0.00019900  0.50951881  0.12463627  1
  O  O342  1  0.00265571  0.51087133  0.61788657  1
  O  O343  1  0.50287062  0.00709852  0.11874201  1
  O  O344  1  0.50754349  0.00852109  0.61698566  1
  O  O345  1  0.49863930  0.49409569  0.10321823  1
  O  O346  1  0.50940061  0.50709691  0.63202807  1
  O  O347  1  0.24286667  0.38435808  0.24323200  1
  O  O348  1  0.24161868  0.38101593  0.74054917  1
  O  O349  1  0.25316417  0.87692910  0.24159985  1
  O  O350  1  0.24601073  0.87768973  0.74243094  1
  O  O351  1  0.74237175  0.38253935  0.23777977  1
  O  O352  1  0.74550757  0.37848188  0.73838221  1
  O  O353  1  0.75815399  0.88455170  0.23871366  1
  O  O354  1  0.74355625  0.88068110  0.74484831  1
  O  O355  1  0.25801024  0.12633969  0.25869220  1
  O  O356  1  0.25164888  0.11788052  0.75756266  1
  O  O357  1  0.24522860  0.60945253  0.24909334  1
  O  O358  1  0.24062709  0.61455659  0.76114125  1
  O  O359  1  0.75584205  0.12269807  0.25362632  1
  O  O360  1  0.74341834  0.11218770  0.76105171  1
  O  O361  1  0.76047325  0.62667009  0.23826056  1
  O  O362  1  0.75615540  0.61469670  0.74991179  1
  O  O363  1  0.36425755  0.13425418  0.36668599  1
  O  O364  1  0.36450511  0.12269209  0.86991401  1
  O  O365  1  0.37450695  0.61347625  0.38229581  1
  O  O366  1  0.36137623  0.61623916  0.87509860  1
  O  O367  1  0.86266595  0.12526469  0.36798240  1
  O  O368  1  0.86327127  0.11071828  0.88148505  1
  O  O369  1  0.87741686  0.63298209  0.35088347  1
  O  O370  1  0.87491508  0.60873787  0.86759302  1
  O  O371  1  0.13578204  0.37022095  0.13758698  1
  O  O372  1  0.13646129  0.37230275  0.63146225  1
  O  O373  1  0.13691230  0.88322062  0.12207129  1
  O  O374  1  0.11836475  0.86334348  0.63715911  1
  O  O375  1  0.63578170  0.37661568  0.12662806  1
  O  O376  1  0.63115100  0.38202505  0.62682038  1
  O  O377  1  0.64031778  0.87605908  0.12524063  1
  O  O378  1  0.62822374  0.87960379  0.63225135  1
  O  O379  1  0.11721020  0.25812296  0.25685152  1
  O  O380  1  0.12208924  0.26528463  0.75112361  1
  O  O381  1  0.12535597  0.74722273  0.26337732  1
  O  O382  1  0.11900874  0.75306203  0.75726509  1
  O  O383  1  0.61636603  0.24572965  0.26122330  1
  O  O384  1  0.62131818  0.25292468  0.75589024  1
  O  O385  1  0.62067519  0.75020113  0.26135781  1
  O  O386  1  0.62588187  0.76250096  0.75645139  1
  O  O387  1  0.38274829  0.24421401  0.24306919  1
  O  O388  1  0.37890194  0.24479513  0.74524305  1
  O  O389  1  0.38654879  0.75157729  0.25010037  1
  O  O390  1  0.36331249  0.76768067  0.74129390  1
  O  O391  1  0.88246593  0.24042692  0.25511548  1
  O  O392  1  0.87746290  0.25230830  0.73695496  1
  O  O393  1  0.87722606  0.74098650  0.23487831  1
  O  O394  1  0.88025236  0.74211347  0.74597203  1
  O  O395  1  0.36679579  0.49088725  0.48520689  1
  O  O396  1  0.37035578  0.49719082  0.98315891  1
  O  O397  1  0.38478299  0.99484908  0.50513695  1
  O  O398  1  0.38925229  1.00164874  0.99923480  1
  O  O399  1  0.89131063  0.48419096  0.51439522  1
  O  O400  1  0.87608244  0.48779383  0.98537616  1
  O  O401  1  0.88367072  0.99083113  0.49752945  1
  O  O402  1  0.88415854  0.99962265  0.99542971  1
  O  O403  1  0.11900810  0.00783582  0.01064856  1
  O  O404  1  0.11242150  0.00237394  0.50355840  1
  O  O405  1  0.12860193  0.51262448  -0.00334197  1
  O  O406  1  0.11811095  0.50878458  0.49152869  1
  O  O407  1  0.61673712  0.01145703  0.00090496  1
  O  O408  1  0.61959775  0.00210883  0.50827110  1
  O  O409  1  0.61851831  0.50152395  -0.01797976  1
  O  O410  1  0.62581619  0.51268583  0.51059612  1
  O  O411  1  0.36414792  0.36460860  0.13074960  1
  O  O412  1  0.36694791  0.37284334  0.61816866  1
  O  O413  1  0.36299674  0.87563686  0.12083290  1
  O  O414  1  0.37646984  0.87819189  0.61662486  1
  O  O415  1  0.87096072  0.37564242  0.11162723  1
  O  O416  1  0.86687456  0.36469242  0.61786726  1
  O  O417  1  0.86799615  0.86440498  0.12682069  1
  O  O418  1  0.87025110  0.86447948  0.61690963  1
  O  O419  1  0.13319152  0.13867765  0.37539264  1
  O  O420  1  0.13978067  0.11496841  0.88892718  1
  O  O421  1  0.12431169  0.63438305  0.38443629  1
  O  O422  1  0.13300420  0.62950458  0.88388163  1
  O  O423  1  0.63720250  0.13558379  0.37632957  1
  O  O424  1  0.63479902  0.13148130  0.88131727  1
  O  O425  1  0.62246032  0.64267881  0.38818554  1
  O  O426  1  0.62433655  0.63839633  0.86104702  1
