# generated using pymatgen
data_V85Zn86O256
_symmetry_space_group_name_H-M   'P 1'
_cell_length_a   16.93554253
_cell_length_b   16.94056807
_cell_length_c   16.94073818
_cell_angle_alpha   89.95457964
_cell_angle_beta   90.10645236
_cell_angle_gamma   89.96854162
_symmetry_Int_Tables_number   1
_chemical_formula_structural   V85Zn86O256
_chemical_formula_sum   'V85 Zn86 O256'
_cell_volume   4860.24835593
_cell_formula_units_Z   1
loop_
 _symmetry_equiv_pos_site_id
 _symmetry_equiv_pos_as_xyz
  1  'x, y, z'
loop_
 _atom_site_type_symbol
 _atom_site_label
 _atom_site_symmetry_multiplicity
 _atom_site_fract_x
 _atom_site_fract_y
 _atom_site_fract_z
 _atom_site_occupancy
  V  V0  1  0.87110647  0.00105735  0.37751989  1
  V  V1  1  0.74992336  -0.00803463  0.75577580  1
  V  V2  1  0.37473039  0.12596795  0.25013367  1
  V  V3  1  0.12109602  0.12191108  -0.00594234  1
  V  V4  1  0.25643273  0.00187042  0.76359923  1
  V  V5  1  0.39022888  0.38334170  -0.00437937  1
  V  V6  1  0.12718220  0.86676734  0.24365604  1
  V  V7  1  0.12511382  0.12653849  0.49785497  1
  V  V8  1  0.76182921  0.87022630  0.11951895  1
  V  V9  1  0.25756127  0.61853786  0.87528936  1
  V  V10  1  0.13055764  0.49616429  0.62645702  1
  V  V11  1  0.37643224  0.87522312  0.49917859  1
  V  V12  1  0.24920034  0.12702305  0.37379965  1
  V  V13  1  0.37138010  0.76359392  0.12171806  1
  V  V14  1  0.12699221  0.62225015  0.49792256  1
  V  V15  1  0.37175325  0.12919771  0.76606911  1
  V  V16  1  0.25049328  0.74895254  0.49889498  1
  V  V17  1  0.24771190  0.50014985  0.24981559  1
  V  V18  1  0.75629959  0.24818325  0.00290641  1
  V  V19  1  0.86726952  0.37873507  -0.00304344  1
  V  V20  1  -0.00292528  0.49352631  0.49847534  1
  V  V21  1  0.37775156  0.25084129  0.12714546  1
  V  V22  1  0.50375883  0.61269909  0.61902111  1
  V  V23  1  0.49615208  0.87911680  0.87336162  1
  V  V24  1  0.62839113  0.74667874  0.37201769  1
  V  V25  1  -0.00688837  0.37692014  0.35837359  1
  V  V26  1  0.75037904  0.74126640  0.49716099  1
  V  V27  1  0.62738709  0.13675162  0.49939676  1
  V  V28  1  -0.00379379  0.50113200  -0.00822884  1
  V  V29  1  0.62528347  -0.00989013  0.12559068  1
  V  V30  1  0.25199033  0.87666905  0.62538866  1
  V  V31  1  0.11589197  0.00063231  0.12599371  1
  V  V32  1  0.07462293  0.80658335  0.93242863  1
  V  V33  1  0.75741475  0.49654685  0.75152388  1
  V  V34  1  0.12725447  0.00089555  0.62482297  1
  V  V35  1  0.11870930  0.25382983  0.36739240  1
  V  V36  1  0.88898192  -0.01317969  0.88804909  1
  V  V37  1  -0.00805678  0.37305066  0.87275679  1
  V  V38  1  0.50252811  0.12193742  0.12531542  1
  V  V39  1  0.00641197  0.74980202  0.75078884  1
  V  V40  1  0.62581932  0.12024830  -0.00055266  1
  V  V41  1  0.12832557  0.37314160  0.75216075  1
  V  V42  1  0.62290742  0.61541147  0.49838004  1
  V  V43  1  0.50239697  0.00070171  0.50137004  1
  V  V44  1  0.25352183  0.25240376  0.50381996  1
  V  V45  1  0.86415618  0.24976201  0.61871138  1
  V  V46  1  0.37418572  0.62665912  0.24681662  1
  V  V47  1  0.50531113  0.36556631  0.37494979  1
  V  V48  1  0.24843321  -0.00392228  0.24424254  1
  V  V49  1  0.61859754  0.25408012  0.87307569  1
  V  V50  1  0.00141500  0.62297604  0.62578865  1
  V  V51  1  0.87905459  0.13343408  0.24808911  1
  V  V52  1  0.38477475  0.49997012  0.37589828  1
  V  V53  1  0.62378118  0.00071856  0.63092249  1
  V  V54  1  0.26036833  0.75989887  -0.00563422  1
  V  V55  1  0.25086442  0.24538992  -0.00683737  1
  V  V56  1  0.48829604  0.13101133  0.62612670  1
  V  V57  1  -0.00039487  -0.00124898  0.50118214  1
  V  V58  1  0.74508423  -0.00535739  0.25206440  1
  V  V59  1  0.87433915  0.87411427  0.50111602  1
  V  V60  1  0.25087286  0.37460057  0.12280375  1
  V  V61  1  0.51608552  0.75785501  0.74646950  1
  V  V62  1  0.48347207  -0.00551844  -0.00225420  1
  V  V63  1  0.74790301  0.51307861  0.25105166  1
  V  V64  1  0.00012929  0.24854611  0.74845519  1
  V  V65  1  0.87544731  0.12236132  0.75300423  1
  V  V66  1  0.37973016  0.74946634  0.62817497  1
  V  V67  1  0.12340831  0.87420055  0.75077388  1
  V  V68  1  0.62736266  0.63467030  -0.00357171  1
  V  V69  1  0.62182025  0.49888761  0.12202850  1
  V  V70  1  -0.00008182  0.12546125  0.62426001  1
  V  V71  1  0.75174832  0.12107551  0.87657903  1
  V  V72  1  0.37727036  0.37691238  0.50446333  1
  V  V73  1  0.12209273  0.50371613  0.12087203  1
  V  V74  1  0.50743174  0.87626037  0.37168262  1
  V  V75  1  0.49890792  0.62442190  0.11792394  1
  V  V76  1  0.37558201  0.00012001  0.37417370  1
  V  V77  1  -0.01608981  0.74063867  0.24926027  1
  V  V78  1  0.74435246  0.87256268  0.62775483  1
  V  V79  1  0.12715248  0.62383317  -0.00707596  1
  V  V80  1  0.87661183  0.74864683  0.62677534  1
  V  V81  1  0.86412252  0.51368773  0.37656405  1
  V  V82  1  0.61513691  0.38388149  0.74295365  1
  V  V83  1  0.50376264  0.75494365  0.24666740  1
  V  V84  1  0.74501200  0.14018204  0.37771777  1
  Zn  Zn85  1  0.00209539  0.13361146  0.12634367  1
  Zn  Zn86  1  0.62998854  0.36862125  0.25301237  1
  Zn  Zn87  1  0.12949692  0.24405452  0.87152456  1
  Zn  Zn88  1  0.77321129  0.74969101  -0.00224727  1
  Zn  Zn89  1  0.87922300  0.61504014  0.75266734  1
  Zn  Zn90  1  0.37899505  0.62152932  0.75168955  1
  Zn  Zn91  1  0.00182200  0.87332297  0.37443032  1
  Zn  Zn92  1  0.89161447  0.26856770  0.13553534  1
  Zn  Zn93  1  0.12464142  0.75030909  0.37322159  1
  Zn  Zn94  1  0.75658768  0.62163870  0.87435592  1
  Zn  Zn95  1  0.11302766  0.36989044  0.23856537  1
  Zn  Zn96  1  0.86433220  0.36869119  0.49598737  1
  Zn  Zn97  1  0.74940129  0.37452932  0.13064912  1
  Zn  Zn98  1  0.25904688  0.49698779  0.75474100  1
  Zn  Zn99  1  0.25743105  0.36928033  0.62944761  1
  Zn  Zn100  1  0.25139133  0.62465805  0.37268032  1
  Zn  Zn101  1  -0.05289960  0.66066268  0.09747298  1
  Zn  Zn102  1  0.73862506  0.37920268  0.61745296  1
  Zn  Zn103  1  0.41133420  0.49705280  0.87351044  1
  Zn  Zn104  1  0.51293242  0.24482637  0.25248110  1
  Zn  Zn105  1  0.49278484  0.25259463  0.75133285  1
  Zn  Zn106  1  0.63603910  0.76007218  0.87211879  1
  Zn  Zn107  1  0.18669631  0.18734377  0.18434391  1
  Zn  Zn108  1  0.19130792  0.18585307  0.68787161  1
  Zn  Zn109  1  0.18742388  0.68793564  0.17819837  1
  Zn  Zn110  1  0.19034304  0.68571036  0.68889747  1
  Zn  Zn111  1  0.69123099  0.18511018  0.18721292  1
  Zn  Zn112  1  0.68413823  0.18265697  0.69101060  1
  Zn  Zn113  1  0.68652571  0.69111246  0.18614775  1
  Zn  Zn114  1  0.68953546  0.67936977  0.68401314  1
  Zn  Zn115  1  0.31240045  0.31456368  0.31307012  1
  Zn  Zn116  1  0.31621789  0.31474295  0.81581355  1
  Zn  Zn117  1  0.31337714  0.81296786  0.31156474  1
  Zn  Zn118  1  0.31481163  0.81133781  0.81453883  1
  Zn  Zn119  1  0.80823564  0.32035231  0.31328199  1
  Zn  Zn120  1  0.80602368  0.31229087  0.80992276  1
  Zn  Zn121  1  0.80995972  0.81479412  0.31269830  1
  Zn  Zn122  1  0.81739187  0.80949854  0.81567144  1
  Zn  Zn123  1  0.18749867  0.43438655  0.43343293  1
  Zn  Zn124  1  0.18995166  0.43373462  0.93650218  1
  Zn  Zn125  1  0.18675760  0.93635615  0.43236194  1
  Zn  Zn126  1  0.19191109  0.94429822  0.94314793  1
  Zn  Zn127  1  0.68918761  0.43314101  0.43959938  1
  Zn  Zn128  1  0.62715535  0.46216797  0.91425139  1
  Zn  Zn129  1  0.68718232  0.93799486  0.44209290  1
  Zn  Zn130  1  0.68474468  0.93261529  0.93909720  1
  Zn  Zn131  1  0.30705448  0.06438493  0.06439281  1
  Zn  Zn132  1  0.31183219  0.06247798  0.56322225  1
  Zn  Zn133  1  0.31408685  0.56387368  0.06043505  1
  Zn  Zn134  1  0.31539863  0.56083759  0.56262181  1
  Zn  Zn135  1  0.81540475  0.05866472  0.06444804  1
  Zn  Zn136  1  0.80919583  0.06519033  0.56315260  1
  Zn  Zn137  1  0.80582725  0.55712779  0.05672246  1
  Zn  Zn138  1  0.81016686  0.55796520  0.56901242  1
  Zn  Zn139  1  0.43978903  0.43760983  0.18962258  1
  Zn  Zn140  1  0.43823116  0.43785750  0.68949232  1
  Zn  Zn141  1  0.43779939  0.93820391  0.18748809  1
  Zn  Zn142  1  0.43786820  0.93886399  0.69207212  1
  Zn  Zn143  1  0.92073244  0.47457451  0.17161278  1
  Zn  Zn144  1  0.93721641  0.43323579  0.68504940  1
  Zn  Zn145  1  0.94088277  0.94189631  0.19868469  1
  Zn  Zn146  1  0.93588576  0.93644803  0.69152358  1
  Zn  Zn147  1  0.06072320  0.06010011  0.31431883  1
  Zn  Zn148  1  0.06440352  0.06038848  0.81346859  1
  Zn  Zn149  1  0.06146420  0.56151692  0.31258341  1
  Zn  Zn150  1  0.06710156  0.56197641  0.81446230  1
  Zn  Zn151  1  0.56580088  0.06468296  0.31181557  1
  Zn  Zn152  1  0.56030968  0.06066750  0.81387069  1
  Zn  Zn153  1  0.56362698  0.56522271  0.30860135  1
  Zn  Zn154  1  0.56306550  0.57178183  0.80424539  1
  Zn  Zn155  1  0.43690411  0.18905107  0.44111520  1
  Zn  Zn156  1  0.43813946  0.18709091  0.94293790  1
  Zn  Zn157  1  0.43812517  0.68676293  0.43611064  1
  Zn  Zn158  1  0.43998084  0.69129629  0.93286925  1
  Zn  Zn159  1  0.93809090  0.18818869  0.43371069  1
  Zn  Zn160  1  0.93925408  0.18645448  0.93742070  1
  Zn  Zn161  1  0.94210281  0.68880979  0.43579865  1
  Zn  Zn162  1  0.93233205  0.68141339  0.92790481  1
  Zn  Zn163  1  0.06076666  0.31007538  0.06032999  1
  Zn  Zn164  1  0.06192326  0.31182114  0.56063226  1
  Zn  Zn165  1  -0.05803668  0.82557969  0.06555931  1
  Zn  Zn166  1  0.06425918  0.81249855  0.56345739  1
  Zn  Zn167  1  0.56789866  0.30801830  0.06625664  1
  Zn  Zn168  1  0.55606738  0.31265703  0.56164707  1
  Zn  Zn169  1  0.56194334  0.81602901  0.05970215  1
  Zn  Zn170  1  0.56572146  0.81130109  0.55937843  1
  O  O171  1  0.12428249  0.11744804  0.11897596  1
  O  O172  1  0.12084431  0.11987034  0.61799904  1
  O  O173  1  0.13141909  0.61513074  0.10846329  1
  O  O174  1  0.12281905  0.61671793  0.61584420  1
  O  O175  1  0.62221761  0.11433268  0.11824176  1
  O  O176  1  0.61888862  0.11641901  0.61945408  1
  O  O177  1  0.61733140  0.62361284  0.11926875  1
  O  O178  1  0.61120457  0.63066324  0.61365536  1
  O  O179  1  0.38158343  0.38192564  0.38045814  1
  O  O180  1  0.37611583  0.37756221  0.89150921  1
  O  O181  1  0.38515654  0.87965697  0.37975340  1
  O  O182  1  0.39450590  0.86965236  0.87145620  1
  O  O183  1  0.88123195  0.38304918  0.37923186  1
  O  O184  1  0.88651565  0.36678012  0.87663494  1
  O  O185  1  0.87523711  0.88482411  0.38292643  1
  O  O186  1  0.87710069  0.88762627  0.87449368  1
  O  O187  1  0.25521081  0.00724615  0.36717043  1
  O  O188  1  0.25076279  -0.00166452  0.86221831  1
  O  O189  1  0.25463691  0.49759223  0.35993073  1
  O  O190  1  0.24859413  0.51161450  0.87617137  1
  O  O191  1  0.75660804  0.00093587  0.37072490  1
  O  O192  1  0.75417069  0.00135985  0.86948992  1
  O  O193  1  0.75754160  0.50176203  0.36966502  1
  O  O194  1  0.72899488  0.50085473  0.85443438  1
  O  O195  1  0.24478763  0.49441123  0.13061009  1
  O  O196  1  0.23862420  0.49747865  0.62566560  1
  O  O197  1  0.24193921  1.00467483  0.14023326  1
  O  O198  1  0.24432844  0.99340724  0.63008340  1
  O  O199  1  0.73825292  0.49960631  0.13702687  1
  O  O200  1  0.74849202  0.49541851  0.64104918  1
  O  O201  1  0.74451063  0.99345091  0.13247602  1
  O  O202  1  0.74422901  0.99291314  0.63181257  1
  O  O203  1  -0.00444065  0.38847813  0.25756436  1
  O  O204  1  0.00693559  0.36936386  0.75490721  1
  O  O205  1  0.01170912  0.86498238  0.25234942  1
  O  O206  1  0.01630784  0.87055145  0.74365666  1
  O  O207  1  0.49745665  0.37037464  0.26367031  1
  O  O208  1  0.51028160  0.36914807  0.74872865  1
  O  O209  1  0.49576085  0.86485656  0.25817557  1
  O  O210  1  0.50124408  0.87042399  0.75817899  1
  O  O211  1  0.49192921  0.12389290  0.24422303  1
  O  O212  1  0.48509928  0.12125473  0.74498162  1
  O  O213  1  0.49484426  0.63821392  0.24200708  1
  O  O214  1  0.50070417  0.63764820  0.73321767  1
  O  O215  1  0.98098575  0.12278865  0.25808025  1
  O  O216  1  0.99685102  0.12872776  0.74402479  1
  O  O217  1  1.00656127  0.64174945  0.25343180  1
  O  O218  1  1.00665140  0.63285642  0.74376573  1
  O  O219  1  0.36934683  0.25449295  0.01024769  1
  O  O220  1  0.36432990  0.26114343  0.49389825  1
  O  O221  1  0.36729532  0.74764992  0.00624791  1
  O  O222  1  0.36989286  0.75401975  0.50854402  1
  O  O223  1  0.87013095  0.25619767  0.00106795  1
  O  O224  1  0.88016149  0.24530345  0.51589629  1
  O  O225  1  0.88826460  0.73660080  0.01744174  1
  O  O226  1  0.86942983  0.75245022  0.50544817  1
  O  O227  1  0.12965712  0.24655336  0.48825449  1
  O  O228  1  0.13408421  0.23970683  0.99847244  1
  O  O229  1  0.13325997  0.74133180  0.50064618  1
  O  O230  1  0.13521314  0.74383358  0.99195318  1
  O  O231  1  0.61900355  0.23546138  0.50277389  1
  O  O232  1  0.63301967  0.24402683  0.99037302  1
  O  O233  1  0.63318940  0.74481168  0.49203064  1
  O  O234  1  0.62953302  0.74001292  1.00576386  1
  O  O235  1  0.49226894  0.24013136  0.12481079  1
  O  O236  1  0.50180704  0.23379938  0.62972269  1
  O  O237  1  0.49436419  0.74833889  0.13129734  1
  O  O238  1  0.49405526  0.75385543  0.62967070  1
  O  O239  1  1.00208431  0.24799515  0.13086986  1
  O  O240  1  0.99485204  0.24282938  0.63001082  1
  O  O241  1  0.99819035  0.75263296  0.14309444  1
  O  O242  1  0.99773654  0.74373159  0.63090861  1
  O  O243  1  0.00645880  0.26293702  0.37812042  1
  O  O244  1  0.00457918  0.25592075  0.86611025  1
  O  O245  1  0.00488995  0.75334033  0.36573058  1
  O  O246  1  0.00901530  0.75287826  0.87032701  1
  O  O247  1  0.49450677  0.26168730  0.37205683  1
  O  O248  1  0.51585286  0.24159859  0.87590836  1
  O  O249  1  0.50400442  0.75798408  0.36769563  1
  O  O250  1  0.50453632  0.75749533  0.86213127  1
  O  O251  1  0.24554234  0.13092258  0.49300883  1
  O  O252  1  0.23900359  0.13571614  1.00687012  1
  O  O253  1  0.24394401  0.63198257  0.50059088  1
  O  O254  1  0.24628736  0.63112295  0.99292375  1
  O  O255  1  0.74063389  0.11970307  0.48915053  1
  O  O256  1  0.74677531  0.12929412  0.99649579  1
  O  O257  1  0.74302453  0.63675010  0.50917339  1
  O  O258  1  0.73913112  0.63024634  1.00037136  1
  O  O259  1  0.25767344  0.36829075  0.00991463  1
  O  O260  1  0.25624911  0.36756915  0.49912181  1
  O  O261  1  0.24956699  0.85863383  -0.00774553  1
  O  O262  1  0.25515476  0.86838974  0.50366251  1
  O  O263  1  0.76236908  0.36581961  -0.00531465  1
  O  O264  1  0.75142928  0.37269116  0.50610043  1
  O  O265  1  0.75204775  0.87327532  0.01590811  1
  O  O266  1  0.75527354  0.86566288  0.50823859  1
  O  O267  1  0.13109391  0.49917866  0.23969613  1
  O  O268  1  0.12687780  0.49100153  0.74143859  1
  O  O269  1  0.13052462  0.99453323  0.24779067  1
  O  O270  1  0.13602483  0.99511140  0.74579483  1
  O  O271  1  0.63206115  0.49948190  0.24326908  1
  O  O272  1  0.62472469  0.48550037  0.74183025  1
  O  O273  1  0.63410082  1.00409183  0.24054657  1
  O  O274  1  0.63336253  1.00529943  0.73873641  1
  O  O275  1  0.36727870  0.00356248  0.25492664  1
  O  O276  1  0.36244890  0.00775246  0.74663678  1
  O  O277  1  0.36655099  0.50625991  0.25359457  1
  O  O278  1  0.37641194  0.50215576  0.75803351  1
  O  O279  1  0.86830485  0.00823774  0.26220198  1
  O  O280  1  0.86717009  0.00507510  0.75595357  1
  O  O281  1  0.86044613  0.49920535  0.26852964  1
  O  O282  1  0.86204752  0.49103035  0.75006705  1
  O  O283  1  0.11381863  0.36994957  0.36950437  1
  O  O284  1  0.11848585  0.37211963  0.86368677  1
  O  O285  1  0.12225454  0.87381029  0.36210862  1
  O  O286  1  0.12806152  0.87212980  0.87075339  1
  O  O287  1  0.60662653  0.38252410  0.37543283  1
  O  O288  1  0.62958218  0.35817784  0.86072720  1
  O  O289  1  0.61318864  0.86717355  0.38247027  1
  O  O290  1  0.60970021  0.87213416  0.87919471  1
  O  O291  1  0.37932832  0.13264464  0.13062572  1
  O  O292  1  0.38409843  0.11847176  0.63144563  1
  O  O293  1  0.38283922  0.63200873  0.12812459  1
  O  O294  1  0.38677540  0.63290526  0.62219280  1
  O  O295  1  0.87584709  0.12111007  0.14240740  1
  O  O296  1  0.87979146  0.13085507  0.63131167  1
  O  O297  1  0.88447040  0.57897018  0.13282616  1
  O  O298  1  0.88413341  0.62983346  0.63090559  1
  O  O299  1  0.25726075  0.25785003  0.11920710  1
  O  O300  1  0.24269795  0.25079795  0.60821215  1
  O  O301  1  0.25927780  0.74448408  0.10669464  1
  O  O302  1  0.25740186  0.75443568  0.61638529  1
  O  O303  1  0.75352582  0.25108297  0.11028552  1
  O  O304  1  0.76333086  0.24410681  0.63166018  1
  O  O305  1  0.75042808  0.76874846  0.13002089  1
  O  O306  1  0.75514649  0.75623964  0.62074506  1
  O  O307  1  0.24297234  0.24626119  0.38248498  1
  O  O308  1  0.24906067  0.25526105  0.88956233  1
  O  O309  1  0.25150837  0.74828121  0.38862440  1
  O  O310  1  0.26042565  0.73761807  0.88625506  1
  O  O311  1  0.75271811  0.23846123  0.37409013  1
  O  O312  1  0.74358827  0.24128417  0.88311520  1
  O  O313  1  0.73985985  0.75666549  0.38420645  1
  O  O314  1  0.75166421  0.74634225  0.88050887  1
  O  O315  1  0.01711251  0.12972830  0.00287050  1
  O  O316  1  0.00561620  0.11842824  0.50364324  1
  O  O317  1  0.01000164  0.61534134  -0.00297989  1
  O  O318  1  0.00848773  0.61459616  0.50435044  1
  O  O319  1  0.50555821  0.11559024  0.00635077  1
  O  O320  1  0.50315882  0.11828282  0.50772682  1
  O  O321  1  0.50958483  0.63539338  0.01176788  1
  O  O322  1  0.50662084  0.63287290  0.51152629  1
  O  O323  1  0.49061869  0.37168267  0.48771183  1
  O  O324  1  0.48776537  0.36799161  1.00601813  1
  O  O325  1  0.49506125  0.88036425  0.49312309  1
  O  O326  1  0.49940402  0.88345592  0.99065695  1
  O  O327  1  0.99923470  0.38676790  0.49473813  1
  O  O328  1  0.99342509  0.37823190  0.98892854  1
  O  O329  1  0.99352015  0.88113783  0.50105426  1
  O  O330  1  1.02347794  0.86453195  0.99399410  1
  O  O331  1  0.48768659  0.49415145  0.36627330  1
  O  O332  1  0.52443197  0.49966157  0.87822519  1
  O  O333  1  0.49730960  0.99285958  0.37813983  1
  O  O334  1  0.50142948  0.98982985  0.88324025  1
  O  O335  1  0.99046900  0.49569009  0.38105402  1
  O  O336  1  1.00892874  0.48884025  0.88470361  1
  O  O337  1  0.98749601  0.99878462  0.38269087  1
  O  O338  1  0.98740986  1.00146380  0.87081289  1
  O  O339  1  0.01265049  0.00663613  0.13392826  1
  O  O340  1  0.00590888  0.00547862  0.62147688  1
  O  O341  1  0.01771235  0.48786007  0.10703275  1
  O  O342  1  0.00935479  0.50133226  0.61825287  1
  O  O343  1  0.50734272  0.00145152  0.11991524  1
  O  O344  1  0.50788978  0.00464441  0.62276016  1
  O  O345  1  0.50736956  0.51414150  0.13487496  1
  O  O346  1  0.49754833  0.51469366  0.62291664  1
  O  O347  1  0.25114031  0.38210392  0.23689365  1
  O  O348  1  0.24317769  0.37497192  0.74812748  1
  O  O349  1  0.23934396  0.88367175  0.25721206  1
  O  O350  1  0.24363204  0.88178774  0.74760188  1
  O  O351  1  0.74656510  0.39016451  0.24945309  1
  O  O352  1  0.73787275  0.38037023  0.74556161  1
  O  O353  1  0.75470510  0.88859127  0.24163940  1
  O  O354  1  0.75584934  0.88482571  0.74289250  1
  O  O355  1  0.25513489  0.11884136  0.25586225  1
  O  O356  1  0.26150130  0.11475676  0.74685889  1
  O  O357  1  0.25426542  0.61734661  0.24878389  1
  O  O358  1  0.25445513  0.62418518  0.76009910  1
  O  O359  1  0.75761485  0.11401377  0.25911285  1
  O  O360  1  0.75498019  0.11148745  0.75561756  1
  O  O361  1  0.74191636  0.61308261  0.25059470  1
  O  O362  1  0.75103367  0.60957174  0.74772310  1
  O  O363  1  0.37100656  0.11974068  0.37013298  1
  O  O364  1  0.37799960  0.12404667  0.86480914  1
  O  O365  1  0.37367553  0.61758605  0.36802313  1
  O  O366  1  0.37278253  0.61733108  0.87546293  1
  O  O367  1  0.86568908  0.11967117  0.37055179  1
  O  O368  1  0.86901828  0.11936524  0.86936524  1
  O  O369  1  0.87575974  0.61151785  0.38250558  1
  O  O370  1  0.87117849  0.61838705  0.86440643  1
  O  O371  1  0.13612008  0.38177528  0.12193307  1
  O  O372  1  0.12485431  0.38045130  0.63482361  1
  O  O373  1  0.12816786  0.88675866  0.14283318  1
  O  O374  1  0.13286409  0.88039229  0.63230728  1
  O  O375  1  0.62632492  0.38723381  0.12332007  1
  O  O376  1  0.62315816  0.36140832  0.64071927  1
  O  O377  1  0.63483729  0.88600357  0.12252803  1
  O  O378  1  0.63789797  0.88213950  0.61942500  1
  O  O379  1  0.13283131  0.25281218  0.26335204  1
  O  O380  1  0.12076923  0.25539502  0.74956282  1
  O  O381  1  0.13139415  0.75965428  0.25011075  1
  O  O382  1  0.11721561  0.75867383  0.74345563  1
  O  O383  1  0.62546524  0.25434691  0.24285730  1
  O  O384  1  0.62321039  0.24879526  0.76301199  1
  O  O385  1  0.61539907  0.74920261  0.25845033  1
  O  O386  1  0.61840564  0.74940378  0.74570379  1
  O  O387  1  0.37354554  0.24644640  0.23818301  1
  O  O388  1  0.37330770  0.23499368  0.75356307  1
  O  O389  1  0.37921354  0.74454740  0.24338148  1
  O  O390  1  0.38031907  0.74946055  0.73615588  1
  O  O391  1  0.86406999  0.23665370  0.24910302  1
  O  O392  1  0.88010369  0.24208080  0.74230690  1
  O  O393  1  0.88439645  0.74840489  0.25716994  1
  O  O394  1  0.89353253  0.75510258  0.74340882  1
  O  O395  1  0.36549141  0.49173680  0.48538408  1
  O  O396  1  0.37742633  0.48572163  1.00294869  1
  O  O397  1  0.38136519  0.99563193  0.49340600  1
  O  O398  1  0.38466374  1.00316430  1.00843258  1
  O  O399  1  0.88099621  0.49891090  0.49333385  1
  O  O400  1  0.88434610  0.48911341  0.99243041  1
  O  O401  1  0.87743245  0.99663607  0.49519977  1
  O  O402  1  0.87628885  1.00318355  0.98723602  1
  O  O403  1  0.13362426  0.01297569  0.01146612  1
  O  O404  1  0.12104701  0.00502364  0.50384465  1
  O  O405  1  0.12293449  0.50531951  0.00258903  1
  O  O406  1  0.12010655  0.50354250  0.50476726  1
  O  O407  1  0.62014467  0.00483080  0.00826853  1
  O  O408  1  0.61966918  0.00466549  0.51216396  1
  O  O409  1  0.62908585  0.51842497  0.01530998  1
  O  O410  1  0.62753286  0.51694240  0.48994494  1
  O  O411  1  0.37135101  0.36864893  0.11920094  1
  O  O412  1  0.37543590  0.38170785  0.60975666  1
  O  O413  1  0.37416856  0.86284637  0.13057333  1
  O  O414  1  0.37115235  0.86965786  0.61922874  1
  O  O415  1  0.86982198  0.38134738  0.11279778  1
  O  O416  1  0.87649094  0.35676056  0.62354310  1
  O  O417  1  0.86666384  0.88650753  0.12741912  1
  O  O418  1  0.86531433  0.87061359  0.62054751  1
  O  O419  1  0.12753198  0.13232921  0.37930182  1
  O  O420  1  0.12596294  0.12309115  0.88933113  1
  O  O421  1  0.12912928  0.62344360  0.38788205  1
  O  O422  1  0.13547492  0.62288387  0.88583457  1
  O  O423  1  0.63496082  0.11852149  0.38540164  1
  O  O424  1  0.63211842  0.12980938  0.87977975  1
  O  O425  1  0.61437740  0.64014946  0.38252698  1
  O  O426  1  0.62467258  0.63501977  0.88931859  1
