# generated using pymatgen
data_V85Zn86O256
_symmetry_space_group_name_H-M   'P 1'
_cell_length_a   16.93062132
_cell_length_b   16.93200929
_cell_length_c   16.92475664
_cell_angle_alpha   89.97066744
_cell_angle_beta   89.98910023
_cell_angle_gamma   89.99371473
_symmetry_Int_Tables_number   1
_chemical_formula_structural   V85Zn86O256
_chemical_formula_sum   'V85 Zn86 O256'
_cell_volume   4851.80971455
_cell_formula_units_Z   1
loop_
 _symmetry_equiv_pos_site_id
 _symmetry_equiv_pos_as_xyz
  1  'x, y, z'
loop_
 _atom_site_type_symbol
 _atom_site_label
 _atom_site_symmetry_multiplicity
 _atom_site_fract_x
 _atom_site_fract_y
 _atom_site_fract_z
 _atom_site_occupancy
  V  V0  1  -0.00440903  0.74758632  0.26041910  1
  V  V1  1  0.75154929  0.74539930  0.00174469  1
  V  V2  1  0.12397674  0.62620302  -0.00180353  1
  V  V3  1  0.38526124  0.37330685  -0.01362733  1
  V  V4  1  0.16131773  0.78264402  0.39661893  1
  V  V5  1  0.62669354  0.88362259  0.75189482  1
  V  V6  1  0.50150763  0.62287904  0.60328385  1
  V  V7  1  0.50088977  -0.00073218  0.00308669  1
  V  V8  1  0.48707624  0.00125016  0.50659883  1
  V  V9  1  0.62101043  0.74619167  0.38174749  1
  V  V10  1  0.74815640  0.12400455  0.86640442  1
  V  V11  1  0.62344398  0.87513118  0.25392195  1
  V  V12  1  0.74981274  0.38275059  0.13230403  1
  V  V13  1  0.50143887  0.25683323  0.75764099  1
  V  V14  1  0.87524846  0.25146705  0.12363803  1
  V  V15  1  0.50222670  0.50286244  -0.01298912  1
  V  V16  1  0.11908204  0.87836756  0.25063369  1
  V  V17  1  0.87059083  0.74159169  0.62954234  1
  V  V18  1  0.87572640  0.87395484  -0.00252595  1
  V  V19  1  0.87557806  0.50336790  0.86417560  1
  V  V20  1  0.23320180  0.61069779  0.39013456  1
  V  V21  1  0.24513405  -0.01266253  0.74405776  1
  V  V22  1  0.48908385  0.88403875  0.37806925  1
  V  V23  1  0.74677043  0.88112613  0.62902922  1
  V  V24  1  0.87560695  0.37138294  0.50461451  1
  V  V25  1  0.11763042  0.12380472  0.50621429  1
  V  V26  1  0.00044055  0.12467472  0.12306719  1
  V  V27  1  0.25392000  0.37513720  0.12651710  1
  V  V28  1  0.11570401  0.25616941  0.87296061  1
  V  V29  1  0.38377117  0.24684643  0.62459270  1
  V  V30  1  0.62486215  0.38847202  0.75861652  1
  V  V31  1  0.25119566  0.87410173  0.13030418  1
  V  V32  1  0.37270765  -0.00245176  0.87528621  1
  V  V33  1  0.75012408  0.25099946  0.00003080  1
  V  V34  1  0.62294501  0.12132993  0.50808600  1
  V  V35  1  0.49994244  0.87218600  0.87642746  1
  V  V36  1  0.25088232  0.24990386  -0.00238998  1
  V  V37  1  0.25225499  0.24882281  0.50237409  1
  V  V38  1  0.36197082  0.75823064  0.61181120  1
  V  V39  1  0.62688816  0.25002941  0.37733189  1
  V  V40  1  0.11831887  -0.01364304  0.62531327  1
  V  V41  1  0.87080465  0.49917030  0.36796499  1
  V  V42  1  0.75221429  -0.00147542  0.25632806  1
  V  V43  1  0.87142242  -0.00046314  0.86291162  1
  V  V44  1  0.74559082  0.62023957  0.37009754  1
  V  V45  1  0.24909559  0.75106162  0.00078774  1
  V  V46  1  0.00082441  0.49872265  -0.00769813  1
  V  V47  1  0.12521337  0.50287997  0.12660151  1
  V  V48  1  0.74702923  0.74219017  0.50168851  1
  V  V49  1  -0.01162728  0.89099938  0.37808920  1
  V  V50  1  0.75371858  0.62227253  0.86243181  1
  V  V51  1  0.30610393  0.55651989  0.20602103  1
  V  V52  1  0.87800443  0.37775003  -0.00559380  1
  V  V53  1  0.00007366  0.37510088  0.37528744  1
  V  V54  1  0.75054931  0.87440592  0.12633001  1
  V  V55  1  -0.00059597  -0.00099578  -0.00346352  1
  V  V56  1  0.12694109  0.24982485  0.37580847  1
  V  V57  1  0.75144446  0.37612752  0.62861134  1
  V  V58  1  0.25481476  0.49920148  0.75230025  1
  V  V59  1  0.38277338  0.37944907  0.50120437  1
  V  V60  1  0.37867151  0.24860471  0.12609689  1
  V  V61  1  -0.00108820  0.62346367  0.62063315  1
  V  V62  1  0.25305023  0.62342924  0.87067681  1
  V  V63  1  0.25353301  0.12021019  0.37592569  1
  V  V64  1  0.37724317  0.11973379  0.25402517  1
  V  V65  1  0.87149549  0.88476116  0.49791679  1
  V  V66  1  0.38210873  0.62444237  0.75017264  1
  V  V67  1  0.62644918  0.50400389  0.61046926  1
  V  V68  1  0.25160332  0.37520283  0.62614915  1
  V  V69  1  0.12594072  0.75754284  0.86744107  1
  V  V70  1  0.62685639  0.12607191  0.00148463  1
  V  V71  1  0.49211430  0.73970298  0.24791117  1
  V  V72  1  0.38158704  0.12295351  0.74610629  1
  V  V73  1  0.61888220  0.50718032  0.13324871  1
  V  V74  1  0.37520762  0.87116343  0.00407952  1
  V  V75  1  0.87751488  0.12014337  0.25365762  1
  V  V76  1  0.24710600  0.12402772  0.87222698  1
  V  V77  1  0.37809759  0.50696105  0.37609688  1
  V  V78  1  0.00116023  0.74989954  0.74750841  1
  V  V79  1  0.62392709  0.74867205  0.87449859  1
  V  V80  1  0.50172872  0.37790269  0.37575102  1
  V  V81  1  0.13097785  0.37498001  0.24902362  1
  V  V82  1  0.12811796  0.50536938  0.61761088  1
  V  V83  1  0.75432819  0.12263851  0.37897493  1
  V  V84  1  -0.00928776  0.25551367  0.74015918  1
  Zn  Zn85  1  0.87740102  0.74719047  0.12694286  1
  Zn  Zn86  1  0.86923109  0.12931746  0.74203087  1
  Zn  Zn87  1  0.12192030  0.37977045  0.75312538  1
  Zn  Zn88  1  0.62142640  0.25821305  0.87837003  1
  Zn  Zn89  1  0.00389360  0.50528056  0.49667274  1
  Zn  Zn90  1  0.62040259  0.00520977  0.63025715  1
  Zn  Zn91  1  0.00320714  0.87776895  0.86663891  1
  Zn  Zn92  1  0.37452091  0.73561828  0.13103058  1
  Zn  Zn93  1  -0.00308797  0.62712941  0.12614064  1
  Zn  Zn94  1  0.12565884  0.00110857  0.12449225  1
  Zn  Zn95  1  0.61938352  0.62700355  0.00434956  1
  Zn  Zn96  1  0.75556244  0.24687215  0.50707131  1
  Zn  Zn97  1  0.00145528  0.24945412  0.24814488  1
  Zn  Zn98  1  0.62568684  0.00132852  0.12780755  1
  Zn  Zn99  1  0.50372136  0.24788751  0.25092799  1
  Zn  Zn100  1  0.87087238  0.62089538  0.24538587  1
  Zn  Zn101  1  0.49856539  0.75065519  0.74324512  1
  Zn  Zn102  1  0.12399068  0.12498166  -0.00130437  1
  Zn  Zn103  1  0.25385581  -0.00311466  0.25401378  1
  Zn  Zn104  1  0.50243590  0.12494247  0.12818210  1
  Zn  Zn105  1  -0.00926330  0.12280805  0.62296088  1
  Zn  Zn106  1  0.63033624  0.37758271  0.25392818  1
  Zn  Zn107  1  0.18886746  0.18754017  0.18791959  1
  Zn  Zn108  1  0.18743338  0.18601816  0.68889846  1
  Zn  Zn109  1  0.17768782  0.69602467  0.19328858  1
  Zn  Zn110  1  0.18653225  0.68738501  0.68320791  1
  Zn  Zn111  1  0.68942278  0.18889281  0.18857107  1
  Zn  Zn112  1  0.68483940  0.19559510  0.68778023  1
  Zn  Zn113  1  0.68430605  0.68826899  0.19073593  1
  Zn  Zn114  1  0.68152731  0.68879356  0.68671668  1
  Zn  Zn115  1  0.31491043  0.31050753  0.31332432  1
  Zn  Zn116  1  0.30987042  0.30978029  0.81007675  1
  Zn  Zn117  1  0.31101022  0.81104282  0.32386846  1
  Zn  Zn118  1  0.31618814  0.80731222  0.80868105  1
  Zn  Zn119  1  0.81405443  0.30788676  0.31325673  1
  Zn  Zn120  1  0.80731812  0.31682138  0.81342992  1
  Zn  Zn121  1  0.81157913  0.80805205  0.31554777  1
  Zn  Zn122  1  0.81262833  0.81080100  0.81080554  1
  Zn  Zn123  1  0.19304907  0.43723292  0.43734546  1
  Zn  Zn124  1  0.19242797  0.43673479  0.93789825  1
  Zn  Zn125  1  0.18692513  0.94570689  0.44123077  1
  Zn  Zn126  1  0.18632721  0.93732937  0.93851025  1
  Zn  Zn127  1  0.69030886  0.43730271  0.43972923  1
  Zn  Zn128  1  0.69074144  0.44167925  0.94212710  1
  Zn  Zn129  1  0.68522127  0.93684955  0.44053437  1
  Zn  Zn130  1  0.68906118  0.93826398  0.93740509  1
  Zn  Zn131  1  0.31201104  0.06107580  0.06425050  1
  Zn  Zn132  1  0.30810487  0.06277664  0.56590910  1
  Zn  Zn133  1  0.31673041  0.55908037  0.04175738  1
  Zn  Zn134  1  0.31801881  0.56286391  0.56377090  1
  Zn  Zn135  1  0.81287514  0.06028293  0.06219117  1
  Zn  Zn136  1  0.81046976  0.06330717  0.56826883  1
  Zn  Zn137  1  0.81149185  0.56291357  0.06237969  1
  Zn  Zn138  1  0.81351641  0.55873313  0.55864643  1
  Zn  Zn139  1  0.44742340  0.43064150  0.18573034  1
  Zn  Zn140  1  0.44197764  0.44096915  0.68805260  1
  Zn  Zn141  1  0.43753876  0.93531581  0.18899331  1
  Zn  Zn142  1  0.43714732  0.93424883  0.68683069  1
  Zn  Zn143  1  0.94193672  0.43801539  0.18505786  1
  Zn  Zn144  1  0.94221049  0.43490172  0.68728564  1
  Zn  Zn145  1  0.93609432  0.93747957  0.18558108  1
  Zn  Zn146  1  0.93764404  0.93186679  0.68385723  1
  Zn  Zn147  1  0.06384518  0.06242879  0.31496630  1
  Zn  Zn148  1  0.06114276  0.06675298  0.80729319  1
  Zn  Zn149  1  0.06003066  0.55893022  0.30918722  1
  Zn  Zn150  1  0.06369609  0.56792957  0.80601824  1
  Zn  Zn151  1  0.56423753  0.06334851  0.31651245  1
  Zn  Zn152  1  0.56032585  0.06441782  0.81623272  1
  Zn  Zn153  1  0.56252259  0.56197260  0.31767164  1
  Zn  Zn154  1  0.56663454  0.56369251  0.81308633  1
  Zn  Zn155  1  0.44069999  0.18633663  0.43817035  1
  Zn  Zn156  1  0.43802004  0.18489899  0.93615937  1
  Zn  Zn157  1  0.43268212  0.69005561  0.43271212  1
  Zn  Zn158  1  0.43597698  0.68524785  0.93894438  1
  Zn  Zn159  1  0.93742963  0.18939176  0.43842313  1
  Zn  Zn160  1  0.93469409  0.18571678  0.93389535  1
  Zn  Zn161  1  0.93434645  0.68910353  0.43920531  1
  Zn  Zn162  1  0.93799386  0.68563990  0.93513071  1
  Zn  Zn163  1  0.06223781  0.31362706  0.05901815  1
  Zn  Zn164  1  0.06534098  0.31692924  0.56361611  1
  Zn  Zn165  1  0.06083084  0.81144930  0.06397199  1
  Zn  Zn166  1  0.05561234  0.81179313  0.55852880  1
  Zn  Zn167  1  0.56381792  0.31471156  0.06507740  1
  Zn  Zn168  1  0.56507712  0.31280191  0.56515719  1
  Zn  Zn169  1  0.56295461  0.81036853  0.06729454  1
  Zn  Zn170  1  0.55705642  0.81380805  0.56204179  1
  O  O171  1  0.11278866  0.12484616  0.12341851  1
  O  O172  1  0.12396239  0.11869766  0.61872892  1
  O  O173  1  0.12566535  0.61776577  0.11905401  1
  O  O174  1  0.11650756  0.61558661  0.62650654  1
  O  O175  1  0.62584717  0.12392134  0.11397972  1
  O  O176  1  0.63038930  0.12600861  0.61247657  1
  O  O177  1  0.62926594  0.61144917  0.12313544  1
  O  O178  1  0.61435182  0.61461239  0.62773011  1
  O  O179  1  0.38220208  0.37980800  0.38141618  1
  O  O180  1  0.37213430  0.36796687  0.88856087  1
  O  O181  1  0.39120307  0.88029000  0.36946094  1
  O  O182  1  0.37929665  0.87786421  0.88260478  1
  O  O183  1  0.88266583  0.37812925  0.37785770  1
  O  O184  1  0.86450250  0.38624194  0.88828521  1
  O  O185  1  0.87295801  0.87266584  0.38936825  1
  O  O186  1  0.87444488  0.88198865  0.88172507  1
  O  O187  1  0.24843722  0.01635369  0.37403638  1
  O  O188  1  0.25061467  0.00595809  0.86637575  1
  O  O189  1  0.25960535  0.50445481  0.37065615  1
  O  O190  1  0.24593310  0.51068949  0.86659102  1
  O  O191  1  0.74509784  0.00712303  0.36449375  1
  O  O192  1  0.75977508  0.01048366  0.88232440  1
  O  O193  1  0.75631611  0.50799168  0.37812100  1
  O  O194  1  0.75753136  0.51576072  0.88153988  1
  O  O195  1  0.24882158  0.49727660  0.12789464  1
  O  O196  1  0.24645315  0.49663930  0.63118662  1
  O  O197  1  0.24607631  0.98705332  0.12563454  1
  O  O198  1  0.24190935  1.00075570  0.63802564  1
  O  O199  1  0.73493953  0.49216818  0.11596699  1
  O  O200  1  0.73449626  0.49602691  0.61997075  1
  O  O201  1  0.74906276  0.99376119  0.13638202  1
  O  O202  1  0.74188637  0.98392500  0.62199272  1
  O  O203  1  0.01198051  0.37206703  0.25494561  1
  O  O204  1  0.00514561  0.36118292  0.75126662  1
  O  O205  1  0.00238118  0.87230982  0.25666092  1
  O  O206  1  -0.00394416  0.85741380  0.74970682  1
  O  O207  1  0.50605329  0.36742404  0.26144502  1
  O  O208  1  0.51244294  0.37095418  0.74767347  1
  O  O209  1  0.50770075  0.87371449  0.26038775  1
  O  O210  1  0.50631062  0.87157871  0.75933155  1
  O  O211  1  0.49381494  0.12723058  0.25017030  1
  O  O212  1  0.48761979  0.13082595  0.75428619  1
  O  O213  1  0.50101785  0.64154796  0.25833551  1
  O  O214  1  0.48872760  0.62526778  0.75412594  1
  O  O215  1  0.99346077  0.12488249  0.24376879  1
  O  O216  1  0.99763959  0.14213859  0.74943693  1
  O  O217  1  0.99885804  0.63466733  0.25060658  1
  O  O218  1  1.00058848  0.63689440  0.73628539  1
  O  O219  1  0.37321192  0.25665617  0.00487528  1
  O  O220  1  0.37309920  0.25359100  0.50867077  1
  O  O221  1  0.36800379  0.75231190  0.00784581  1
  O  O222  1  0.37641325  0.74739484  0.51196027  1
  O  O223  1  0.87232960  0.25864567  0.00337019  1
  O  O224  1  0.87449510  0.26621930  0.49572776  1
  O  O225  1  0.86826755  0.75664546  -0.00033595  1
  O  O226  1  0.86435157  0.75627401  0.51004591  1
  O  O227  1  0.13237124  0.24512434  0.49671890  1
  O  O228  1  0.13086186  0.24850418  0.98918313  1
  O  O229  1  0.11861460  0.75064961  0.48011637  1
  O  O230  1  0.13037596  0.74461332  0.99380335  1
  O  O231  1  0.62484541  0.24214876  0.49184490  1
  O  O232  1  0.62894704  0.24316177  0.99846044  1
  O  O233  1  0.63047532  0.75686008  0.48931092  1
  O  O234  1  0.63124266  0.75021462  0.99158104  1
  O  O235  1  0.49217929  0.24704770  0.12699367  1
  O  O236  1  0.48958436  0.25417873  0.63589381  1
  O  O237  1  0.49715031  0.75207259  0.14223991  1
  O  O238  1  0.50099773  0.73355750  0.62454547  1
  O  O239  1  0.99421042  0.24238659  0.12386752  1
  O  O240  1  1.00418500  0.25086370  0.63789216  1
  O  O241  1  1.00299747  0.75032301  0.14241519  1
  O  O242  1  0.99139043  0.74387190  0.62745944  1
  O  O243  1  0.00676444  0.26138412  0.37309862  1
  O  O244  1  0.01312210  0.24680115  0.87247678  1
  O  O245  1  -0.00862075  0.76163418  0.36671363  1
  O  O246  1  0.00818068  0.74758534  0.86577691  1
  O  O247  1  0.50856052  0.25964091  0.37640407  1
  O  O248  1  0.50049885  0.24783424  0.86255634  1
  O  O249  1  0.50428261  0.76117448  0.37067438  1
  O  O250  1  0.50872618  0.75441961  0.87814576  1
  O  O251  1  0.24300806  0.13111225  0.49485581  1
  O  O252  1  0.24982551  0.12781163  0.98787190  1
  O  O253  1  0.24949947  0.61665859  0.48841448  1
  O  O254  1  0.24515598  0.63043421  0.98923837  1
  O  O255  1  0.74350126  0.12469272  0.49278012  1
  O  O256  1  0.74406459  0.13009933  0.99552628  1
  O  O257  1  0.75334194  0.63659375  0.49154353  1
  O  O258  1  0.74799063  0.63759942  0.99411957  1
  O  O259  1  0.26377100  0.37190414  0.00646101  1
  O  O260  1  0.26245729  0.36750681  0.50440284  1
  O  O261  1  0.25371843  0.86960936  0.00827673  1
  O  O262  1  0.23863580  0.84589494  0.42945484  1
  O  O263  1  0.75678436  0.37017133  0.00961846  1
  O  O264  1  0.75836503  0.37429966  0.50835478  1
  O  O265  1  0.75456278  0.86529964  0.00339938  1
  O  O266  1  0.75456352  0.86427829  0.50541302  1
  O  O267  1  0.11931245  0.49069647  0.23409584  1
  O  O268  1  0.13747498  0.50044362  0.74221467  1
  O  O269  1  0.12634541  0.98910332  0.24864121  1
  O  O270  1  0.13644146  1.00298823  0.74047594  1
  O  O271  1  0.62025638  0.49856529  0.23729439  1
  O  O272  1  0.62047565  0.49083583  0.74134145  1
  O  O273  1  0.63219487  0.99301373  0.24972163  1
  O  O274  1  0.61860270  0.98845474  0.75128429  1
  O  O275  1  0.37306961  0.01537872  0.24238146  1
  O  O276  1  0.36721896  0.00547421  0.75295376  1
  O  O277  1  0.37530381  0.49320353  0.25507341  1
  O  O278  1  0.36411516  0.50827747  0.74367025  1
  O  O279  1  0.86768874  0.01184677  0.24590841  1
  O  O280  1  0.87805434  -0.00196229  0.76068316  1
  O  O281  1  0.88171732  0.49866403  0.26298999  1
  O  O282  1  0.88242791  0.49455349  0.76550694  1
  O  O283  1  0.12114820  0.37324099  0.36734344  1
  O  O284  1  0.13378067  0.35963452  0.87412995  1
  O  O285  1  0.10724708  0.87932008  0.37141871  1
  O  O286  1  0.12365351  0.86128815  0.87892840  1
  O  O287  1  0.62002786  0.36880274  0.37689949  1
  O  O288  1  0.63233589  0.37864187  0.86248861  1
  O  O289  1  0.62118765  0.86800051  0.36666217  1
  O  O290  1  0.62236757  0.86833493  0.87091149  1
  O  O291  1  0.37500598  0.13552734  0.12885679  1
  O  O292  1  0.36914376  0.13480128  0.63471073  1
  O  O293  1  0.35751932  0.61649266  0.13560028  1
  O  O294  1  0.38863749  0.62893947  0.62941136  1
  O  O295  1  0.88429349  0.12820156  0.13021242  1
  O  O296  1  0.87653497  0.12493377  0.62909529  1
  O  O297  1  0.87762388  0.62737909  0.12758303  1
  O  O298  1  0.87919989  0.63138439  0.62184617  1
  O  O299  1  0.25688691  0.25315599  0.11568745  1
  O  O300  1  0.26088087  0.25584442  0.62384721  1
  O  O301  1  0.24909392  0.75996986  0.12371108  1
  O  O302  1  0.26235388  0.74596237  0.62351458  1
  O  O303  1  0.75694657  0.25630577  0.11902690  1
  O  O304  1  0.74265919  0.27020751  0.62252378  1
  O  O305  1  0.74857669  0.75563380  0.11749066  1
  O  O306  1  0.75218812  0.75306702  0.61913438  1
  O  O307  1  0.24492265  0.24338416  0.38181868  1
  O  O308  1  0.24309974  0.24123804  0.87782871  1
  O  O309  1  0.24367687  0.71882526  0.36229527  1
  O  O310  1  0.24369635  0.74466352  0.87759907  1
  O  O311  1  0.74396125  0.24174659  0.37991178  1
  O  O312  1  0.74721136  0.24239112  0.88350039  1
  O  O313  1  0.74031603  0.74434807  0.38303044  1
  O  O314  1  0.74487249  0.74217866  0.88129570  1
  O  O315  1  -0.00164967  0.11746944  0.00627834  1
  O  O316  1  0.01379945  0.12980619  0.50012915  1
  O  O317  1  0.00825333  0.61908899  0.00180866  1
  O  O318  1  -0.00547355  0.62355910  0.51339852  1
  O  O319  1  0.50787610  0.11658058  0.00056142  1
  O  O320  1  0.50856521  0.10993748  0.49199628  1
  O  O321  1  0.49777937  0.60837964  -0.00060123  1
  O  O322  1  0.49865284  0.62377685  0.50518184  1
  O  O323  1  0.48931971  0.36845362  0.49458547  1
  O  O324  1  0.49103859  0.37930261  0.99995261  1
  O  O325  1  0.50419216  0.88743145  0.48775139  1
  O  O326  1  0.49662190  0.88035263  0.99786843  1
  O  O327  1  0.99526896  0.37724730  0.49209348  1
  O  O328  1  0.99070977  0.38484682  1.00149320  1
  O  O329  1  0.98039737  0.87277223  0.49337213  1
  O  O330  1  0.99345807  0.88161999  0.99681489  1
  O  O331  1  0.49389547  0.48707250  0.37245321  1
  O  O332  1  0.50559993  0.49831644  0.88797945  1
  O  O333  1  0.50542944  0.98917927  0.38375215  1
  O  O334  1  0.49439322  0.99389460  0.88637187  1
  O  O335  1  0.99532815  0.48762396  0.37610938  1
  O  O336  1  0.99588147  0.50971738  0.88488057  1
  O  O337  1  0.99290905  0.99071704  0.37054709  1
  O  O338  1  0.99346154  0.99991250  0.87942836  1
  O  O339  1  0.00007600  0.00748465  0.11583701  1
  O  O340  1  0.01510383  0.00219667  0.63352438  1
  O  O341  1  0.00982755  0.50144937  0.11241188  1
  O  O342  1  0.00981098  0.50652967  0.62519886  1
  O  O343  1  0.50157795  0.00062151  0.11390307  1
  O  O344  1  0.50208298  -0.00559485  0.61103642  1
  O  O345  1  0.51498050  0.49334167  0.11605705  1
  O  O346  1  0.50825656  0.51505398  0.62594319  1
  O  O347  1  0.23912104  0.36903972  0.24421293  1
  O  O348  1  0.25163477  0.38367354  0.74470414  1
  O  O349  1  0.24172001  0.87500309  0.24695090  1
  O  O350  1  0.25373081  0.88979068  0.75623063  1
  O  O351  1  0.75236044  0.37028647  0.23635954  1
  O  O352  1  0.73518626  0.37513974  0.74328362  1
  O  O353  1  0.74465029  0.88094446  0.24979115  1
  O  O354  1  0.73949375  0.86795118  0.74157727  1
  O  O355  1  0.25655043  0.12478399  0.25823331  1
  O  O356  1  0.25918932  0.11955746  0.75908830  1
  O  O357  1  0.23875561  0.61623820  0.25434658  1
  O  O358  1  0.25895929  0.61930793  0.75322774  1
  O  O359  1  0.75656743  0.11768534  0.25621122  1
  O  O360  1  0.74560020  0.13125846  0.76290844  1
  O  O361  1  0.75175684  0.63228555  0.26561087  1
  O  O362  1  0.74631522  0.63010015  0.76397382  1
  O  O363  1  0.36640867  0.13494031  0.36561900  1
  O  O364  1  0.36738691  0.11706812  0.86910885  1
  O  O365  1  0.37125619  0.61015788  0.37471224  1
  O  O366  1  0.36185266  0.63182163  0.86656247  1
  O  O367  1  0.86398315  0.13022987  0.36870579  1
  O  O368  1  0.86549024  0.11718206  0.87093135  1
  O  O369  1  0.86657764  0.61555531  0.37471156  1
  O  O370  1  0.86204956  0.61975278  0.87745300  1
  O  O371  1  0.13283112  0.38086065  0.12814002  1
  O  O372  1  0.13607456  0.38172390  0.62993148  1
  O  O373  1  0.13061705  0.87468350  0.13539714  1
  O  O374  1  0.12183412  0.88700582  0.61704891  1
  O  O375  1  0.63364184  0.38307711  0.12816658  1
  O  O376  1  0.62768985  0.38851653  0.63085004  1
  O  O377  1  0.63072263  0.87518558  0.13890450  1
  O  O378  1  0.62937099  0.87100942  0.63592767  1
  O  O379  1  0.12366095  0.25686644  0.25631635  1
  O  O380  1  0.11989358  0.25140643  0.76108890  1
  O  O381  1  0.12066443  0.76518738  0.27263329  1
  O  O382  1  0.11780822  0.74533643  0.75707008  1
  O  O383  1  0.62722080  0.24926258  0.26535062  1
  O  O384  1  0.61587403  0.26287009  0.75224440  1
  O  O385  1  0.61558079  0.75722121  0.25963252  1
  O  O386  1  0.62149431  0.75666108  0.76284254  1
  O  O387  1  0.37573699  0.24118725  0.24086659  1
  O  O388  1  0.38050879  0.24397531  0.74450061  1
  O  O389  1  0.38822461  0.75499164  0.25278144  1
  O  O390  1  0.37756566  0.73916407  0.73972198  1
  O  O391  1  0.87679026  0.23702461  0.24247541  1
  O  O392  1  0.88839177  0.25378580  0.75857560  1
  O  O393  1  0.88235322  0.74873179  0.24810169  1
  O  O394  1  0.87896257  0.75210160  0.73603907  1
  O  O395  1  0.37277161  0.48918218  0.49100427  1
  O  O396  1  0.38992300  0.48413660  1.00172338  1
  O  O397  1  0.38759900  1.00666929  0.50370596  1
  O  O398  1  0.38152920  0.99400787  0.99521767  1
  O  O399  1  0.87829944  0.48912832  0.48675594  1
  O  O400  1  0.88399409  0.49560656  0.99426648  1
  O  O401  1  0.86411847  0.98313823  0.50259001  1
  O  O402  1  0.88411058  0.99485965  0.99293810  1
  O  O403  1  0.11158514  0.00203783  -0.00010042  1
  O  O404  1  0.13265770  0.00887715  0.51675679  1
  O  O405  1  0.12171817  0.50270447  0.00669057  1
  O  O406  1  0.12547161  0.49033504  0.51418744  1
  O  O407  1  0.61784237  0.00605294  0.00236530  1
  O  O408  1  0.61771697  0.00735269  0.50260352  1
  O  O409  1  0.61354799  0.50001948  0.00691319  1
  O  O410  1  0.62059719  0.49690902  0.51194424  1
  O  O411  1  0.37272629  0.36339755  0.12065054  1
  O  O412  1  0.37283931  0.37061218  0.61861567  1
  O  O413  1  0.36658189  0.87245210  0.12100026  1
  O  O414  1  0.37986011  0.85670877  0.62768352  1
  O  O415  1  0.86954687  0.37430999  0.11626866  1
  O  O416  1  0.86450551  0.38736402  0.61703047  1
  O  O417  1  0.86822789  0.87310413  0.11513258  1
  O  O418  1  0.86542981  0.86742600  0.61649500  1
  O  O419  1  0.13114260  0.13060576  0.38202892  1
  O  O420  1  0.13257793  0.13443169  0.87482963  1
  O  O421  1  0.13325267  0.60525436  0.38327363  1
  O  O422  1  0.13519002  0.63403243  0.87718561  1
  O  O423  1  0.63542955  0.13100265  0.38298309  1
  O  O424  1  0.63093279  0.12511041  0.88689110  1
  O  O425  1  0.63054380  0.63402274  0.37539383  1
  O  O426  1  0.63508002  0.63192757  0.87929178  1
