# generated using pymatgen
data_V85Zn86O256
_symmetry_space_group_name_H-M   'P 1'
_cell_length_a   16.96083878
_cell_length_b   16.96456356
_cell_length_c   16.96792057
_cell_angle_alpha   89.97040152
_cell_angle_beta   90.08034269
_cell_angle_gamma   90.01065023
_symmetry_Int_Tables_number   1
_chemical_formula_structural   V85Zn86O256
_chemical_formula_sum   'V85 Zn86 O256'
_cell_volume   4882.22901610
_cell_formula_units_Z   1
loop_
 _symmetry_equiv_pos_site_id
 _symmetry_equiv_pos_as_xyz
  1  'x, y, z'
loop_
 _atom_site_type_symbol
 _atom_site_label
 _atom_site_symmetry_multiplicity
 _atom_site_fract_x
 _atom_site_fract_y
 _atom_site_fract_z
 _atom_site_occupancy
  V  V0  1  0.64209469  0.49969651  0.12874475  1
  V  V1  1  0.50846692  0.25060736  0.75377536  1
  V  V2  1  0.50690956  0.87381917  0.37465058  1
  V  V3  1  0.74916880  0.00204256  0.75794803  1
  V  V4  1  0.50633671  0.37169094  0.88147126  1
  V  V5  1  0.24891175  0.74799190  -0.00064708  1
  V  V6  1  0.24875433  0.87575265  0.62473570  1
  V  V7  1  0.73785249  0.74668157  0.49375732  1
  V  V8  1  0.24829708  0.00180317  0.75057892  1
  V  V9  1  0.62962497  0.13777168  -0.00194832  1
  V  V10  1  0.50248772  0.12565860  0.62569905  1
  V  V11  1  0.67407123  0.81703182  0.80602947  1
  V  V12  1  0.51115030  0.25412486  0.25212791  1
  V  V13  1  0.38258589  0.62960058  0.75127365  1
  V  V14  1  0.12077701  0.86557359  0.75035515  1
  V  V15  1  0.12493403  0.62934033  0.49230219  1
  V  V16  1  0.37196209  0.12750453  0.24783607  1
  V  V17  1  -0.00105214  0.12954351  0.63007058  1
  V  V18  1  0.24797457  0.75178675  0.49139384  1
  V  V19  1  0.50288191  0.62175060  0.12664367  1
  V  V20  1  0.86948832  0.50165838  0.36831233  1
  V  V21  1  0.87710805  0.74150971  0.12036114  1
  V  V22  1  0.37722349  0.25508713  0.61945240  1
  V  V23  1  0.12187531  0.62501079  0.00331836  1
  V  V24  1  0.12040713  0.25086162  0.37635017  1
  V  V25  1  0.49092954  0.37074848  0.38512607  1
  V  V26  1  -0.00228551  0.37222930  0.87252592  1
  V  V27  1  0.12226115  0.37396716  0.24922943  1
  V  V28  1  0.87372970  0.25083441  0.63283743  1
  V  V29  1  0.19759975  0.19915696  0.04637590  1
  V  V30  1  0.12394511  0.12590419  0.50126234  1
  V  V31  1  0.50735050  0.74875711  0.25459938  1
  V  V32  1  0.74534902  0.24378059  0.49451459  1
  V  V33  1  0.11156201  0.50120466  0.12805860  1
  V  V34  1  0.63490321  -0.00145010  0.12467252  1
  V  V35  1  0.00418012  0.63257944  0.62931675  1
  V  V36  1  0.01662062  0.00580954  0.00502375  1
  V  V37  1  0.37541031  0.62522521  0.25251131  1
  V  V38  1  -0.00165379  0.50135570  0.50283973  1
  V  V39  1  0.82212734  0.06514055  0.30833735  1
  V  V40  1  0.87937760  0.75240705  0.62310645  1
  V  V41  1  0.73913965  0.62334818  0.37050973  1
  V  V42  1  0.25076032  0.13294100  0.87305190  1
  V  V43  1  -0.00374336  0.50289988  0.00108411  1
  V  V44  1  0.25493551  0.37743125  0.61831831  1
  V  V45  1  0.25032793  0.50067196  0.24790372  1
  V  V46  1  0.12615343  0.86654738  0.25356257  1
  V  V47  1  0.37577210  0.50084679  0.87792515  1
  V  V48  1  0.63189301  0.87691469  0.25057059  1
  V  V49  1  0.50388999  0.00268546  0.49599281  1
  V  V50  1  0.63089552  0.63665618  -0.00424348  1
  V  V51  1  0.88065417  0.62949936  0.75162291  1
  V  V52  1  0.86876307  0.88451318  0.00260240  1
  V  V53  1  0.00447240  0.86402976  0.37445484  1
  V  V54  1  0.87076046  0.37693982  0.50412583  1
  V  V55  1  0.12632406  0.50197324  0.62685945  1
  V  V56  1  0.49611217  0.86235659  0.86486382  1
  V  V57  1  0.87039963  0.87612282  0.48932285  1
  V  V58  1  0.38069070  0.25212383  0.12011110  1
  V  V59  1  0.37527199  0.87389993  0.00101274  1
  V  V60  1  0.24296482  0.87861816  0.12220059  1
  V  V61  1  0.37567325  0.87574053  0.49885544  1
  V  V62  1  -0.00019392  0.37344791  0.37855972  1
  V  V63  1  0.85886589  0.36930903  0.00024618  1
  V  V64  1  -0.00552657  -0.00031436  0.49581164  1
  V  V65  1  0.24471129  0.00038726  0.24543604  1
  V  V66  1  0.50174238  -0.00279652  -0.00235297  1
  V  V67  1  0.62707241  0.38064012  0.75174175  1
  V  V68  1  0.87081227  0.50491842  0.87311486  1
  V  V69  1  0.38001817  0.75126190  0.62867953  1
  V  V70  1  0.25249120  0.50031852  0.75070569  1
  V  V71  1  0.37645311  0.12750649  0.75016049  1
  V  V72  1  0.12182456  0.24720178  0.87340799  1
  V  V73  1  0.50314558  0.12394162  0.12323906  1
  V  V74  1  0.12390914  0.00161353  0.62691991  1
  V  V75  1  0.74513707  0.13917641  0.87648962  1
  V  V76  1  0.24966182  0.12478903  0.37706499  1
  V  V77  1  0.63138453  0.38236048  0.25709062  1
  V  V78  1  0.49702655  0.51782839  0.50427119  1
  V  V79  1  -0.00144861  0.87815346  0.87599332  1
  V  V80  1  0.87887035  0.12183656  0.75734300  1
  V  V81  1  0.37106964  0.37386222  0.00027913  1
  V  V82  1  0.74833573  0.87361903  0.62388719  1
  V  V83  1  0.12307646  0.37129832  0.74972974  1
  V  V84  1  0.62362973  -0.00447931  0.63140939  1
  Zn  Zn85  1  0.63030333  0.50635544  0.61748677  1
  Zn  Zn86  1  0.74682583  0.63932673  0.87420815  1
  Zn  Zn87  1  0.74761893  0.50700030  0.74597493  1
  Zn  Zn88  1  0.51339269  0.63781172  0.62896748  1
  Zn  Zn89  1  0.37533236  0.00134449  0.87433347  1
  Zn  Zn90  1  0.24567017  0.37367508  0.12083215  1
  Zn  Zn91  1  0.24919028  0.62559931  0.87537502  1
  Zn  Zn92  1  0.25487492  0.25557384  0.49707370  1
  Zn  Zn93  1  0.00354625  0.73909866  0.24410476  1
  Zn  Zn94  1  0.36879255  0.49510384  0.38177265  1
  Zn  Zn95  1  0.11986513  0.74606154  0.87271726  1
  Zn  Zn96  1  0.85348331  0.24759984  0.12195658  1
  Zn  Zn97  1  0.37369803  -0.00048531  0.37331832  1
  Zn  Zn98  1  0.50248490  0.49885536  0.00509946  1
  Zn  Zn99  1  0.75081002  0.86979864  0.12482661  1
  Zn  Zn100  1  -0.04295109  0.21140288  0.25791371  1
  Zn  Zn101  1  0.74503438  0.37658753  0.62599000  1
  Zn  Zn102  1  0.24627895  0.62865570  0.37056204  1
  Zn  Zn103  1  -0.01549526  0.12453195  0.12031647  1
  Zn  Zn104  1  0.87788551  0.62050742  0.24502740  1
  Zn  Zn105  1  0.37554430  0.75047729  0.12656318  1
  Zn  Zn106  1  0.62276160  0.13624668  0.49282275  1
  Zn  Zn107  1  0.14215753  0.16131953  0.21441215  1
  Zn  Zn108  1  0.18791589  0.19201009  0.68813761  1
  Zn  Zn109  1  0.18641452  0.68739616  0.18245367  1
  Zn  Zn110  1  0.19566771  0.68750996  0.68472025  1
  Zn  Zn111  1  0.71391339  0.17889696  0.18560201  1
  Zn  Zn112  1  0.68783808  0.18760904  0.68383807  1
  Zn  Zn113  1  0.69371123  0.69002822  0.18757782  1
  Zn  Zn114  1  0.69547033  0.68065472  0.68034550  1
  Zn  Zn115  1  0.31106770  0.31104965  0.30817909  1
  Zn  Zn116  1  0.31502240  0.31327026  0.80949372  1
  Zn  Zn117  1  0.31795330  0.81319740  0.31153097  1
  Zn  Zn118  1  0.31070418  0.81269250  0.81441009  1
  Zn  Zn119  1  0.80725633  0.30914037  0.32010230  1
  Zn  Zn120  1  0.81326857  0.31302436  0.81312582  1
  Zn  Zn121  1  0.81502466  0.80754282  0.30942070  1
  Zn  Zn122  1  0.83756131  0.81335437  0.81115186  1
  Zn  Zn123  1  0.18748215  0.44246676  0.43750083  1
  Zn  Zn124  1  0.18729162  0.43619464  0.93874011  1
  Zn  Zn125  1  0.18441978  0.93945935  0.43596397  1
  Zn  Zn126  1  0.18735616  0.93893743  0.93365900  1
  Zn  Zn127  1  0.68247419  0.43815139  0.43788198  1
  Zn  Zn128  1  0.68484175  0.44892829  0.93593276  1
  Zn  Zn129  1  0.67576025  0.98768997  0.40965039  1
  Zn  Zn130  1  0.68720240  0.94309585  0.94058501  1
  Zn  Zn131  1  0.31661518  0.05773636  0.06379908  1
  Zn  Zn132  1  0.31508192  0.06389598  0.56243119  1
  Zn  Zn133  1  0.31097979  0.56127698  0.06646515  1
  Zn  Zn134  1  0.31699287  0.56540016  0.56196496  1
  Zn  Zn135  1  0.81626454  0.06383865  0.06198482  1
  Zn  Zn136  1  0.81157345  0.06084867  0.56487496  1
  Zn  Zn137  1  0.81114501  0.56486400  0.05746309  1
  Zn  Zn138  1  0.80888336  0.56447863  0.56189771  1
  Zn  Zn139  1  0.43870108  0.43730951  0.18965021  1
  Zn  Zn140  1  0.44087510  0.43963544  0.68787339  1
  Zn  Zn141  1  0.43575242  0.93752663  0.18680310  1
  Zn  Zn142  1  0.43487160  0.93914328  0.68794310  1
  Zn  Zn143  1  0.91660870  0.39863008  0.20392617  1
  Zn  Zn144  1  0.93823675  0.44088804  0.68900297  1
  Zn  Zn145  1  0.94086195  0.93895543  0.18359209  1
  Zn  Zn146  1  0.93718106  0.94042652  0.68737093  1
  Zn  Zn147  1  0.05595486  0.05130709  0.31365317  1
  Zn  Zn148  1  0.06218785  0.05966997  0.81634837  1
  Zn  Zn149  1  0.05583487  0.56146002  0.31320377  1
  Zn  Zn150  1  0.06209076  0.56177487  0.81522957  1
  Zn  Zn151  1  0.56252533  0.06602639  0.30634426  1
  Zn  Zn152  1  0.56425923  0.06027807  0.81517614  1
  Zn  Zn153  1  0.55937448  0.55557130  0.31739245  1
  Zn  Zn154  1  0.56062911  0.56248343  0.81477698  1
  Zn  Zn155  1  0.43781232  0.18896663  0.43589609  1
  Zn  Zn156  1  0.44013027  0.18775316  0.93768755  1
  Zn  Zn157  1  0.43552832  0.69131059  0.43437865  1
  Zn  Zn158  1  0.43901010  0.68557026  0.94163940  1
  Zn  Zn159  1  0.93035269  0.18624060  0.43896589  1
  Zn  Zn160  1  0.93648918  0.18689091  0.93703207  1
  Zn  Zn161  1  0.93483201  0.68577727  0.43587297  1
  Zn  Zn162  1  0.93948465  0.69389497  0.94156723  1
  Zn  Zn163  1  0.04354793  0.31246865  0.06845767  1
  Zn  Zn164  1  0.06205839  0.31133683  0.56367780  1
  Zn  Zn165  1  0.05963766  0.81473466  0.06254778  1
  Zn  Zn166  1  0.06343904  0.81289403  0.56030536  1
  Zn  Zn167  1  0.57851723  0.31314959  0.07034079  1
  Zn  Zn168  1  0.56435425  0.31673747  0.56632498  1
  Zn  Zn169  1  0.56033469  0.81149686  0.06568835  1
  Zn  Zn170  1  0.56439753  0.81676507  0.56491720  1
  O  O171  1  0.14140283  0.13953892  0.10202616  1
  O  O172  1  0.11782707  0.12440880  0.62152823  1
  O  O173  1  0.12768918  0.61522722  0.11235543  1
  O  O174  1  0.12001546  0.62164207  0.62149881  1
  O  O175  1  0.61906697  0.11444088  0.11627985  1
  O  O176  1  0.61730261  0.11718331  0.62088761  1
  O  O177  1  0.62228175  0.61686255  0.12287414  1
  O  O178  1  0.62361598  0.61957145  0.62517795  1
  O  O179  1  0.38627644  0.37531600  0.36898799  1
  O  O180  1  0.38246876  0.38002762  0.88128833  1
  O  O181  1  0.38506749  0.87777801  0.38153378  1
  O  O182  1  0.38244721  0.87746569  0.88148487  1
  O  O183  1  0.87770883  0.37992299  0.39090559  1
  O  O184  1  0.88187121  0.38412772  0.87665596  1
  O  O185  1  0.88326274  0.86853000  0.38595669  1
  O  O186  1  0.88912446  0.87665393  0.88663101  1
  O  O187  1  0.25226090  0.01126332  0.37110531  1
  O  O188  1  0.24926260  0.01534237  0.86985936  1
  O  O189  1  0.25023850  0.50334663  0.36225412  1
  O  O190  1  0.26181491  0.49835788  0.87081122  1
  O  O191  1  0.78434910  0.01120797  0.38655202  1
  O  O192  1  0.74403197  0.00412871  0.86044795  1
  O  O193  1  0.75675942  0.51458548  0.38918002  1
  O  O194  1  0.76297754  0.50740310  0.87079652  1
  O  O195  1  0.23979010  0.49703711  0.13512065  1
  O  O196  1  0.24699528  0.49514920  0.63014231  1
  O  O197  1  0.25318514  0.99219553  0.13348850  1
  O  O198  1  0.24406814  0.99580279  0.62916153  1
  O  O199  1  0.74036925  0.50476965  0.12807584  1
  O  O200  1  0.75085995  0.49409091  0.62836830  1
  O  O201  1  0.73698703  0.99308615  0.11668668  1
  O  O202  1  0.74222163  0.99367146  0.63396166  1
  O  O203  1  0.01675469  0.38474319  0.26247152  1
  O  O204  1  0.00891264  0.38273489  0.76267830  1
  O  O205  1  0.01110437  0.87784642  0.25905217  1
  O  O206  1  0.00726438  0.88377083  0.76218234  1
  O  O207  1  0.50263110  0.36966486  0.25837321  1
  O  O208  1  0.50798121  0.36995475  0.75814850  1
  O  O209  1  0.50275874  0.86723179  0.25612324  1
  O  O210  1  0.49361763  0.87921804  0.76631613  1
  O  O211  1  0.49429139  0.13509263  0.24367164  1
  O  O212  1  0.49737596  0.13265441  0.74782061  1
  O  O213  1  0.49561982  0.63025669  0.24883560  1
  O  O214  1  0.48592314  0.62224786  0.74922294  1
  O  O215  1  1.03246362  0.12717342  0.23592042  1
  O  O216  1  0.99077444  0.11682873  0.74299284  1
  O  O217  1  0.99188814  0.62616072  0.25352507  1
  O  O218  1  0.99272740  0.62179761  0.74239346  1
  O  O219  1  0.38280405  0.25697817  0.01202778  1
  O  O220  1  0.37351671  0.24435682  0.51563753  1
  O  O221  1  0.36655697  0.75495416  0.00266791  1
  O  O222  1  0.36733200  0.75670117  0.50598716  1
  O  O223  1  0.87640076  0.26729164  -0.00744182  1
  O  O224  1  0.86804326  0.25616777  0.51110828  1
  O  O225  1  0.88087600  0.76479744  0.01061903  1
  O  O226  1  0.87485892  0.75808113  0.50914491  1
  O  O227  1  0.12794598  0.24551311  0.49121948  1
  O  O228  1  0.13083031  0.25989791  0.99333616  1
  O  O229  1  0.13540578  0.74104021  0.50691381  1
  O  O230  1  0.13012519  0.74089902  1.00216751  1
  O  O231  1  0.64049238  0.25224567  0.50810765  1
  O  O232  1  0.61523454  0.23625274  0.99709991  1
  O  O233  1  0.64007991  0.75585050  0.50169159  1
  O  O234  1  0.62214096  0.73471387  1.00677723  1
  O  O235  1  0.49624727  0.24608302  0.13170350  1
  O  O236  1  0.49417822  0.24674439  0.63207574  1
  O  O237  1  0.49808595  0.73747112  0.13373608  1
  O  O238  1  0.48432373  0.75474327  0.61943079  1
  O  O239  1  0.98500045  0.24271667  0.12958096  1
  O  O240  1  0.99349763  0.23601609  0.62023502  1
  O  O241  1  0.98459724  0.75871463  0.12648868  1
  O  O242  1  0.99662321  0.73939224  0.62056886  1
  O  O243  1  0.00704108  0.25559390  0.37483831  1
  O  O244  1  0.00964999  0.25957857  0.87865754  1
  O  O245  1  -0.00096249  0.76149941  0.37567596  1
  O  O246  1  0.00480788  0.76990143  0.88099361  1
  O  O247  1  0.49505999  0.25996218  0.36589789  1
  O  O248  1  0.49327352  0.25993531  0.86490339  1
  O  O249  1  0.49950640  0.76156323  0.36818998  1
  O  O250  1  0.49528823  0.76348114  0.87707323  1
  O  O251  1  0.24398904  0.12572447  0.49281245  1
  O  O252  1  0.25658378  0.13137109  0.99204423  1
  O  O253  1  0.24282719  0.63395726  0.50007316  1
  O  O254  1  0.24373354  0.63207667  1.00023696  1
  O  O255  1  0.75053269  0.14063280  0.51128199  1
  O  O256  1  0.74373145  0.11611585  0.98249571  1
  O  O257  1  0.75567884  0.64067638  0.49220534  1
  O  O258  1  0.73628574  0.62594213  0.99398968  1
  O  O259  1  0.26608148  0.37844464  0.00044207  1
  O  O260  1  0.24463623  0.37638483  0.51451977  1
  O  O261  1  0.25302003  0.87068089  0.00496450  1
  O  O262  1  0.25293038  0.87101078  0.50425827  1
  O  O263  1  0.76132168  0.38051020  -0.01405949  1
  O  O264  1  0.75702583  0.36727774  0.50214015  1
  O  O265  1  0.76590745  0.87968838  -0.00491326  1
  O  O266  1  0.76020622  0.86227224  0.50409975  1
  O  O267  1  0.13046585  0.49625307  0.24407615  1
  O  O268  1  0.13136800  0.49199290  0.74675571  1
  O  O269  1  0.13979142  0.98706801  0.25605909  1
  O  O270  1  0.13046932  0.99344789  0.74429322  1
  O  O271  1  0.62017475  0.49276133  0.24070345  1
  O  O272  1  0.62603782  0.49286375  0.75151581  1
  O  O273  1  0.60924177  0.98807733  0.23263198  1
  O  O274  1  0.63125265  1.00512774  0.73894107  1
  O  O275  1  0.36372432  0.00828941  0.25008395  1
  O  O276  1  0.36676769  0.00941430  0.75177391  1
  O  O277  1  0.36556009  0.50704263  0.24987690  1
  O  O278  1  0.37144907  0.50538865  0.75855966  1
  O  O279  1  0.87400194  -0.00055074  0.25232867  1
  O  O280  1  0.86281930  0.01143573  0.74218772  1
  O  O281  1  0.87455176  0.49007806  0.26676815  1
  O  O282  1  0.87630742  0.50967835  0.75776692  1
  O  O283  1  0.12199686  0.36860888  0.37385762  1
  O  O284  1  0.12070996  0.36819184  0.86916473  1
  O  O285  1  0.11790389  0.87582923  0.36747057  1
  O  O286  1  0.11902590  0.87320719  0.86590391  1
  O  O287  1  0.60796635  0.38369983  0.36314536  1
  O  O288  1  0.61138504  0.38385019  0.87241266  1
  O  O289  1  0.61366642  0.89220607  0.36599660  1
  O  O290  1  0.61599783  0.87338335  0.87269532  1
  O  O291  1  0.38236624  0.13233424  0.12778609  1
  O  O292  1  0.38176239  0.13205519  0.63244537  1
  O  O293  1  0.38280385  0.62513537  0.13616329  1
  O  O294  1  0.37610965  0.63602796  0.63430675  1
  O  O295  1  0.86842358  0.13113644  0.13101762  1
  O  O296  1  0.88048856  0.13175488  0.63492921  1
  O  O297  1  0.87303697  0.63725592  0.12082417  1
  O  O298  1  0.88452998  0.63192348  0.62989504  1
  O  O299  1  0.25696366  0.25070388  0.11533272  1
  O  O300  1  0.25839435  0.25964715  0.62493235  1
  O  O301  1  0.25232610  0.75737570  0.11365872  1
  O  O302  1  0.25928028  0.75783280  0.61498963  1
  O  O303  1  0.73738633  0.25371606  0.11486329  1
  O  O304  1  0.75981336  0.25638490  0.62147574  1
  O  O305  1  0.76733833  0.75494056  0.12746099  1
  O  O306  1  0.76077639  0.75399252  0.61428183  1
  O  O307  1  0.24564990  0.24003809  0.37765281  1
  O  O308  1  0.24460393  0.24083241  0.86983843  1
  O  O309  1  0.25511871  0.75014103  0.38750199  1
  O  O310  1  0.24509859  0.75050623  0.88872242  1
  O  O311  1  0.75229343  0.24676249  0.39518021  1
  O  O312  1  0.74691696  0.23736799  0.87029254  1
  O  O313  1  0.75553928  0.73976029  0.38682783  1
  O  O314  1  0.74179470  0.76156076  0.86023410  1
  O  O315  1  -0.00406534  0.10883911  -0.00459490  1
  O  O316  1  0.00065679  0.11740320  0.50619528  1
  O  O317  1  0.00671770  0.61162602  -0.00552661  1
  O  O318  1  0.00732826  0.62221343  0.50785596  1
  O  O319  1  0.50676375  0.11629616  0.00226224  1
  O  O320  1  0.49900480  0.11808705  0.50664100  1
  O  O321  1  0.50882213  0.62243297  0.01062359  1
  O  O322  1  0.49794573  0.62018398  0.50086031  1
  O  O323  1  0.49778994  0.36665408  0.48581958  1
  O  O324  1  0.49292030  0.37569084  0.99583215  1
  O  O325  1  0.49702786  0.88090258  0.49192382  1
  O  O326  1  0.49572836  0.87975952  0.99389449  1
  O  O327  1  0.99288773  0.37935926  0.49829104  1
  O  O328  1  0.99732076  0.38719966  0.98719413  1
  O  O329  1  0.99561194  0.88076537  0.49466051  1
  O  O330  1  0.99695291  0.88634425  0.99341944  1
  O  O331  1  0.49235809  0.49018298  0.38673990  1
  O  O332  1  0.48801187  0.49215071  0.87884140  1
  O  O333  1  0.49231968  0.99362905  0.38306251  1
  O  O334  1  0.50005874  0.99231092  0.88566926  1
  O  O335  1  0.99168359  0.49270750  0.38679677  1
  O  O336  1  0.99086156  0.49447322  0.88090943  1
  O  O337  1  1.00224451  0.98947832  0.39084287  1
  O  O338  1  1.00697323  0.98754237  0.88605357  1
  O  O339  1  0.00279814  0.00287374  0.10967831  1
  O  O340  1  0.00545907  0.01013364  0.61831495  1
  O  O341  1  0.00983643  0.49238684  0.11587994  1
  O  O342  1  0.00584374  0.51142597  0.62162462  1
  O  O343  1  0.50183942  0.00316179  0.11242535  1
  O  O344  1  0.50537319  0.00465355  0.62184031  1
  O  O345  1  0.50311138  0.51301823  0.12813329  1
  O  O346  1  0.49545616  0.50484313  0.61135473  1
  O  O347  1  0.23974895  0.38315022  0.24804914  1
  O  O348  1  0.24319734  0.38118516  0.74215369  1
  O  O349  1  0.24790984  0.87963892  0.24360652  1
  O  O350  1  0.24229963  0.88212776  0.74594570  1
  O  O351  1  0.72908575  0.37730131  0.26690047  1
  O  O352  1  0.73505806  0.37453889  0.75497118  1
  O  O353  1  0.73432033  0.87046555  0.25402053  1
  O  O354  1  0.74688776  0.87738918  0.75047406  1
  O  O355  1  0.24633146  0.11751401  0.25716712  1
  O  O356  1  0.25463035  0.12289516  0.75542349  1
  O  O357  1  0.25674350  0.62040375  0.24861131  1
  O  O358  1  0.25872651  0.61685879  0.75307511  1
  O  O359  1  0.74059418  0.10510300  0.26024325  1
  O  O360  1  0.75319357  0.12024122  0.75802500  1
  O  O361  1  0.75782513  0.63135386  0.26711741  1
  O  O362  1  0.76772409  0.62740400  0.75448059  1
  O  O363  1  0.36523426  0.12632570  0.36700336  1
  O  O364  1  0.36769628  0.12665656  0.86813348  1
  O  O365  1  0.37256797  0.62385459  0.36176708  1
  O  O366  1  0.37375118  0.61740537  0.87114385  1
  O  O367  1  0.88880781  0.14196968  0.34267791  1
  O  O368  1  0.86362568  0.13005810  0.86370187  1
  O  O369  1  0.86820030  0.61387183  0.37715397  1
  O  O370  1  0.87779444  0.62418757  0.86818498  1
  O  O371  1  0.12395031  0.37991955  0.13390895  1
  O  O372  1  0.12936037  0.37942179  0.63329090  1
  O  O373  1  0.13779389  0.87270340  0.13156780  1
  O  O374  1  0.12788132  0.88101247  0.63158674  1
  O  O375  1  0.61953524  0.39290434  0.13864905  1
  O  O376  1  0.62340161  0.38309675  0.63791950  1
  O  O377  1  0.62614906  0.88018866  0.13091195  1
  O  O378  1  0.63392938  0.88316661  0.62734237  1
  O  O379  1  0.13448652  0.26229026  0.26785270  1
  O  O380  1  0.12733342  0.26404431  0.75710390  1
  O  O381  1  0.12565641  0.76170552  0.24562192  1
  O  O382  1  0.13181227  0.76267142  0.74837676  1
  O  O383  1  0.61285705  0.26545066  0.24610835  1
  O  O384  1  0.61282191  0.25659181  0.74415898  1
  O  O385  1  0.61307550  0.75816687  0.24454924  1
  O  O386  1  0.62628995  0.75486253  0.74674016  1
  O  O387  1  0.37908566  0.24629813  0.23608857  1
  O  O388  1  0.38446914  0.24599919  0.74095285  1
  O  O389  1  0.38603007  0.74276531  0.24814939  1
  O  O390  1  0.36484296  0.74172893  0.74153374  1
  O  O391  1  0.87844463  0.29106192  0.23790928  1
  O  O392  1  0.87288189  0.24358940  0.73921883  1
  O  O393  1  0.88092484  0.75249587  0.23459306  1
  O  O394  1  0.87947745  0.74417856  0.73344555  1
  O  O395  1  0.38853857  0.50330405  0.49769982  1
  O  O396  1  0.37744990  0.49419841  0.99476057  1
  O  O397  1  0.38709112  0.99374352  0.50266534  1
  O  O398  1  0.38328534  0.99254392  0.99621764  1
  O  O399  1  0.88032534  0.49193678  0.49961642  1
  O  O400  1  0.88075208  0.49801434  0.99036834  1
  O  O401  1  0.88526714  0.98698143  0.51520822  1
  O  O402  1  0.88311194  0.98691560  1.00074282  1
  O  O403  1  0.11583782  -0.00079657  -0.00096121  1
  O  O404  1  0.11732727  0.00678829  0.50766439  1
  O  O405  1  0.11895084  0.50407832  0.00626910  1
  O  O406  1  0.12030821  0.50828805  0.50936793  1
  O  O407  1  0.61664468  0.00510792  0.00627756  1
  O  O408  1  0.61046500  -0.00679571  0.51440936  1
  O  O409  1  0.62299334  0.50677987  0.01650984  1
  O  O410  1  0.60058950  0.49041862  0.50037735  1
  O  O411  1  0.37350120  0.36853448  0.11895627  1
  O  O412  1  0.36620792  0.36733543  0.63381381  1
  O  O413  1  0.36455691  0.87311693  0.11856304  1
  O  O414  1  0.36777367  0.87134272  0.61999861  1
  O  O415  1  0.87354450  0.38318894  0.10002955  1
  O  O416  1  0.87951307  0.36776166  0.61835540  1
  O  O417  1  0.87301340  0.87386370  0.11276142  1
  O  O418  1  0.87124085  0.86748549  0.62100433  1
  O  O419  1  0.12984426  0.13114523  0.38164251  1
  O  O420  1  0.13084402  0.14038741  0.86835891  1
  O  O421  1  0.12592071  0.61888972  0.38964760  1
  O  O422  1  0.12780141  0.62507988  0.88703384  1
  O  O423  1  0.62653213  0.09089062  0.39086148  1
  O  O424  1  0.63665883  0.12207896  0.88157081  1
  O  O425  1  0.63985857  0.61970277  0.37075105  1
  O  O426  1  0.62366085  0.62144420  0.89123579  1
