# generated using pymatgen
data_V85Zn86O256
_symmetry_space_group_name_H-M   'P 1'
_cell_length_a   16.93574038
_cell_length_b   16.93225726
_cell_length_c   16.94408633
_cell_angle_alpha   89.99867260
_cell_angle_beta   89.88059843
_cell_angle_gamma   90.04280663
_symmetry_Int_Tables_number   1
_chemical_formula_structural   V85Zn86O256
_chemical_formula_sum   'V85 Zn86 O256'
_cell_volume   4858.87959182
_cell_formula_units_Z   1
loop_
 _symmetry_equiv_pos_site_id
 _symmetry_equiv_pos_as_xyz
  1  'x, y, z'
loop_
 _atom_site_type_symbol
 _atom_site_label
 _atom_site_symmetry_multiplicity
 _atom_site_fract_x
 _atom_site_fract_y
 _atom_site_fract_z
 _atom_site_occupancy
  V  V0  1  0.49812350  0.24376375  0.73081986  1
  V  V1  1  0.75756501  0.00834549  0.75123726  1
  V  V2  1  0.62180304  0.50400254  0.62755855  1
  V  V3  1  0.24414292  0.49734179  0.73658265  1
  V  V4  1  0.75467369  0.87071387  0.12487660  1
  V  V5  1  0.74608285  0.37393647  0.62940940  1
  V  V6  1  0.88018720  0.37275794  0.49775723  1
  V  V7  1  0.49136120  0.49400409  0.00006240  1
  V  V8  1  0.87688699  0.00332005  0.37132154  1
  V  V9  1  0.87405510  0.23312245  0.12960395  1
  V  V10  1  0.37263620  0.49517869  0.37135960  1
  V  V11  1  0.88177917  0.62466817  0.24327050  1
  V  V12  1  0.36865861  0.48975400  0.87726390  1
  V  V13  1  0.62575260  0.74910430  0.87294093  1
  V  V14  1  0.13204219  0.38307379  0.25710034  1
  V  V15  1  -0.00156780  0.24969772  0.25104828  1
  V  V16  1  0.38552005  0.74316254  0.62214693  1
  V  V17  1  0.87412836  0.24307622  0.63649060  1
  V  V18  1  0.87457279  0.49635576  0.87749986  1
  V  V19  1  0.74999307  0.25048049  0.50022975  1
  V  V20  1  0.26284624  0.12722613  0.37528267  1
  V  V21  1  0.01030099  0.87966236  0.87254135  1
  V  V22  1  0.00714725  0.00821362  0.00965356  1
  V  V23  1  0.75100042  0.62253210  0.87422264  1
  V  V24  1  0.62490475  0.87607296  0.74977195  1
  V  V25  1  0.12399156  0.50432286  0.12879088  1
  V  V26  1  0.37069911  0.37540628  0.51901441  1
  V  V27  1  0.87783012  0.74786043  0.62447919  1
  V  V28  1  0.12666883  0.88833607  0.24971242  1
  V  V29  1  0.12147942  0.12527218  0.50328231  1
  V  V30  1  0.75182517  0.74884236  0.49898969  1
  V  V31  1  0.25162067  0.88618522  0.12577983  1
  V  V32  1  0.37103194  0.62194779  0.24712210  1
  V  V33  1  0.11943348  0.25508163  0.37913994  1
  V  V34  1  0.62727549  0.00565799  0.62526338  1
  V  V35  1  0.74534009  0.49467066  0.75286996  1
  V  V36  1  0.75322769  0.12705807  0.36616000  1
  V  V37  1  0.12537218  0.61754524  0.50342256  1
  V  V38  1  0.11717451  0.62877957  0.00486685  1
  V  V39  1  0.88212915  0.49494152  0.37525114  1
  V  V40  1  0.75446113  0.13209756  0.87476033  1
  V  V41  1  0.62623415  0.49471824  0.12219107  1
  V  V42  1  0.00102460  0.37387708  0.87829856  1
  V  V43  1  -0.00077520  -0.00191330  0.49925524  1
  V  V44  1  0.74236455  0.25218098  0.01509713  1
  V  V45  1  0.26725443  0.00520026  0.25751390  1
  V  V46  1  0.62084323  0.25189215  0.37080874  1
  V  V47  1  0.24989930  0.62537572  0.87459392  1
  V  V48  1  0.75614867  0.00116017  0.24561666  1
  V  V49  1  0.50124065  0.88688982  0.37697943  1
  V  V50  1  0.62631932  0.12070298  0.49960874  1
  V  V51  1  0.00842917  0.75348996  0.74794918  1
  V  V52  1  0.87264286  0.37415810  0.01477171  1
  V  V53  1  0.75097803  0.87395620  0.62479154  1
  V  V54  1  0.49864471  0.50592509  0.50296431  1
  V  V55  1  0.24845067  0.62074128  0.36984222  1
  V  V56  1  0.50141799  0.74852971  0.25063227  1
  V  V57  1  0.61957099  0.37794230  0.24862691  1
  V  V58  1  0.50381588  0.36729526  0.86999600  1
  V  V59  1  0.25151221  -0.01011537  0.75040419  1
  V  V60  1  0.00333055  0.61432018  0.62594334  1
  V  V61  1  0.25089716  0.74996082  0.49890674  1
  V  V62  1  0.37701287  0.00028766  0.88070543  1
  V  V63  1  0.00483745  0.74922647  0.24026965  1
  V  V64  1  0.62407512  0.00006073  0.11758569  1
  V  V65  1  0.12634150  0.37294890  0.73823637  1
  V  V66  1  0.49690692  0.87392437  0.88218418  1
  V  V67  1  0.36635538  0.23630520  0.11135928  1
  V  V68  1  0.87736074  0.87741230  -0.00630160  1
  V  V69  1  0.12472649  0.75075211  0.37305460  1
  V  V70  1  0.62569473  0.74931223  0.37484379  1
  V  V71  1  0.12695695  0.75336784  0.87215374  1
  V  V72  1  0.38113425  0.62159215  0.74721607  1
  V  V73  1  0.75079974  0.62354564  0.37545453  1
  V  V74  1  0.45312119  0.05618060  0.55921251  1
  V  V75  1  0.13353465  0.24996960  0.89165332  1
  V  V76  1  0.25316453  0.75878214  -0.00103336  1
  V  V77  1  0.75214538  0.74834708  -0.00180886  1
  V  V78  1  0.25739502  0.38089766  0.10800172  1
  V  V79  1  0.38074047  0.87447199  0.49693121  1
  V  V80  1  0.75235220  0.49570462  0.24589611  1
  V  V81  1  0.62369587  0.62229480  -0.00034485  1
  V  V82  1  0.12178285  -0.01072949  0.63181101  1
  V  V83  1  0.37621847  0.75530073  0.11960529  1
  V  V84  1  0.24999698  0.25513813  0.51653757  1
  Zn  Zn85  1  0.48711079  0.00179613  0.01459466  1
  Zn  Zn86  1  0.88330679  0.74400166  0.11891266  1
  Zn  Zn87  1  0.61902792  0.62669090  0.50374212  1
  Zn  Zn88  1  0.88359633  0.01107693  0.86900365  1
  Zn  Zn89  1  0.24813592  0.86888660  0.62175782  1
  Zn  Zn90  1  0.61430771  0.13063230  -0.00359711  1
  Zn  Zn91  1  0.62424327  0.25134394  0.87177970  1
  Zn  Zn92  1  0.03302548  0.12571412  0.12566392  1
  Zn  Zn93  1  0.24909577  0.13365433  0.87654101  1
  Zn  Zn94  1  0.49825850  0.62455920  0.12209963  1
  Zn  Zn95  1  -0.00899690  0.11736740  0.63504907  1
  Zn  Zn96  1  0.00064264  0.23934204  0.75928471  1
  Zn  Zn97  1  0.49585808  0.37469900  0.37407818  1
  Zn  Zn98  1  0.87535590  0.87394285  0.49647541  1
  Zn  Zn99  1  0.87806590  0.62212916  0.75140043  1
  Zn  Zn100  1  -0.00087257  0.87500016  0.37186516  1
  Zn  Zn101  1  0.62826284  0.87206543  0.24919393  1
  Zn  Zn102  1  0.00542222  0.49291383  0.50051899  1
  Zn  Zn103  1  0.47292373  0.22039971  0.24260431  1
  Zn  Zn104  1  0.50417328  0.74289845  0.74605961  1
  Zn  Zn105  1  0.37468284  0.12694089  0.74242682  1
  Zn  Zn106  1  -0.00288765  0.50478695  0.00685020  1
  Zn  Zn107  1  0.19705896  0.20165263  0.19729642  1
  Zn  Zn108  1  0.18213160  0.17945432  0.69626409  1
  Zn  Zn109  1  0.18874562  0.69128239  0.18540639  1
  Zn  Zn110  1  0.19128529  0.68554851  0.68523378  1
  Zn  Zn111  1  0.65782570  0.17816370  0.19517876  1
  Zn  Zn112  1  0.68068044  0.18994654  0.69267132  1
  Zn  Zn113  1  0.68858836  0.68314859  0.18581497  1
  Zn  Zn114  1  0.69031237  0.68334373  0.68860809  1
  Zn  Zn115  1  0.30862230  0.30943690  0.31032130  1
  Zn  Zn116  1  0.31273551  0.31064553  0.80613405  1
  Zn  Zn117  1  0.31477081  0.81286729  0.31294263  1
  Zn  Zn118  1  0.31288760  0.81292808  0.80732107  1
  Zn  Zn119  1  0.81106121  0.31313180  0.30907971  1
  Zn  Zn120  1  0.80970273  0.31426954  0.81804411  1
  Zn  Zn121  1  0.81772733  0.81251012  0.31071393  1
  Zn  Zn122  1  0.81691114  0.81362102  0.81045644  1
  Zn  Zn123  1  0.19137932  0.43717775  0.43890480  1
  Zn  Zn124  1  0.18114598  0.44130045  0.93420764  1
  Zn  Zn125  1  0.18963141  0.93933666  0.43567334  1
  Zn  Zn126  1  0.20428345  0.96303847  0.95444842  1
  Zn  Zn127  1  0.68950982  0.43771115  0.43909313  1
  Zn  Zn128  1  0.68586081  0.43078666  0.94049633  1
  Zn  Zn129  1  0.68795676  0.93681700  0.43656438  1
  Zn  Zn130  1  0.69176794  0.93837015  0.93283133  1
  Zn  Zn131  1  0.23896838  0.09742186  0.07510592  1
  Zn  Zn132  1  0.29303277  0.06215440  0.56182892  1
  Zn  Zn133  1  0.30571391  0.56446756  0.06265778  1
  Zn  Zn134  1  0.31260663  0.56337418  0.56117808  1
  Zn  Zn135  1  0.81117434  0.06261023  0.05505383  1
  Zn  Zn136  1  0.81036637  0.06267509  0.55854506  1
  Zn  Zn137  1  0.81142101  0.56050454  0.06327643  1
  Zn  Zn138  1  0.81397130  0.56097705  0.56258696  1
  Zn  Zn139  1  0.43689035  0.43602456  0.18678533  1
  Zn  Zn140  1  0.44090059  0.43835578  0.69391440  1
  Zn  Zn141  1  0.43845790  0.93453348  0.19142595  1
  Zn  Zn142  1  0.43386506  0.92783504  0.69376135  1
  Zn  Zn143  1  0.94555987  0.43365752  0.19069418  1
  Zn  Zn144  1  0.93502485  0.43106762  0.69147902  1
  Zn  Zn145  1  0.93756594  0.93773407  0.18538355  1
  Zn  Zn146  1  0.93815371  0.93337514  0.68799884  1
  Zn  Zn147  1  0.06564459  0.06921858  0.31324730  1
  Zn  Zn148  1  0.06496798  0.06515713  0.81302840  1
  Zn  Zn149  1  0.06132412  0.56333089  0.31255497  1
  Zn  Zn150  1  0.06352662  0.56101716  0.81344129  1
  Zn  Zn151  1  0.56716725  0.06066964  0.30656802  1
  Zn  Zn152  1  0.56123069  0.06919866  0.81531597  1
  Zn  Zn153  1  0.56031706  0.56265602  0.31387042  1
  Zn  Zn154  1  0.56158089  0.55729962  0.81440907  1
  Zn  Zn155  1  0.43751566  0.20011966  0.44090877  1
  Zn  Zn156  1  0.43017033  0.18117685  0.94742079  1
  Zn  Zn157  1  0.43758928  0.68680162  0.43420418  1
  Zn  Zn158  1  0.43721712  0.68439734  0.93452643  1
  Zn  Zn159  1  0.93757883  0.18658038  0.43918198  1
  Zn  Zn160  1  0.93745405  0.18890149  0.94182472  1
  Zn  Zn161  1  0.94027801  0.68527457  0.43391131  1
  Zn  Zn162  1  0.93833363  0.68887834  0.93357663  1
  Zn  Zn163  1  0.06122234  0.31683376  0.06983433  1
  Zn  Zn164  1  0.05756325  0.30969881  0.56581303  1
  Zn  Zn165  1  0.06821559  0.82152061  0.06156158  1
  Zn  Zn166  1  0.06126743  0.81023244  0.55778442  1
  Zn  Zn167  1  0.54954085  0.31043763  0.06320820  1
  Zn  Zn168  1  0.56351196  0.31935254  0.55854311  1
  Zn  Zn169  1  0.56529399  0.81376729  0.06142416  1
  Zn  Zn170  1  0.56383972  0.81405766  0.56078816  1
  O  O171  1  0.14592592  0.13297933  0.12610900  1
  O  O172  1  0.12443540  0.11261545  0.61432138  1
  O  O173  1  0.13234493  0.61905258  0.11690763  1
  O  O174  1  0.11578781  0.63078736  0.61485799  1
  O  O175  1  0.64014037  0.10189663  0.11198327  1
  O  O176  1  0.63051160  0.11395792  0.61722132  1
  O  O177  1  0.62186403  0.61369126  0.11879662  1
  O  O178  1  0.63311960  0.60924296  0.62113521  1
  O  O179  1  0.37072840  0.38784284  0.37410682  1
  O  O180  1  0.38008022  0.38634874  0.87046772  1
  O  O181  1  0.38484120  0.86896413  0.38778019  1
  O  O182  1  0.39129848  0.87867539  0.85937319  1
  O  O183  1  0.86693148  0.38339476  0.38429144  1
  O  O184  1  0.88192981  0.37966532  0.88417906  1
  O  O185  1  0.87603561  0.88926120  0.37570388  1
  O  O186  1  0.88570125  0.87577145  0.88138201  1
  O  O187  1  0.24998910  0.01731193  0.37407209  1
  O  O188  1  0.26739982  -0.02613514  0.85666302  1
  O  O189  1  0.25764385  0.51288165  0.37831034  1
  O  O190  1  0.25489645  0.50585987  0.86955737  1
  O  O191  1  0.75563047  0.00563300  0.36659648  1
  O  O192  1  0.75390587  0.00875844  0.86631482  1
  O  O193  1  0.75778404  0.50810176  0.36970371  1
  O  O194  1  0.75261270  0.49999529  0.86959838  1
  O  O195  1  0.23716127  0.49356076  0.12392307  1
  O  O196  1  0.24825829  0.50683820  0.63755881  1
  O  O197  1  0.25529350  0.98887878  0.13791986  1
  O  O198  1  0.23978892  0.99400319  0.63282591  1
  O  O199  1  0.73952291  0.50458597  0.13447376  1
  O  O200  1  0.74791603  0.49310685  0.63317270  1
  O  O201  1  0.75030495  0.99048131  0.12870391  1
  O  O202  1  0.74491389  0.99546062  0.63076408  1
  O  O203  1  0.01661231  0.36218194  0.24662094  1
  O  O204  1  0.00904863  0.37264024  0.75971967  1
  O  O205  1  0.00960164  0.87102495  0.25027394  1
  O  O206  1  -0.00119046  0.86605494  0.75901833  1
  O  O207  1  0.51279988  0.38149399  0.25488750  1
  O  O208  1  0.49513497  0.36459493  0.76353169  1
  O  O209  1  0.50164846  0.86152606  0.25784493  1
  O  O210  1  0.51533945  0.86960464  0.75284742  1
  O  O211  1  0.55216436  0.14573546  0.24047717  1
  O  O212  1  0.49636653  0.13838813  0.74721434  1
  O  O213  1  0.49297029  0.63523990  0.24898697  1
  O  O214  1  0.48599962  0.62259349  0.75521601  1
  O  O215  1  1.01135909  0.14309925  0.24613985  1
  O  O216  1  0.99905581  0.12655129  0.74687630  1
  O  O217  1  0.99293180  0.63491549  0.25333498  1
  O  O218  1  0.99989483  0.63114649  0.74272997  1
  O  O219  1  0.36608188  0.25141123  0.01029463  1
  O  O220  1  0.36664991  0.26768522  0.50042469  1
  O  O221  1  0.36741859  0.74453284  0.00835672  1
  O  O222  1  0.37229282  0.75428407  0.50397667  1
  O  O223  1  0.86918856  0.25645340  0.01249719  1
  O  O224  1  0.86809192  0.25549462  0.50636492  1
  O  O225  1  0.87036379  0.75636134  -0.00038811  1
  O  O226  1  0.87145471  0.75028820  0.50567059  1
  O  O227  1  0.12724879  0.24594549  0.49839302  1
  O  O228  1  0.12283797  0.25858823  0.98979727  1
  O  O229  1  0.12931828  0.74114868  0.49155877  1
  O  O230  1  0.13235508  0.74685337  0.99479126  1
  O  O231  1  0.62890016  0.24351127  0.49182465  1
  O  O232  1  0.63044573  0.25277840  1.00144046  1
  O  O233  1  0.63329320  0.74597133  0.49525741  1
  O  O234  1  0.63185109  0.74360304  0.99330798  1
  O  O235  1  0.47335596  0.25459287  0.12507101  1
  O  O236  1  0.50280082  0.25582647  0.63210827  1
  O  O237  1  0.49438089  0.74971037  0.13053132  1
  O  O238  1  0.49025088  0.75016616  0.62470856  1
  O  O239  1  0.99210066  0.24544418  0.13161581  1
  O  O240  1  0.98135458  0.24752056  0.62629138  1
  O  O241  1  1.00246459  0.75597601  0.13617377  1
  O  O242  1  0.99494531  0.74477062  0.62969850  1
  O  O243  1  0.01198927  0.24607140  0.37268666  1
  O  O244  1  0.00384128  0.26229424  0.87818431  1
  O  O245  1  0.00719590  0.75275200  0.36496215  1
  O  O246  1  0.00540509  0.75598149  0.86514704  1
  O  O247  1  0.51149883  0.25309717  0.37010504  1
  O  O248  1  0.49587195  0.26423532  0.88292149  1
  O  O249  1  0.50714610  0.75260396  0.36732888  1
  O  O250  1  0.50791998  0.75613502  0.87214645  1
  O  O251  1  0.24099028  0.13382746  0.49218664  1
  O  O252  1  0.24059165  0.07088112  0.96915859  1
  O  O253  1  0.24361541  0.62984476  0.49233014  1
  O  O254  1  0.24145580  0.63887069  0.99408244  1
  O  O255  1  0.74291358  0.13068520  0.49029050  1
  O  O256  1  0.74655734  0.13632776  0.99229266  1
  O  O257  1  0.75256906  0.62850240  0.48735978  1
  O  O258  1  0.74443325  0.62815577  0.99362505  1
  O  O259  1  0.24572489  0.38391451  0.00971127  1
  O  O260  1  0.26115008  0.37050331  0.50159257  1
  O  O261  1  0.24527220  0.86597706  0.01015422  1
  O  O262  1  0.26030653  0.86921709  0.49816003  1
  O  O263  1  0.76008977  0.36403532  -0.00308974  1
  O  O264  1  0.75828502  0.36946739  0.50758175  1
  O  O265  1  0.76091571  0.86986023  0.00232862  1
  O  O266  1  0.75172429  0.86790143  0.50741663  1
  O  O267  1  0.12046887  0.49078321  0.24703090  1
  O  O268  1  0.13216123  0.48658699  0.75723430  1
  O  O269  1  0.13398395  0.99056070  0.25999562  1
  O  O270  1  0.13701015  1.00050806  0.74334330  1
  O  O271  1  0.63151175  0.49756550  0.24437852  1
  O  O272  1  0.63615775  0.50245272  0.74364694  1
  O  O273  1  0.64123371  0.99179400  0.23780141  1
  O  O274  1  0.63288613  0.99419989  0.74334924  1
  O  O275  1  0.36688799  -0.00223662  0.25437593  1
  O  O276  1  0.36459399  0.00233568  0.74683767  1
  O  O277  1  0.38206626  0.51405825  0.25692758  1
  O  O278  1  0.36597987  0.50434787  0.75655046  1
  O  O279  1  0.86505243  -0.00193754  0.25548632  1
  O  O280  1  0.86101221  -0.00714020  0.74970461  1
  O  O281  1  0.87117581  0.50371986  0.25445391  1
  O  O282  1  0.86460184  0.49840158  0.75847863  1
  O  O283  1  0.12816049  0.37117089  0.36776874  1
  O  O284  1  0.11693755  0.36769606  0.87037167  1
  O  O285  1  0.12620391  0.86764707  0.36761886  1
  O  O286  1  0.11327719  0.86825701  0.88175861  1
  O  O287  1  0.62386613  0.36847385  0.37156546  1
  O  O288  1  0.60719189  0.37618706  0.87535191  1
  O  O289  1  0.62024738  0.86656489  0.37318500  1
  O  O290  1  0.62189363  0.87074489  0.86563589  1
  O  O291  1  0.34597772  0.13796757  0.11594608  1
  O  O292  1  0.38782591  0.11284719  0.61248980  1
  O  O293  1  0.37400846  0.63436926  0.13217942  1
  O  O294  1  0.37205953  0.63101884  0.63293877  1
  O  O295  1  0.87359172  0.13324393  0.12357730  1
  O  O296  1  0.86862374  0.14024357  0.62077544  1
  O  O297  1  0.87089371  0.62482821  0.13892115  1
  O  O298  1  0.88209696  0.63473092  0.62510190  1
  O  O299  1  0.25646662  0.27344967  0.12664117  1
  O  O300  1  0.24305627  0.24011984  0.61464613  1
  O  O301  1  0.25871493  0.75844105  0.11794503  1
  O  O302  1  0.26085062  0.74881363  0.61519120  1
  O  O303  1  0.75365240  0.24399971  0.11809723  1
  O  O304  1  0.75445987  0.25603880  0.62297622  1
  O  O305  1  0.75319261  0.75459304  0.11752240  1
  O  O306  1  0.75906660  0.75148121  0.62095602  1
  O  O307  1  0.23853624  0.24281012  0.38375181  1
  O  O308  1  0.23831816  0.25295067  0.87486618  1
  O  O309  1  0.24661809  0.74019479  0.37952508  1
  O  O310  1  0.24696000  0.74919381  0.88051160  1
  O  O311  1  0.74449238  0.24288775  0.37895786  1
  O  O312  1  0.74574145  0.24636516  0.88374486  1
  O  O313  1  0.74741465  0.74304989  0.37692277  1
  O  O314  1  0.74662183  0.74452585  0.87814303  1
  O  O315  1  0.00105156  0.11188825  0.00160872  1
  O  O316  1  0.00466289  0.11440837  0.50546334  1
  O  O317  1  0.01311479  0.62811359  -0.00299465  1
  O  O318  1  0.00818832  0.62368949  0.50740615  1
  O  O319  1  0.50401231  0.11030788  -0.00968518  1
  O  O320  1  0.50619340  0.12210580  0.49659504  1
  O  O321  1  0.50762868  0.61362218  -0.00313882  1
  O  O322  1  0.49757508  0.61071017  0.49789417  1
  O  O323  1  0.48531199  0.38307953  0.49635251  1
  O  O324  1  0.49916280  0.38857741  0.98954843  1
  O  O325  1  0.49433622  0.87172080  0.48965315  1
  O  O326  1  0.50705858  0.87878956  0.98521490  1
  O  O327  1  0.98522122  0.37595662  0.50512433  1
  O  O328  1  0.99081202  0.37816025  0.99522336  1
  O  O329  1  0.99897117  0.88653848  0.49443445  1
  O  O330  1  0.99014751  0.87736472  0.99426325  1
  O  O331  1  0.49032880  0.49921681  0.38341946  1
  O  O332  1  0.49066359  0.49031508  0.87859022  1
  O  O333  1  0.50884466  0.98641968  0.36761062  1
  O  O334  1  0.48836107  0.99009194  0.86313604  1
  O  O335  1  0.98546147  0.50479407  0.37796132  1
  O  O336  1  0.99374400  0.49047984  0.87853496  1
  O  O337  1  0.99284223  1.00281710  0.38006066  1
  O  O338  1  1.00087512  0.99393794  0.88314897  1
  O  O339  1  -0.00601007  0.00687274  0.11452869  1
  O  O340  1  0.00348324  -0.00204676  0.61742841  1
  O  O341  1  0.01647613  0.49657941  0.12401970  1
  O  O342  1  -0.00957124  0.51194777  0.62472575  1
  O  O343  1  0.51939452  -0.01383225  0.12796260  1
  O  O344  1  0.50790190  -0.00312592  0.62517385  1
  O  O345  1  0.50461200  0.50283660  0.11554875  1
  O  O346  1  0.51061666  0.49265885  0.61904431  1
  O  O347  1  0.23411460  0.37744090  0.24838583  1
  O  O348  1  0.23584265  0.38220111  0.75191566  1
  O  O349  1  0.24686601  0.88320181  0.24909805  1
  O  O350  1  0.25341379  0.88387200  0.73786629  1
  O  O351  1  0.74339584  0.39231006  0.25552623  1
  O  O352  1  0.75183773  0.38254541  0.74251391  1
  O  O353  1  0.75346150  0.87948913  0.23982908  1
  O  O354  1  0.74131996  0.87972051  0.74502507  1
  O  O355  1  0.24669705  0.12012880  0.26927015  1
  O  O356  1  0.25384659  0.10931004  0.75493896  1
  O  O357  1  0.25892180  0.63193577  0.25818135  1
  O  O358  1  0.25617769  0.61823820  0.75633455  1
  O  O359  1  0.74437590  0.11720194  0.26029103  1
  O  O360  1  0.74606934  0.11819469  0.75758840  1
  O  O361  1  0.75648181  0.61743867  0.25904766  1
  O  O362  1  0.75524544  0.61524564  0.75751096  1
  O  O363  1  0.36152102  0.13484303  0.38341028  1
  O  O364  1  0.37316722  0.10723327  0.86987337  1
  O  O365  1  0.36781423  0.61780769  0.36841437  1
  O  O366  1  0.36770644  0.61821132  0.86610047  1
  O  O367  1  0.86626127  0.11412700  0.38010288  1
  O  O368  1  0.86122485  0.12726160  0.88010243  1
  O  O369  1  0.86861550  0.61896485  0.36492980  1
  O  O370  1  0.86970303  0.61413188  0.87600000  1
  O  O371  1  0.13391040  0.38286019  0.13551224  1
  O  O372  1  0.11634427  0.37574834  0.63943221  1
  O  O373  1  0.13948736  0.86847941  0.13903076  1
  O  O374  1  0.12500144  0.88617588  0.61664611  1
  O  O375  1  0.61822888  0.38698222  0.13198838  1
  O  O376  1  0.63945427  0.38558342  0.61732488  1
  O  O377  1  0.64141230  0.87730214  0.12463259  1
  O  O378  1  0.63066796  0.88426384  0.62924534  1
  O  O379  1  0.12252857  0.26280021  0.26270855  1
  O  O380  1  0.12309984  0.26312004  0.75437933  1
  O  O381  1  0.12106268  0.75675353  0.25584591  1
  O  O382  1  0.11581235  0.74576855  0.75329731  1
  O  O383  1  0.64541284  0.27138984  0.26022065  1
  O  O384  1  0.60563405  0.24994450  0.75412386  1
  O  O385  1  0.61821193  0.74901752  0.25350103  1
  O  O386  1  0.62679255  0.75639059  0.75371502  1
  O  O387  1  0.36784222  0.25318166  0.23397745  1
  O  O388  1  0.38960888  0.24626663  0.75068849  1
  O  O389  1  0.38215756  0.74144583  0.24454834  1
  O  O390  1  0.37618398  0.73956674  0.73944280  1
  O  O391  1  0.88437569  0.25803499  0.24128233  1
  O  O392  1  0.87333414  0.25729317  0.73796502  1
  O  O393  1  0.88565134  0.74190514  0.24789901  1
  O  O394  1  0.88637087  0.74685895  0.74163847  1
  O  O395  1  0.37775708  0.49203274  0.49408012  1
  O  O396  1  0.38085833  0.51171394  0.98901451  1
  O  O397  1  0.38474664  0.99595298  0.50903105  1
  O  O398  1  0.37660143  0.98423440  0.97845073  1
  O  O399  1  0.87403739  0.49140027  0.49192712  1
  O  O400  1  0.87504951  0.49249979  0.99597439  1
  O  O401  1  0.88241881  0.99852575  0.49303930  1
  O  O402  1  0.88336532  0.99111798  0.99490598  1
  O  O403  1  0.10319825  -0.01725026  0.00703810  1
  O  O404  1  0.11785348  0.00637449  0.50410180  1
  O  O405  1  0.12289371  0.51256376  0.00683682  1
  O  O406  1  0.12332494  0.51272808  0.49435382  1
  O  O407  1  0.62898624  -0.01021565  0.01330949  1
  O  O408  1  0.63096256  0.01164383  0.50653967  1
  O  O409  1  0.61929302  0.50173370  0.00672368  1
  O  O410  1  0.61552034  0.50039593  0.50624704  1
  O  O411  1  0.35879546  0.38664358  0.12273425  1
  O  O412  1  0.37328966  0.38308474  0.61675180  1
  O  O413  1  0.36860740  0.86225959  0.13143296  1
  O  O414  1  0.37701398  0.86481131  0.61190032  1
  O  O415  1  0.87828834  0.37192452  0.11698241  1
  O  O416  1  0.86463399  0.36654509  0.61910292  1
  O  O417  1  0.86756754  0.87137561  0.11518543  1
  O  O418  1  0.87072922  0.86188305  0.62258172  1
  O  O419  1  0.12936218  0.13318683  0.38977641  1
  O  O420  1  0.12256913  0.14854831  0.87127609  1
  O  O421  1  0.13209370  0.63011387  0.37887358  1
  O  O422  1  0.13073089  0.63301998  0.88160418  1
  O  O423  1  0.63444347  0.13107055  0.38327675  1
  O  O424  1  0.63839385  0.12745322  0.87727613  1
  O  O425  1  0.63425952  0.62953811  0.37686207  1
  O  O426  1  0.63097107  0.62804639  0.87893750  1
