# generated using pymatgen
data_Ca24Ti8Al207.04Au55.352
_symmetry_space_group_name_H-M   'P 1'
_cell_length_a   17.32620000
_cell_length_b   17.32620000
_cell_length_c   17.32620000
_cell_angle_alpha   90.00000000
_cell_angle_beta   90.00000000
_cell_angle_gamma   90.00000000
_symmetry_Int_Tables_number   1
_chemical_formula_structural   Ca24Ti8Al207.04Au55.352
_chemical_formula_sum   'Ca24 Ti8 Al207.04 Au55.352'
_cell_volume   5201.27683822
_cell_formula_units_Z   1
loop_
 _symmetry_equiv_pos_site_id
 _symmetry_equiv_pos_as_xyz
  1  'x, y, z'
loop_
 _atom_site_type_symbol
 _atom_site_label
 _atom_site_symmetry_multiplicity
 _atom_site_fract_x
 _atom_site_fract_y
 _atom_site_fract_z
 _atom_site_occupancy
  Ca  Ca1  1  0.25000000  0.00000000  0.00000000  1.0
  Ca  Ca1  1  0.25000000  0.00000000  0.50000000  1.0
  Ca  Ca1  1  0.25000000  0.50000000  0.00000000  1.0
  Ca  Ca1  1  0.25000000  0.50000000  0.50000000  1.0
  Ca  Ca1  1  0.75000000  0.00000000  0.00000000  1.0
  Ca  Ca1  1  0.75000000  0.00000000  0.50000000  1.0
  Ca  Ca1  1  0.75000000  0.50000000  0.00000000  1.0
  Ca  Ca1  1  0.75000000  0.50000000  0.50000000  1.0
  Ca  Ca1  1  0.00000000  0.25000000  0.00000000  1.0
  Ca  Ca1  1  0.00000000  0.25000000  0.50000000  1.0
  Ca  Ca1  1  0.00000000  0.75000000  0.00000000  1.0
  Ca  Ca1  1  0.00000000  0.75000000  0.50000000  1.0
  Ca  Ca1  1  0.50000000  0.25000000  0.00000000  1.0
  Ca  Ca1  1  0.50000000  0.25000000  0.50000000  1.0
  Ca  Ca1  1  0.50000000  0.75000000  0.00000000  1.0
  Ca  Ca1  1  0.50000000  0.75000000  0.50000000  1.0
  Ca  Ca1  1  0.00000000  0.00000000  0.25000000  1.0
  Ca  Ca1  1  0.00000000  0.00000000  0.75000000  1.0
  Ca  Ca1  1  0.00000000  0.50000000  0.25000000  1.0
  Ca  Ca1  1  0.00000000  0.50000000  0.75000000  1.0
  Ca  Ca1  1  0.50000000  0.00000000  0.25000000  1.0
  Ca  Ca1  1  0.50000000  0.00000000  0.75000000  1.0
  Ca  Ca1  1  0.50000000  0.50000000  0.25000000  1.0
  Ca  Ca1  1  0.50000000  0.50000000  0.75000000  1.0
  Ti  Ti1  1  0.25000000  0.25000000  0.25000000  1.0
  Ti  Ti1  1  0.25000000  0.25000000  0.75000000  1.0
  Ti  Ti1  1  0.25000000  0.75000000  0.25000000  1.0
  Ti  Ti1  1  0.25000000  0.75000000  0.75000000  1.0
  Ti  Ti1  1  0.75000000  0.25000000  0.25000000  1.0
  Ti  Ti1  1  0.75000000  0.25000000  0.75000000  1.0
  Ti  Ti1  1  0.75000000  0.75000000  0.25000000  1.0
  Ti  Ti1  1  0.75000000  0.75000000  0.75000000  1.0
  Al  Al3  1  0.08660000  0.08660000  0.08660000  1.0
  Al  Al3  1  0.08660000  0.08660000  0.58660000  1.0
  Al  Al3  1  0.08660000  0.58660000  0.08660000  1.0
  Al  Al3  1  0.08660000  0.58660000  0.58660000  1.0
  Al  Al3  1  0.58660000  0.08660000  0.08660000  1.0
  Al  Al3  1  0.58660000  0.08660000  0.58660000  1.0
  Al  Al3  1  0.58660000  0.58660000  0.08660000  1.0
  Al  Al3  1  0.58660000  0.58660000  0.58660000  1.0
  Al  Al3  1  0.41340000  0.41340000  0.08660000  1.0
  Al  Al3  1  0.41340000  0.41340000  0.58660000  1.0
  Al  Al3  1  0.41340000  0.91340000  0.08660000  1.0
  Al  Al3  1  0.41340000  0.91340000  0.58660000  1.0
  Al  Al3  1  0.91340000  0.41340000  0.08660000  1.0
  Al  Al3  1  0.91340000  0.41340000  0.58660000  1.0
  Al  Al3  1  0.91340000  0.91340000  0.08660000  1.0
  Al  Al3  1  0.91340000  0.91340000  0.58660000  1.0
  Al  Al3  1  0.41340000  0.08660000  0.41340000  1.0
  Al  Al3  1  0.41340000  0.08660000  0.91340000  1.0
  Al  Al3  1  0.41340000  0.58660000  0.41340000  1.0
  Al  Al3  1  0.41340000  0.58660000  0.91340000  1.0
  Al  Al3  1  0.91340000  0.08660000  0.41340000  1.0
  Al  Al3  1  0.91340000  0.08660000  0.91340000  1.0
  Al  Al3  1  0.91340000  0.58660000  0.41340000  1.0
  Al  Al3  1  0.91340000  0.58660000  0.91340000  1.0
  Al  Al3  1  0.08660000  0.41340000  0.41340000  1.0
  Al  Al3  1  0.08660000  0.41340000  0.91340000  1.0
  Al  Al3  1  0.08660000  0.91340000  0.41340000  1.0
  Al  Al3  1  0.08660000  0.91340000  0.91340000  1.0
  Al  Al3  1  0.58660000  0.41340000  0.41340000  1.0
  Al  Al3  1  0.58660000  0.41340000  0.91340000  1.0
  Al  Al3  1  0.58660000  0.91340000  0.41340000  1.0
  Al  Al3  1  0.58660000  0.91340000  0.91340000  1.0
  Al  Al3  1  0.08660000  0.08660000  0.41340000  1.0
  Al  Al3  1  0.08660000  0.08660000  0.91340000  1.0
  Al  Al3  1  0.08660000  0.58660000  0.41340000  1.0
  Al  Al3  1  0.08660000  0.58660000  0.91340000  1.0
  Al  Al3  1  0.58660000  0.08660000  0.41340000  1.0
  Al  Al3  1  0.58660000  0.08660000  0.91340000  1.0
  Al  Al3  1  0.58660000  0.58660000  0.41340000  1.0
  Al  Al3  1  0.58660000  0.58660000  0.91340000  1.0
  Al  Al3  1  0.41340000  0.41340000  0.41340000  1.0
  Al  Al3  1  0.41340000  0.41340000  0.91340000  1.0
  Al  Al3  1  0.41340000  0.91340000  0.41340000  1.0
  Al  Al3  1  0.41340000  0.91340000  0.91340000  1.0
  Al  Al3  1  0.91340000  0.41340000  0.41340000  1.0
  Al  Al3  1  0.91340000  0.41340000  0.91340000  1.0
  Al  Al3  1  0.91340000  0.91340000  0.41340000  1.0
  Al  Al3  1  0.91340000  0.91340000  0.91340000  1.0
  Al  Al3  1  0.08660000  0.41340000  0.08660000  1.0
  Al  Al3  1  0.08660000  0.41340000  0.58660000  1.0
  Al  Al3  1  0.08660000  0.91340000  0.08660000  1.0
  Al  Al3  1  0.08660000  0.91340000  0.58660000  1.0
  Al  Al3  1  0.58660000  0.41340000  0.08660000  1.0
  Al  Al3  1  0.58660000  0.41340000  0.58660000  1.0
  Al  Al3  1  0.58660000  0.91340000  0.08660000  1.0
  Al  Al3  1  0.58660000  0.91340000  0.58660000  1.0
  Al  Al3  1  0.41340000  0.08660000  0.08660000  1.0
  Al  Al3  1  0.41340000  0.08660000  0.58660000  1.0
  Al  Al3  1  0.41340000  0.58660000  0.08660000  1.0
  Al  Al3  1  0.41340000  0.58660000  0.58660000  1.0
  Al  Al3  1  0.91340000  0.08660000  0.08660000  1.0
  Al  Al3  1  0.91340000  0.08660000  0.58660000  1.0
  Al  Al3  1  0.91340000  0.58660000  0.08660000  1.0
  Al  Al3  1  0.91340000  0.58660000  0.58660000  1.0
  Al  Al1  1  0.25000000  0.13560500  0.13560500  1.0
  Al  Al1  1  0.25000000  0.13560500  0.63560500  1.0
  Al  Al1  1  0.25000000  0.63560500  0.13560500  1.0
  Al  Al1  1  0.25000000  0.63560500  0.63560500  1.0
  Al  Al1  1  0.75000000  0.13560500  0.13560500  1.0
  Al  Al1  1  0.75000000  0.13560500  0.63560500  1.0
  Al  Al1  1  0.75000000  0.63560500  0.13560500  1.0
  Al  Al1  1  0.75000000  0.63560500  0.63560500  1.0
  Al  Al1  1  0.25000000  0.36439500  0.13560500  1.0
  Al  Al1  1  0.25000000  0.36439500  0.63560500  1.0
  Al  Al1  1  0.25000000  0.86439500  0.13560500  1.0
  Al  Al1  1  0.25000000  0.86439500  0.63560500  1.0
  Al  Al1  1  0.75000000  0.36439500  0.13560500  1.0
  Al  Al1  1  0.75000000  0.36439500  0.63560500  1.0
  Al  Al1  1  0.75000000  0.86439500  0.13560500  1.0
  Al  Al1  1  0.75000000  0.86439500  0.63560500  1.0
  Al  Al1  1  0.25000000  0.13560500  0.36439500  1.0
  Al  Al1  1  0.25000000  0.13560500  0.86439500  1.0
  Al  Al1  1  0.25000000  0.63560500  0.36439500  1.0
  Al  Al1  1  0.25000000  0.63560500  0.86439500  1.0
  Al  Al1  1  0.75000000  0.13560500  0.36439500  1.0
  Al  Al1  1  0.75000000  0.13560500  0.86439500  1.0
  Al  Al1  1  0.75000000  0.63560500  0.36439500  1.0
  Al  Al1  1  0.75000000  0.63560500  0.86439500  1.0
  Al  Al1  1  0.25000000  0.36439500  0.36439500  1.0
  Al  Al1  1  0.25000000  0.36439500  0.86439500  1.0
  Al  Al1  1  0.25000000  0.86439500  0.36439500  1.0
  Al  Al1  1  0.25000000  0.86439500  0.86439500  1.0
  Al  Al1  1  0.75000000  0.36439500  0.36439500  1.0
  Al  Al1  1  0.75000000  0.36439500  0.86439500  1.0
  Al  Al1  1  0.75000000  0.86439500  0.36439500  1.0
  Al  Al1  1  0.75000000  0.86439500  0.86439500  1.0
  Al  Al1  1  0.13560500  0.25000000  0.13560500  1.0
  Al  Al1  1  0.13560500  0.25000000  0.63560500  1.0
  Al  Al1  1  0.13560500  0.75000000  0.13560500  1.0
  Al  Al1  1  0.13560500  0.75000000  0.63560500  1.0
  Al  Al1  1  0.63560500  0.25000000  0.13560500  1.0
  Al  Al1  1  0.63560500  0.25000000  0.63560500  1.0
  Al  Al1  1  0.63560500  0.75000000  0.13560500  1.0
  Al  Al1  1  0.63560500  0.75000000  0.63560500  1.0
  Al  Al1  1  0.13560500  0.25000000  0.36439500  1.0
  Al  Al1  1  0.13560500  0.25000000  0.86439500  1.0
  Al  Al1  1  0.13560500  0.75000000  0.36439500  1.0
  Al  Al1  1  0.13560500  0.75000000  0.86439500  1.0
  Al  Al1  1  0.63560500  0.25000000  0.36439500  1.0
  Al  Al1  1  0.63560500  0.25000000  0.86439500  1.0
  Al  Al1  1  0.63560500  0.75000000  0.36439500  1.0
  Al  Al1  1  0.63560500  0.75000000  0.86439500  1.0
  Al  Al1  1  0.36439500  0.25000000  0.13560500  1.0
  Al  Al1  1  0.36439500  0.25000000  0.63560500  1.0
  Al  Al1  1  0.36439500  0.75000000  0.13560500  1.0
  Al  Al1  1  0.36439500  0.75000000  0.63560500  1.0
  Al  Al1  1  0.86439500  0.25000000  0.13560500  1.0
  Al  Al1  1  0.86439500  0.25000000  0.63560500  1.0
  Al  Al1  1  0.86439500  0.75000000  0.13560500  1.0
  Al  Al1  1  0.86439500  0.75000000  0.63560500  1.0
  Al  Al1  1  0.36439500  0.25000000  0.36439500  1.0
  Al  Al1  1  0.36439500  0.25000000  0.86439500  1.0
  Al  Al1  1  0.36439500  0.75000000  0.36439500  1.0
  Al  Al1  1  0.36439500  0.75000000  0.86439500  1.0
  Al  Al1  1  0.86439500  0.25000000  0.36439500  1.0
  Al  Al1  1  0.86439500  0.25000000  0.86439500  1.0
  Al  Al1  1  0.86439500  0.75000000  0.36439500  1.0
  Al  Al1  1  0.86439500  0.75000000  0.86439500  1.0
  Al  Al1  1  0.13560500  0.13560500  0.25000000  1.0
  Al  Al1  1  0.13560500  0.13560500  0.75000000  1.0
  Al  Al1  1  0.13560500  0.63560500  0.25000000  1.0
  Al  Al1  1  0.13560500  0.63560500  0.75000000  1.0
  Al  Al1  1  0.63560500  0.13560500  0.25000000  1.0
  Al  Al1  1  0.63560500  0.13560500  0.75000000  1.0
  Al  Al1  1  0.63560500  0.63560500  0.25000000  1.0
  Al  Al1  1  0.63560500  0.63560500  0.75000000  1.0
  Al  Al1  1  0.36439500  0.13560500  0.25000000  1.0
  Al  Al1  1  0.36439500  0.13560500  0.75000000  1.0
  Al  Al1  1  0.36439500  0.63560500  0.25000000  1.0
  Al  Al1  1  0.36439500  0.63560500  0.75000000  1.0
  Al  Al1  1  0.86439500  0.13560500  0.25000000  1.0
  Al  Al1  1  0.86439500  0.13560500  0.75000000  1.0
  Al  Al1  1  0.86439500  0.63560500  0.25000000  1.0
  Al  Al1  1  0.86439500  0.63560500  0.75000000  1.0
  Al  Al1  1  0.13560500  0.36439500  0.25000000  1.0
  Al  Al1  1  0.13560500  0.36439500  0.75000000  1.0
  Al  Al1  1  0.13560500  0.86439500  0.25000000  1.0
  Al  Al1  1  0.13560500  0.86439500  0.75000000  1.0
  Al  Al1  1  0.63560500  0.36439500  0.25000000  1.0
  Al  Al1  1  0.63560500  0.36439500  0.75000000  1.0
  Al  Al1  1  0.63560500  0.86439500  0.25000000  1.0
  Al  Al1  1  0.63560500  0.86439500  0.75000000  1.0
  Al  Al1  1  0.36439500  0.36439500  0.25000000  1.0
  Al  Al1  1  0.36439500  0.36439500  0.75000000  1.0
  Al  Al1  1  0.36439500  0.86439500  0.25000000  1.0
  Al  Al1  1  0.36439500  0.86439500  0.75000000  1.0
  Al  Al1  1  0.86439500  0.36439500  0.25000000  1.0
  Al  Al1  1  0.86439500  0.36439500  0.75000000  1.0
  Al  Al1  1  0.86439500  0.86439500  0.25000000  1.0
  Al  Al1  1  0.86439500  0.86439500  0.75000000  1.0
  Al  Al2  1  0.68345000  0.31655000  0.50000000  1.0
  Al  Al2  1  0.00000000  0.81655000  0.68345000  1.0
  Al  Al2  1  0.31655000  0.00000000  0.18345000  1.0
  Al  Al2  1  0.81655000  0.00000000  0.31655000  1.0
  Al  Al2  1  0.31655000  0.00000000  0.81655000  1.0
  Al  Al2  1  0.68345000  0.68345000  0.50000000  1.0
  Al  Al2  1  0.50000000  0.31655000  0.68345000  1.0
  Al  Al2  1  0.18345000  0.81655000  0.00000000  1.0
  Al  Al2  1  0.31655000  0.31655000  0.00000000  1.0
  Al  Al2  1  0.50000000  0.81655000  0.81655000  1.0
  Al  Al2  1  0.31655000  0.18345000  0.00000000  1.0
  Al  Al2  1  0.81655000  0.18345000  0.00000000  1.0
  Al  Al2  1  0.50000000  0.31655000  0.31655000  1.0
  Al  Al2  1  0.81655000  0.50000000  0.81655000  1.0
  Al  Al2  1  0.18345000  0.18345000  0.50000000  1.0
  Al  Al2  1  0.68345000  0.18345000  0.50000000  1.0
  Al  Al2  1  0.31655000  0.68345000  0.00000000  1.0
  Al  Al2  1  0.18345000  0.50000000  0.81655000  1.0
  Al  Al2  1  0.50000000  0.31655000  0.81655000  1.0
  Al  Al2  1  0.68345000  0.50000000  0.81655000  1.0
  Al  Al2  1  0.00000000  0.31655000  0.18345000  1.0
  Al  Al2  1  0.68345000  0.50000000  0.31655000  1.0
  Al  Al2  1  0.50000000  0.18345000  0.18345000  1.0
  Al  Al2  1  0.18345000  0.00000000  0.31655000  1.0
  Al  Al2  1  0.68345000  0.18345000  0.00000000  1.0
  Al  Al2  1  0.81655000  0.50000000  0.31655000  1.0
  Al  Al2  1  0.18345000  0.68345000  0.50000000  1.0
  Al  Al2  1  0.31655000  0.18345000  0.50000000  1.0
  Al  Al2  1  0.18345000  0.00000000  0.81655000  1.0
  Al  Al2  1  0.00000000  0.68345000  0.31655000  1.0
  Al  Al2  1  0.50000000  0.68345000  0.31655000  1.0
  Al  Al2  1  0.00000000  0.18345000  0.18345000  1.0
  Al  Al2  1  0.68345000  0.68345000  0.00000000  1.0
  Al  Al2  1  0.31655000  0.68345000  0.50000000  1.0
  Al  Al2  1  0.00000000  0.81655000  0.31655000  1.0
  Al  Al2  1  0.00000000  0.18345000  0.81655000  1.0
  Al  Al2  1  0.68345000  0.00000000  0.68345000  1.0
  Al  Al2  1  0.68345000  0.81655000  0.50000000  1.0
  Al  Al2  1  0.18345000  0.18345000  0.00000000  1.0
  Al  Al2  1  0.81655000  0.68345000  0.00000000  1.0
  Al  Al2  1  0.81655000  0.31655000  0.50000000  1.0
  Al  Al2  1  0.81655000  0.68345000  0.50000000  1.0
  Al  Al2  1  0.00000000  0.81655000  0.81655000  1.0
  Al  Al2  1  0.00000000  0.68345000  0.81655000  1.0
  Al  Al2  1  0.31655000  0.50000000  0.68345000  1.0
  Al  Al2  1  0.00000000  0.18345000  0.68345000  1.0
  Al  Al2  1  0.18345000  0.31655000  0.50000000  1.0
  Au  Au2  1  0.00000000  0.66770500  0.16770500  1.0
  Au  Au2  1  0.66770500  0.00000000  0.16770500  1.0
  Au  Au2  1  0.00000000  0.33229500  0.83229500  1.0
  Au  Au2  1  0.00000000  0.16770500  0.16770500  1.0
  Au  Au2  1  0.33229500  0.50000000  0.16770500  1.0
  Au  Au2  1  0.33229500  0.50000000  0.33229500  1.0
  Au  Au2  1  0.16770500  0.00000000  0.16770500  1.0
  Au  Au2  1  0.16770500  0.50000000  0.83229500  1.0
  Au  Au2  1  0.00000000  0.33229500  0.66770500  1.0
  Au  Au2  1  0.00000000  0.83229500  0.66770500  1.0
  Au  Au2  1  0.16770500  0.00000000  0.66770500  1.0
  Au  Au2  1  0.66770500  0.00000000  0.66770500  1.0
  Au  Au2  1  0.50000000  0.66770500  0.66770500  1.0
  Au  Au2  1  0.33229500  0.00000000  0.16770500  1.0
  Au  Au2  1  0.33229500  0.00000000  0.66770500  1.0
  Au  Au2  1  0.16770500  0.00000000  0.83229500  1.0
  Au  Au2  1  0.66770500  0.00000000  0.33229500  1.0
  Au  Au2  1  0.33229500  0.33229500  0.00000000  1.0
  Au  Au2  1  0.00000000  0.66770500  0.33229500  1.0
  Au  Au2  1  0.33229500  0.50000000  0.66770500  1.0
  Au  Au2  1  0.66770500  0.83229500  0.00000000  1.0
  Au  Au2  1  0.16770500  0.83229500  0.50000000  1.0
  Au  Au2  1  0.33229500  0.00000000  0.83229500  1.0
  Au  Au2  1  0.00000000  0.33229500  0.33229500  1.0
  Au  Au2  1  0.83229500  0.00000000  0.33229500  1.0
  Au  Au2  1  0.83229500  0.50000000  0.66770500  1.0
  Au  Au2  1  0.33229500  0.50000000  0.83229500  1.0
  Au  Au2  1  0.83229500  0.33229500  0.50000000  1.0
  Au  Au2  1  0.16770500  0.50000000  0.16770500  1.0
  Au  Au2  1  0.16770500  0.33229500  0.00000000  1.0
  Au  Au2  1  0.00000000  0.66770500  0.66770500  1.0
  Au  Au2  1  0.50000000  0.66770500  0.16770500  1.0
  Au  Au2  1  0.16770500  0.50000000  0.66770500  1.0
  Au  Au2  1  0.66770500  0.50000000  0.66770500  1.0
  Au  Au2  1  0.50000000  0.33229500  0.33229500  1.0
  Au  Au2  1  0.83229500  0.00000000  0.16770500  1.0
  Au  Au2  1  0.83229500  0.16770500  0.00000000  1.0
  Au  Au2  1  0.16770500  0.50000000  0.33229500  1.0
  Au  Au2  1  0.00000000  0.66770500  0.83229500  1.0
  Au  Au2  1  0.83229500  0.66770500  0.50000000  1.0
  Au  Au2  1  0.83229500  0.16770500  0.50000000  1.0
  Au  Au2  1  0.16770500  0.66770500  0.00000000  1.0
  Au  Au2  1  0.16770500  0.66770500  0.50000000  1.0
  Au  Au2  1  0.83229500  0.50000000  0.83229500  1.0
  Au  Au2  1  0.50000000  0.66770500  0.33229500  1.0
  Au  Au2  1  0.50000000  0.83229500  0.33229500  1.0
  Au  Au2  1  0.33229500  0.83229500  0.00000000  1.0
  Au  Au2  1  0.50000000  0.16770500  0.66770500  1.0
  Au  Au2  1  0.33229500  0.83229500  0.50000000  1.0
