# generated using pymatgen
data_BaLaInIrO6
_symmetry_space_group_name_H-M   'P 1'
_cell_length_a   17.36820000
_cell_length_b   17.38770000
_cell_length_c   16.34840000
_cell_angle_alpha   90.00000000
_cell_angle_beta   90.00000000
_cell_angle_gamma   90.00000000
_symmetry_Int_Tables_number   1
_chemical_formula_structural   BaLaInIrO6
_chemical_formula_sum   'Ba36 La36 In36 Ir36 O216'
_cell_volume   4937.10319726
_cell_formula_units_Z   36
loop_
 _symmetry_equiv_pos_site_id
 _symmetry_equiv_pos_as_xyz
  1  'x, y, z'
loop_
 _atom_site_type_symbol
 _atom_site_label
 _atom_site_symmetry_multiplicity
 _atom_site_fract_x
 _atom_site_fract_y
 _atom_site_fract_z
 _atom_site_occupancy
  Ba  La1  1  0.66150000  0.50623333  0.62500000  1.0
  Ba  La1  1  0.82816667  0.66043333  0.37500000  1.0
  Ba  La1  1  0.50516667  0.67290000  0.62500000  1.0
  Ba  La1  1  0.17183333  0.33956667  0.12500000  1.0
  Ba  La1  1  0.49483333  0.32710000  0.87500000  1.0
  Ba  La1  1  0.16150000  0.66043333  0.37500000  1.0
  Ba  La1  1  0.83850000  0.00623333  0.62500000  1.0
  Ba  La1  1  0.49483333  0.32710000  0.37500000  1.0
  Ba  La1  1  0.50516667  0.33956667  0.12500000  1.0
  Ba  La1  1  0.00516667  0.82710000  0.37500000  1.0
  Ba  La1  1  0.83850000  0.00623333  0.12500000  1.0
  Ba  La1  1  0.17183333  0.33956667  0.62500000  1.0
  Ba  La1  1  0.82816667  0.99376667  0.37500000  1.0
  Ba  La1  1  0.82816667  0.66043333  0.87500000  1.0
  Ba  La1  1  0.67183333  0.82710000  0.87500000  1.0
  Ba  La1  1  0.50516667  0.33956667  0.62500000  1.0
  Ba  La1  1  0.83850000  0.67290000  0.62500000  1.0
  Ba  La1  1  0.82816667  0.32710000  0.37500000  1.0
  Ba  La1  1  0.67183333  0.16043333  0.37500000  1.0
  Ba  La1  1  0.82816667  0.99376667  0.87500000  1.0
  Ba  La1  1  0.99483333  0.50623333  0.62500000  1.0
  Ba  La1  1  0.49483333  0.99376667  0.87500000  1.0
  Ba  La1  1  0.32816667  0.50623333  0.62500000  1.0
  Ba  La1  1  0.32816667  0.17290000  0.62500000  1.0
  Ba  La1  1  0.33850000  0.49376667  0.37500000  1.0
  Ba  La1  1  0.99483333  0.83956667  0.12500000  1.0
  Ba  La1  1  0.32816667  0.83956667  0.12500000  1.0
  Ba  La1  1  0.50516667  0.00623333  0.12500000  1.0
  Ba  La1  1  0.33850000  0.82710000  0.37500000  1.0
  Ba  La1  1  0.50516667  0.67290000  0.12500000  1.0
  Ba  La1  1  0.16150000  0.66043333  0.87500000  1.0
  Ba  La1  1  0.66150000  0.83956667  0.62500000  1.0
  Ba  La1  1  0.16150000  0.32710000  0.37500000  1.0
  Ba  La1  1  0.33850000  0.49376667  0.87500000  1.0
  Ba  La1  1  0.49483333  0.66043333  0.87500000  1.0
  Ba  La1  1  0.49483333  0.99376667  0.37500000  1.0
  La  La1  1  0.66150000  0.17290000  0.12500000  1.0
  La  La1  1  0.99483333  0.83956667  0.62500000  1.0
  La  La1  1  0.16150000  0.99376667  0.87500000  1.0
  La  La1  1  0.32816667  0.83956667  0.62500000  1.0
  La  La1  1  0.49483333  0.66043333  0.37500000  1.0
  La  La1  1  0.99483333  0.50623333  0.12500000  1.0
  La  La1  1  0.00516667  0.16043333  0.87500000  1.0
  La  La1  1  0.82816667  0.32710000  0.87500000  1.0
  La  La1  1  0.00516667  0.16043333  0.37500000  1.0
  La  La1  1  0.17183333  0.00623333  0.12500000  1.0
  La  La1  1  0.00516667  0.49376667  0.37500000  1.0
  La  La1  1  0.83850000  0.33956667  0.62500000  1.0
  La  La1  1  0.00516667  0.82710000  0.87500000  1.0
  La  La1  1  0.17183333  0.67290000  0.12500000  1.0
  La  La1  1  0.83850000  0.33956667  0.12500000  1.0
  La  La1  1  0.67183333  0.49376667  0.37500000  1.0
  La  La1  1  0.33850000  0.16043333  0.87500000  1.0
  La  La1  1  0.16150000  0.32710000  0.87500000  1.0
  La  La1  1  0.33850000  0.16043333  0.37500000  1.0
  La  La1  1  0.99483333  0.17290000  0.62500000  1.0
  La  La1  1  0.33850000  0.82710000  0.87500000  1.0
  La  La1  1  0.99483333  0.17290000  0.12500000  1.0
  La  La1  1  0.67183333  0.49376667  0.87500000  1.0
  La  La1  1  0.17183333  0.00623333  0.62500000  1.0
  La  La1  1  0.67183333  0.82710000  0.37500000  1.0
  La  La1  1  0.66150000  0.50623333  0.12500000  1.0
  La  La1  1  0.66150000  0.83956667  0.12500000  1.0
  La  La1  1  0.66150000  0.17290000  0.62500000  1.0
  La  La1  1  0.32816667  0.50623333  0.12500000  1.0
  La  La1  1  0.17183333  0.67290000  0.62500000  1.0
  La  La1  1  0.83850000  0.67290000  0.12500000  1.0
  La  La1  1  0.67183333  0.16043333  0.87500000  1.0
  La  La1  1  0.50516667  0.00623333  0.62500000  1.0
  La  La1  1  0.16150000  0.99376667  0.37500000  1.0
  La  La1  1  0.00516667  0.49376667  0.87500000  1.0
  La  La1  1  0.32816667  0.17290000  0.12500000  1.0
  In  Ir1  1  0.66666667  0.66666667  0.25000000  1.0
  In  Ir1  1  0.16666667  0.50000000  0.75000000  1.0
  In  Ir1  1  0.83333333  0.50000000  0.00000000  1.0
  In  Ir1  1  0.00000000  0.66666667  0.25000000  1.0
  In  Ir1  1  0.66666667  0.33333333  0.00000000  1.0
  In  Ir1  1  0.33333333  0.33333333  0.75000000  1.0
  In  Ir1  1  0.50000000  0.16666667  0.50000000  1.0
  In  Ir1  1  0.16666667  0.83333333  0.00000000  1.0
  In  Ir1  1  0.00000000  0.00000000  0.50000000  1.0
  In  Ir1  1  0.00000000  0.33333333  0.75000000  1.0
  In  Ir1  1  0.83333333  0.83333333  0.00000000  1.0
  In  Ir1  1  0.00000000  0.00000000  0.75000000  1.0
  In  Ir1  1  0.00000000  0.33333333  0.25000000  1.0
  In  Ir1  1  0.83333333  0.50000000  0.25000000  1.0
  In  Ir1  1  0.00000000  0.66666667  0.75000000  1.0
  In  Ir1  1  0.16666667  0.50000000  0.00000000  1.0
  In  Ir1  1  0.00000000  0.33333333  0.00000000  1.0
  In  Ir1  1  0.16666667  0.83333333  0.50000000  1.0
  In  Ir1  1  0.83333333  0.50000000  0.50000000  1.0
  In  Ir1  1  0.33333333  0.00000000  0.00000000  1.0
  In  Ir1  1  0.66666667  0.00000000  0.50000000  1.0
  In  Ir1  1  0.33333333  0.66666667  0.50000000  1.0
  In  Ir1  1  0.33333333  0.33333333  0.50000000  1.0
  In  Ir1  1  0.16666667  0.16666667  0.50000000  1.0
  In  Ir1  1  0.16666667  0.50000000  0.25000000  1.0
  In  Ir1  1  0.50000000  0.50000000  0.00000000  1.0
  In  Ir1  1  0.50000000  0.83333333  0.25000000  1.0
  In  Ir1  1  0.83333333  0.16666667  0.75000000  1.0
  In  Ir1  1  0.83333333  0.16666667  0.25000000  1.0
  In  Ir1  1  0.50000000  0.83333333  0.75000000  1.0
  In  Ir1  1  0.66666667  0.00000000  0.25000000  1.0
  In  Ir1  1  0.16666667  0.83333333  0.75000000  1.0
  In  Ir1  1  0.33333333  0.00000000  0.25000000  1.0
  In  Ir1  1  0.16666667  0.16666667  0.75000000  1.0
  In  Ir1  1  0.83333333  0.50000000  0.75000000  1.0
  In  Ir1  1  0.00000000  0.00000000  0.00000000  1.0
  Ir  Ir1  1  0.00000000  0.00000000  0.25000000  1.0
  Ir  Ir1  1  0.50000000  0.50000000  0.75000000  1.0
  Ir  Ir1  1  0.00000000  0.33333333  0.50000000  1.0
  Ir  Ir1  1  0.50000000  0.16666667  0.25000000  1.0
  Ir  Ir1  1  0.50000000  0.16666667  0.75000000  1.0
  Ir  Ir1  1  0.83333333  0.16666667  0.50000000  1.0
  Ir  Ir1  1  0.33333333  0.00000000  0.50000000  1.0
  Ir  Ir1  1  0.66666667  0.33333333  0.50000000  1.0
  Ir  Ir1  1  0.66666667  0.00000000  0.00000000  1.0
  Ir  Ir1  1  0.66666667  0.33333333  0.75000000  1.0
  Ir  Ir1  1  0.33333333  0.00000000  0.75000000  1.0
  Ir  Ir1  1  0.16666667  0.50000000  0.50000000  1.0
  Ir  Ir1  1  0.66666667  0.66666667  0.75000000  1.0
  Ir  Ir1  1  0.33333333  0.66666667  0.25000000  1.0
  Ir  Ir1  1  0.83333333  0.16666667  0.00000000  1.0
  Ir  Ir1  1  0.16666667  0.16666667  0.00000000  1.0
  Ir  Ir1  1  0.83333333  0.83333333  0.50000000  1.0
  Ir  Ir1  1  0.66666667  0.66666667  0.00000000  1.0
  Ir  Ir1  1  0.66666667  0.00000000  0.75000000  1.0
  Ir  Ir1  1  0.50000000  0.16666667  0.00000000  1.0
  Ir  Ir1  1  0.33333333  0.33333333  0.00000000  1.0
  Ir  Ir1  1  0.83333333  0.83333333  0.25000000  1.0
  Ir  Ir1  1  0.00000000  0.66666667  0.00000000  1.0
  Ir  Ir1  1  0.16666667  0.16666667  0.25000000  1.0
  Ir  Ir1  1  0.50000000  0.50000000  0.25000000  1.0
  Ir  Ir1  1  0.16666667  0.83333333  0.25000000  1.0
  Ir  Ir1  1  0.66666667  0.33333333  0.25000000  1.0
  Ir  Ir1  1  0.33333333  0.66666667  0.75000000  1.0
  Ir  Ir1  1  0.50000000  0.83333333  0.00000000  1.0
  Ir  Ir1  1  0.50000000  0.50000000  0.50000000  1.0
  Ir  Ir1  1  0.66666667  0.66666667  0.50000000  1.0
  Ir  Ir1  1  0.33333333  0.66666667  0.00000000  1.0
  Ir  Ir1  1  0.83333333  0.83333333  0.75000000  1.0
  Ir  Ir1  1  0.50000000  0.83333333  0.50000000  1.0
  Ir  Ir1  1  0.00000000  0.66666667  0.50000000  1.0
  Ir  Ir1  1  0.33333333  0.33333333  0.25000000  1.0
  O  O1  1  0.31650000  0.33233333  0.12500000  1.0
  O  O1  1  0.31650000  0.33233333  0.62500000  1.0
  O  O1  1  0.31650000  0.66566667  0.12500000  1.0
  O  O1  1  0.31650000  0.66566667  0.62500000  1.0
  O  O1  1  0.31650000  0.99900000  0.12500000  1.0
  O  O1  1  0.31650000  0.99900000  0.62500000  1.0
  O  O1  1  0.64983333  0.33233333  0.12500000  1.0
  O  O1  1  0.64983333  0.33233333  0.62500000  1.0
  O  O1  1  0.64983333  0.66566667  0.12500000  1.0
  O  O1  1  0.64983333  0.66566667  0.62500000  1.0
  O  O1  1  0.64983333  0.99900000  0.12500000  1.0
  O  O1  1  0.64983333  0.99900000  0.62500000  1.0
  O  O1  1  0.98316667  0.33233333  0.12500000  1.0
  O  O1  1  0.98316667  0.33233333  0.62500000  1.0
  O  O1  1  0.98316667  0.66566667  0.12500000  1.0
  O  O1  1  0.98316667  0.66566667  0.62500000  1.0
  O  O1  1  0.98316667  0.99900000  0.12500000  1.0
  O  O1  1  0.98316667  0.99900000  0.62500000  1.0
  O  O1  1  0.18350000  0.16566667  0.12500000  1.0
  O  O1  1  0.18350000  0.16566667  0.62500000  1.0
  O  O1  1  0.18350000  0.49900000  0.12500000  1.0
  O  O1  1  0.18350000  0.49900000  0.62500000  1.0
  O  O1  1  0.18350000  0.83233333  0.12500000  1.0
  O  O1  1  0.18350000  0.83233333  0.62500000  1.0
  O  O1  1  0.51683333  0.16566667  0.12500000  1.0
  O  O1  1  0.51683333  0.16566667  0.62500000  1.0
  O  O1  1  0.51683333  0.49900000  0.12500000  1.0
  O  O1  1  0.51683333  0.49900000  0.62500000  1.0
  O  O1  1  0.51683333  0.83233333  0.12500000  1.0
  O  O1  1  0.51683333  0.83233333  0.62500000  1.0
  O  O1  1  0.85016667  0.16566667  0.12500000  1.0
  O  O1  1  0.85016667  0.16566667  0.62500000  1.0
  O  O1  1  0.85016667  0.49900000  0.12500000  1.0
  O  O1  1  0.85016667  0.49900000  0.62500000  1.0
  O  O1  1  0.85016667  0.83233333  0.12500000  1.0
  O  O1  1  0.85016667  0.83233333  0.62500000  1.0
  O  O1  1  0.14983333  0.16766667  0.37500000  1.0
  O  O1  1  0.14983333  0.16766667  0.87500000  1.0
  O  O1  1  0.14983333  0.50100000  0.37500000  1.0
  O  O1  1  0.14983333  0.50100000  0.87500000  1.0
  O  O1  1  0.14983333  0.83433333  0.37500000  1.0
  O  O1  1  0.14983333  0.83433333  0.87500000  1.0
  O  O1  1  0.48316667  0.16766667  0.37500000  1.0
  O  O1  1  0.48316667  0.16766667  0.87500000  1.0
  O  O1  1  0.48316667  0.50100000  0.37500000  1.0
  O  O1  1  0.48316667  0.50100000  0.87500000  1.0
  O  O1  1  0.48316667  0.83433333  0.37500000  1.0
  O  O1  1  0.48316667  0.83433333  0.87500000  1.0
  O  O1  1  0.81650000  0.16766667  0.37500000  1.0
  O  O1  1  0.81650000  0.16766667  0.87500000  1.0
  O  O1  1  0.81650000  0.50100000  0.37500000  1.0
  O  O1  1  0.81650000  0.50100000  0.87500000  1.0
  O  O1  1  0.81650000  0.83433333  0.37500000  1.0
  O  O1  1  0.81650000  0.83433333  0.87500000  1.0
  O  O1  1  0.01683333  0.00100000  0.37500000  1.0
  O  O1  1  0.01683333  0.00100000  0.87500000  1.0
  O  O1  1  0.01683333  0.33433333  0.37500000  1.0
  O  O1  1  0.01683333  0.33433333  0.87500000  1.0
  O  O1  1  0.01683333  0.66766667  0.37500000  1.0
  O  O1  1  0.01683333  0.66766667  0.87500000  1.0
  O  O1  1  0.35016667  0.00100000  0.37500000  1.0
  O  O1  1  0.35016667  0.00100000  0.87500000  1.0
  O  O1  1  0.35016667  0.33433333  0.37500000  1.0
  O  O1  1  0.35016667  0.33433333  0.87500000  1.0
  O  O1  1  0.35016667  0.66766667  0.37500000  1.0
  O  O1  1  0.35016667  0.66766667  0.87500000  1.0
  O  O1  1  0.68350000  0.00100000  0.37500000  1.0
  O  O1  1  0.68350000  0.00100000  0.87500000  1.0
  O  O1  1  0.68350000  0.33433333  0.37500000  1.0
  O  O1  1  0.68350000  0.33433333  0.87500000  1.0
  O  O1  1  0.68350000  0.66766667  0.37500000  1.0
  O  O1  1  0.68350000  0.66766667  0.87500000  1.0
  O  O2  1  0.07736667  0.09226667  0.01790000  1.0
  O  O2  1  0.07736667  0.09226667  0.51790000  1.0
  O  O2  1  0.07736667  0.42560000  0.01790000  1.0
  O  O2  1  0.07736667  0.42560000  0.51790000  1.0
  O  O2  1  0.07736667  0.75893333  0.01790000  1.0
  O  O2  1  0.07736667  0.75893333  0.51790000  1.0
  O  O2  1  0.41070000  0.09226667  0.01790000  1.0
  O  O2  1  0.41070000  0.09226667  0.51790000  1.0
  O  O2  1  0.41070000  0.42560000  0.01790000  1.0
  O  O2  1  0.41070000  0.42560000  0.51790000  1.0
  O  O2  1  0.41070000  0.75893333  0.01790000  1.0
  O  O2  1  0.41070000  0.75893333  0.51790000  1.0
  O  O2  1  0.74403333  0.09226667  0.01790000  1.0
  O  O2  1  0.74403333  0.09226667  0.51790000  1.0
  O  O2  1  0.74403333  0.42560000  0.01790000  1.0
  O  O2  1  0.74403333  0.42560000  0.51790000  1.0
  O  O2  1  0.74403333  0.75893333  0.01790000  1.0
  O  O2  1  0.74403333  0.75893333  0.51790000  1.0
  O  O2  1  0.08930000  0.25893333  0.01790000  1.0
  O  O2  1  0.08930000  0.25893333  0.51790000  1.0
  O  O2  1  0.08930000  0.59226667  0.01790000  1.0
  O  O2  1  0.08930000  0.59226667  0.51790000  1.0
  O  O2  1  0.08930000  0.92560000  0.01790000  1.0
  O  O2  1  0.08930000  0.92560000  0.51790000  1.0
  O  O2  1  0.42263333  0.25893333  0.01790000  1.0
  O  O2  1  0.42263333  0.25893333  0.51790000  1.0
  O  O2  1  0.42263333  0.59226667  0.01790000  1.0
  O  O2  1  0.42263333  0.59226667  0.51790000  1.0
  O  O2  1  0.42263333  0.92560000  0.01790000  1.0
  O  O2  1  0.42263333  0.92560000  0.51790000  1.0
  O  O2  1  0.75596667  0.25893333  0.01790000  1.0
  O  O2  1  0.75596667  0.25893333  0.51790000  1.0
  O  O2  1  0.75596667  0.59226667  0.01790000  1.0
  O  O2  1  0.75596667  0.59226667  0.51790000  1.0
  O  O2  1  0.75596667  0.92560000  0.01790000  1.0
  O  O2  1  0.75596667  0.92560000  0.51790000  1.0
  O  O2  1  0.24403333  0.07440000  0.26790000  1.0
  O  O2  1  0.24403333  0.07440000  0.76790000  1.0
  O  O2  1  0.24403333  0.40773333  0.26790000  1.0
  O  O2  1  0.24403333  0.40773333  0.76790000  1.0
  O  O2  1  0.24403333  0.74106667  0.26790000  1.0
  O  O2  1  0.24403333  0.74106667  0.76790000  1.0
  O  O2  1  0.57736667  0.07440000  0.26790000  1.0
  O  O2  1  0.57736667  0.07440000  0.76790000  1.0
  O  O2  1  0.57736667  0.40773333  0.26790000  1.0
  O  O2  1  0.57736667  0.40773333  0.76790000  1.0
  O  O2  1  0.57736667  0.74106667  0.26790000  1.0
  O  O2  1  0.57736667  0.74106667  0.76790000  1.0
  O  O2  1  0.91070000  0.07440000  0.26790000  1.0
  O  O2  1  0.91070000  0.07440000  0.76790000  1.0
  O  O2  1  0.91070000  0.40773333  0.26790000  1.0
  O  O2  1  0.91070000  0.40773333  0.76790000  1.0
  O  O2  1  0.91070000  0.74106667  0.26790000  1.0
  O  O2  1  0.91070000  0.74106667  0.76790000  1.0
  O  O2  1  0.25596667  0.24106667  0.26790000  1.0
  O  O2  1  0.25596667  0.24106667  0.76790000  1.0
  O  O2  1  0.25596667  0.57440000  0.26790000  1.0
  O  O2  1  0.25596667  0.57440000  0.76790000  1.0
  O  O2  1  0.25596667  0.90773333  0.26790000  1.0
  O  O2  1  0.25596667  0.90773333  0.76790000  1.0
  O  O2  1  0.58930000  0.24106667  0.26790000  1.0
  O  O2  1  0.58930000  0.24106667  0.76790000  1.0
  O  O2  1  0.58930000  0.57440000  0.26790000  1.0
  O  O2  1  0.58930000  0.57440000  0.76790000  1.0
  O  O2  1  0.58930000  0.90773333  0.26790000  1.0
  O  O2  1  0.58930000  0.90773333  0.76790000  1.0
  O  O2  1  0.92263333  0.24106667  0.26790000  1.0
  O  O2  1  0.92263333  0.24106667  0.76790000  1.0
  O  O2  1  0.92263333  0.57440000  0.26790000  1.0
  O  O2  1  0.92263333  0.57440000  0.76790000  1.0
  O  O2  1  0.92263333  0.90773333  0.26790000  1.0
  O  O2  1  0.92263333  0.90773333  0.76790000  1.0
  O  O2  1  0.25596667  0.24106667  0.48210000  1.0
  O  O2  1  0.25596667  0.24106667  0.98210000  1.0
  O  O2  1  0.25596667  0.57440000  0.48210000  1.0
  O  O2  1  0.25596667  0.57440000  0.98210000  1.0
  O  O2  1  0.25596667  0.90773333  0.48210000  1.0
  O  O2  1  0.25596667  0.90773333  0.98210000  1.0
  O  O2  1  0.58930000  0.24106667  0.48210000  1.0
  O  O2  1  0.58930000  0.24106667  0.98210000  1.0
  O  O2  1  0.58930000  0.57440000  0.48210000  1.0
  O  O2  1  0.58930000  0.57440000  0.98210000  1.0
  O  O2  1  0.58930000  0.90773333  0.48210000  1.0
  O  O2  1  0.58930000  0.90773333  0.98210000  1.0
  O  O2  1  0.92263333  0.24106667  0.48210000  1.0
  O  O2  1  0.92263333  0.24106667  0.98210000  1.0
  O  O2  1  0.92263333  0.57440000  0.48210000  1.0
  O  O2  1  0.92263333  0.57440000  0.98210000  1.0
  O  O2  1  0.92263333  0.90773333  0.48210000  1.0
  O  O2  1  0.92263333  0.90773333  0.98210000  1.0
  O  O2  1  0.24403333  0.07440000  0.48210000  1.0
  O  O2  1  0.24403333  0.07440000  0.98210000  1.0
  O  O2  1  0.24403333  0.40773333  0.48210000  1.0
  O  O2  1  0.24403333  0.40773333  0.98210000  1.0
  O  O2  1  0.24403333  0.74106667  0.48210000  1.0
  O  O2  1  0.24403333  0.74106667  0.98210000  1.0
  O  O2  1  0.57736667  0.07440000  0.48210000  1.0
  O  O2  1  0.57736667  0.07440000  0.98210000  1.0
  O  O2  1  0.57736667  0.40773333  0.48210000  1.0
  O  O2  1  0.57736667  0.40773333  0.98210000  1.0
  O  O2  1  0.57736667  0.74106667  0.48210000  1.0
  O  O2  1  0.57736667  0.74106667  0.98210000  1.0
  O  O2  1  0.91070000  0.07440000  0.48210000  1.0
  O  O2  1  0.91070000  0.07440000  0.98210000  1.0
  O  O2  1  0.91070000  0.40773333  0.48210000  1.0
  O  O2  1  0.91070000  0.40773333  0.98210000  1.0
  O  O2  1  0.91070000  0.74106667  0.48210000  1.0
  O  O2  1  0.91070000  0.74106667  0.98210000  1.0
  O  O2  1  0.08930000  0.25893333  0.23210000  1.0
  O  O2  1  0.08930000  0.25893333  0.73210000  1.0
  O  O2  1  0.08930000  0.59226667  0.23210000  1.0
  O  O2  1  0.08930000  0.59226667  0.73210000  1.0
  O  O2  1  0.08930000  0.92560000  0.23210000  1.0
  O  O2  1  0.08930000  0.92560000  0.73210000  1.0
  O  O2  1  0.42263333  0.25893333  0.23210000  1.0
  O  O2  1  0.42263333  0.25893333  0.73210000  1.0
  O  O2  1  0.42263333  0.59226667  0.23210000  1.0
  O  O2  1  0.42263333  0.59226667  0.73210000  1.0
  O  O2  1  0.42263333  0.92560000  0.23210000  1.0
  O  O2  1  0.42263333  0.92560000  0.73210000  1.0
  O  O2  1  0.75596667  0.25893333  0.23210000  1.0
  O  O2  1  0.75596667  0.25893333  0.73210000  1.0
  O  O2  1  0.75596667  0.59226667  0.23210000  1.0
  O  O2  1  0.75596667  0.59226667  0.73210000  1.0
  O  O2  1  0.75596667  0.92560000  0.23210000  1.0
  O  O2  1  0.75596667  0.92560000  0.73210000  1.0
  O  O2  1  0.07736667  0.09226667  0.23210000  1.0
  O  O2  1  0.07736667  0.09226667  0.73210000  1.0
  O  O2  1  0.07736667  0.42560000  0.23210000  1.0
  O  O2  1  0.07736667  0.42560000  0.73210000  1.0
  O  O2  1  0.07736667  0.75893333  0.23210000  1.0
  O  O2  1  0.07736667  0.75893333  0.73210000  1.0
  O  O2  1  0.41070000  0.09226667  0.23210000  1.0
  O  O2  1  0.41070000  0.09226667  0.73210000  1.0
  O  O2  1  0.41070000  0.42560000  0.23210000  1.0
  O  O2  1  0.41070000  0.42560000  0.73210000  1.0
  O  O2  1  0.41070000  0.75893333  0.23210000  1.0
  O  O2  1  0.41070000  0.75893333  0.73210000  1.0
  O  O2  1  0.74403333  0.09226667  0.23210000  1.0
  O  O2  1  0.74403333  0.09226667  0.73210000  1.0
  O  O2  1  0.74403333  0.42560000  0.23210000  1.0
  O  O2  1  0.74403333  0.42560000  0.73210000  1.0
  O  O2  1  0.74403333  0.75893333  0.23210000  1.0
  O  O2  1  0.74403333  0.75893333  0.73210000  1.0
