# generated using pymatgen
data_V85Zn86O256
_symmetry_space_group_name_H-M   'P 1'
_cell_length_a   16.92935618
_cell_length_b   16.93367659
_cell_length_c   16.93345067
_cell_angle_alpha   89.97442386
_cell_angle_beta   90.04966836
_cell_angle_gamma   90.01589909
_symmetry_Int_Tables_number   1
_chemical_formula_structural   V85Zn86O256
_chemical_formula_sum   'V85 Zn86 O256'
_cell_volume   4854.41551556
_cell_formula_units_Z   1
loop_
 _symmetry_equiv_pos_site_id
 _symmetry_equiv_pos_as_xyz
  1  'x, y, z'
loop_
 _atom_site_type_symbol
 _atom_site_label
 _atom_site_symmetry_multiplicity
 _atom_site_fract_x
 _atom_site_fract_y
 _atom_site_fract_z
 _atom_site_occupancy
  V  V0  1  0.37975486  0.38013085  -0.00939424  1
  V  V1  1  0.49416610  0.74726799  0.24882385  1
  V  V2  1  0.62808701  0.62524319  -0.00272833  1
  V  V3  1  0.88653600  0.13258189  0.75288073  1
  V  V4  1  0.74786107  0.25576123  0.51094648  1
  V  V5  1  0.37296041  0.50736164  0.36281742  1
  V  V6  1  0.23691315  0.12738154  0.37492143  1
  V  V7  1  0.36886044  0.87404699  0.50116753  1
  V  V8  1  0.00979981  0.74786820  0.75402669  1
  V  V9  1  0.38211935  0.24597677  0.62688195  1
  V  V10  1  0.61715351  0.25667394  0.87028751  1
  V  V11  1  0.37186159  0.87850231  -0.00298792  1
  V  V12  1  0.25115765  0.61903170  0.87476422  1
  V  V13  1  0.87704648  0.37220818  0.00151999  1
  V  V14  1  0.24124038  0.24428551  0.49536534  1
  V  V15  1  0.75372937  0.62998461  0.87797875  1
  V  V16  1  0.24698301  0.49873155  0.74359896  1
  V  V17  1  0.63203986  0.37913284  0.25120024  1
  V  V18  1  0.49633910  0.00194041  0.00016120  1
  V  V19  1  0.12530275  0.74533417  0.39229120  1
  V  V20  1  0.37247293  0.74521026  0.62064732  1
  V  V21  1  0.62434291  0.87760587  0.75144150  1
  V  V22  1  -0.01152293  -0.00144101  -0.00303469  1
  V  V23  1  0.50119599  0.50031187  -0.02401298  1
  V  V24  1  0.49470814  0.62068715  0.12433965  1
  V  V25  1  0.62676762  -0.00007730  0.62789878  1
  V  V26  1  0.12368631  -0.00176669  0.12503529  1
  V  V27  1  0.37306630  0.74706824  0.12499845  1
  V  V28  1  -0.00646216  0.87699760  0.37523169  1
  V  V29  1  0.38440113  0.12156362  0.75269007  1
  V  V30  1  -0.00131281  0.12351576  0.12784188  1
  V  V31  1  0.37709021  0.37488136  0.49566313  1
  V  V32  1  0.01626137  0.00114524  0.50544042  1
  V  V33  1  0.12339235  0.62631125  -0.00481339  1
  V  V34  1  0.87940194  0.49808448  0.87514734  1
  V  V35  1  0.24785900  0.87322798  0.12390150  1
  V  V36  1  0.01126957  0.50553533  0.50254149  1
  V  V37  1  0.86935228  0.88563457  0.49945841  1
  V  V38  1  0.50390503  0.52095988  0.49763866  1
  V  V39  1  0.25044512  0.00072103  0.24824685  1
  V  V40  1  0.12274054  0.38477584  0.24865664  1
  V  V41  1  0.12443616  0.25407415  0.86823366  1
  V  V42  1  0.00582285  0.62025784  0.12692968  1
  V  V43  1  0.62362342  0.74320425  0.38022299  1
  V  V44  1  0.37429332  0.00244192  0.37603855  1
  V  V45  1  0.86999867  0.37838916  0.50911426  1
  V  V46  1  0.24731169  0.62836012  0.37814677  1
  V  V47  1  0.74886266  0.74067049  0.50325605  1
  V  V48  1  0.62567420  0.87469215  0.25118284  1
  V  V49  1  0.87619826  0.11870106  0.26095928  1
  V  V50  1  0.74834075  0.87254263  0.11871190  1
  V  V51  1  0.50165585  0.25069486  0.25055469  1
  V  V52  1  0.62887470  0.75208930  0.87860103  1
  V  V53  1  0.37611594  0.25147588  0.12510384  1
  V  V54  1  0.62465104  0.12673692  0.50032712  1
  V  V55  1  0.37506704  0.62313843  0.75251062  1
  V  V56  1  0.87709216  0.62591549  0.74682449  1
  V  V57  1  0.87078539  0.74837077  0.11568233  1
  V  V58  1  0.86424850  0.62140412  0.24902827  1
  V  V59  1  0.75052856  0.48219275  0.74509945  1
  V  V60  1  0.49681453  -0.00016547  0.50208258  1
  V  V61  1  0.24388753  0.87773865  0.62292481  1
  V  V62  1  0.87634492  0.24859195  0.12913639  1
  V  V63  1  0.00382402  0.37326682  0.37938819  1
  V  V64  1  0.24541353  0.75040117  -0.00759390  1
  V  V65  1  0.00717405  0.24786520  0.25946366  1
  V  V66  1  0.25558998  0.11593429  0.87636137  1
  V  V67  1  0.49987650  0.74857033  0.74367337  1
  V  V68  1  0.01632590  0.62402647  0.62236847  1
  V  V69  1  0.75621142  0.12074995  0.38032088  1
  V  V70  1  0.62703836  0.50007249  0.12398630  1
  V  V71  1  -0.00308272  0.87379429  0.87540990  1
  V  V72  1  0.00894628  0.49542610  0.00304329  1
  V  V73  1  0.24496015  0.38306865  0.12514891  1
  V  V74  1  0.49159324  0.87752671  0.87408881  1
  V  V75  1  0.00028514  0.74829733  0.25053653  1
  V  V76  1  0.62778665  0.12630723  0.00142976  1
  V  V77  1  0.75344753  0.38017032  0.13066332  1
  V  V78  1  0.12480042  0.12463161  0.00108975  1
  V  V79  1  0.49985399  0.37708583  0.37410648  1
  V  V80  1  0.76120285  0.00016756  0.75878893  1
  V  V81  1  0.12419433  0.88335858  0.75166877  1
  V  V82  1  0.25014874  0.25086168  -0.00115211  1
  V  V83  1  0.86760170  0.49930158  0.37365940  1
  V  V84  1  0.24739260  0.38135241  0.62035268  1
  Zn  Zn85  1  0.87623093  0.75095426  0.62418048  1
  Zn  Zn86  1  0.62672183  0.50321288  0.61740338  1
  Zn  Zn87  1  0.62571501  0.00170328  0.12838886  1
  Zn  Zn88  1  -0.00351794  0.36512626  0.86420216  1
  Zn  Zn89  1  0.75000729  0.24870047  0.00042389  1
  Zn  Zn90  1  0.24786517  0.51157583  0.24303560  1
  Zn  Zn91  1  0.75504431  0.12400998  0.87895217  1
  Zn  Zn92  1  0.49869075  0.87477760  0.37387835  1
  Zn  Zn93  1  0.75477168  -0.00472893  0.25634196  1
  Zn  Zn94  1  0.11713201  0.37664962  0.73873724  1
  Zn  Zn95  1  0.62612709  0.25150496  0.37647587  1
  Zn  Zn96  1  0.12344931  0.87223136  0.25007734  1
  Zn  Zn97  1  0.74996927  0.87076195  0.62642246  1
  Zn  Zn98  1  0.74385635  0.61927440  0.37674200  1
  Zn  Zn99  1  0.02147840  0.12983126  0.63182424  1
  Zn  Zn100  1  0.50180008  0.12499166  0.12673773  1
  Zn  Zn101  1  0.58895601  0.36863759  0.74692884  1
  Zn  Zn102  1  0.37565950  0.12672191  0.25113829  1
  Zn  Zn103  1  0.88235114  0.25146665  0.62979592  1
  Zn  Zn104  1  0.25118705  0.00244213  0.74523136  1
  Zn  Zn105  1  0.50428293  0.13124610  0.63188576  1
  Zn  Zn106  1  0.86596721  0.87367270  -0.00878952  1
  Zn  Zn107  1  0.18698332  0.19011497  0.18923911  1
  Zn  Zn108  1  0.20235306  0.19409135  0.69093291  1
  Zn  Zn109  1  0.18545830  0.68564461  0.18760954  1
  Zn  Zn110  1  0.19050471  0.69406503  0.68633863  1
  Zn  Zn111  1  0.68978591  0.18981788  0.18766566  1
  Zn  Zn112  1  0.68942429  0.18748458  0.69212812  1
  Zn  Zn113  1  0.68408286  0.69043112  0.18631721  1
  Zn  Zn114  1  0.68656500  0.68047405  0.68604296  1
  Zn  Zn115  1  0.31013603  0.31458929  0.31197288  1
  Zn  Zn116  1  0.37451636  0.34028030  0.78659504  1
  Zn  Zn117  1  0.30969426  0.81152610  0.31240431  1
  Zn  Zn118  1  0.30919129  0.81031401  0.81052286  1
  Zn  Zn119  1  0.81484616  0.30596719  0.32022761  1
  Zn  Zn120  1  0.81202453  0.30392355  0.81953933  1
  Zn  Zn121  1  0.81150104  0.80782167  0.31349960  1
  Zn  Zn122  1  0.81566277  0.81219346  0.81025107  1
  Zn  Zn123  1  0.18920384  0.43741251  0.43300076  1
  Zn  Zn124  1  0.19308147  0.43787419  0.93427148  1
  Zn  Zn125  1  0.19022692  0.92737083  0.42954420  1
  Zn  Zn126  1  0.17849862  0.93570593  0.93545489  1
  Zn  Zn127  1  0.68503482  0.43880795  0.43987390  1
  Zn  Zn128  1  0.69035207  0.43724243  0.93428825  1
  Zn  Zn129  1  0.68749797  0.93503007  0.43740504  1
  Zn  Zn130  1  0.68290921  0.93964740  0.93891556  1
  Zn  Zn131  1  0.31523935  0.06364731  0.06369056  1
  Zn  Zn132  1  0.19087765  0.06105151  0.56445941  1
  Zn  Zn133  1  0.31638073  0.56047424  0.05809367  1
  Zn  Zn134  1  0.31303732  0.56419358  0.55649892  1
  Zn  Zn135  1  0.80914325  0.06025865  0.07060019  1
  Zn  Zn136  1  0.81266305  0.06381002  0.56921352  1
  Zn  Zn137  1  0.81517526  0.56034352  0.06116788  1
  Zn  Zn138  1  0.81616411  0.56139977  0.56559617  1
  Zn  Zn139  1  0.43911766  0.43540947  0.18192700  1
  Zn  Zn140  1  0.43874391  0.44737989  0.67512740  1
  Zn  Zn141  1  0.43734521  0.93573391  0.18583416  1
  Zn  Zn142  1  0.43423697  0.94095848  0.68564855  1
  Zn  Zn143  1  0.93855724  0.43903161  0.19030444  1
  Zn  Zn144  1  0.94153585  0.43908044  0.68720597  1
  Zn  Zn145  1  0.93407483  0.93543303  0.18680525  1
  Zn  Zn146  1  0.93941545  0.93801426  0.68196072  1
  Zn  Zn147  1  0.06136029  0.05769561  0.31438131  1
  Zn  Zn148  1  0.06471588  0.06204793  0.81687726  1
  Zn  Zn149  1  0.05960179  0.56336684  0.31673636  1
  Zn  Zn150  1  0.06527968  0.55821795  0.81261914  1
  Zn  Zn151  1  0.56336424  0.06273408  0.31515193  1
  Zn  Zn152  1  0.56428589  0.06359230  0.81913944  1
  Zn  Zn153  1  0.56105213  0.56236196  0.30864350  1
  Zn  Zn154  1  0.57702163  0.56977282  0.78437011  1
  Zn  Zn155  1  0.43530820  0.18677406  0.43804359  1
  Zn  Zn156  1  0.43872322  0.18853681  0.93720252  1
  Zn  Zn157  1  0.42871460  0.69104890  0.43000785  1
  Zn  Zn158  1  0.43809681  0.68837329  0.93504401  1
  Zn  Zn159  1  0.94567722  0.19483484  0.45723906  1
  Zn  Zn160  1  0.93751581  0.18384836  0.93551101  1
  Zn  Zn161  1  0.93278184  0.68783656  0.43885992  1
  Zn  Zn162  1  0.94125218  0.68820569  0.93529391  1
  Zn  Zn163  1  0.06306748  0.31050959  0.06517160  1
  Zn  Zn164  1  0.06186850  0.30964914  0.56336814  1
  Zn  Zn165  1  0.06037116  0.81052815  0.06105465  1
  Zn  Zn166  1  0.05779225  0.81508496  0.56747964  1
  Zn  Zn167  1  0.56236304  0.31467921  0.05791478  1
  Zn  Zn168  1  0.56479747  0.32144280  0.56539304  1
  Zn  Zn169  1  0.56238468  0.81191210  0.06142855  1
  Zn  Zn170  1  0.56184529  0.81293829  0.56163949  1
  O  O171  1  0.11845627  0.11937670  0.12177463  1
  O  O172  1  0.13444805  0.12862947  0.63161413  1
  O  O173  1  0.11213341  0.62657715  0.11546027  1
  O  O174  1  0.11574139  0.62798297  0.62915150  1
  O  O175  1  0.62379721  0.12507967  0.11652537  1
  O  O176  1  0.62357055  0.11975305  0.61717256  1
  O  O177  1  0.61977592  0.62116122  0.11704802  1
  O  O178  1  0.61182098  0.60074514  0.67511388  1
  O  O179  1  0.37839116  0.38208822  0.38021024  1
  O  O180  1  0.35984079  0.37146179  0.89381625  1
  O  O181  1  0.37276240  0.88417100  0.38200842  1
  O  O182  1  0.38425273  0.86890185  0.87955199  1
  O  O183  1  0.88472425  0.38269999  0.37932655  1
  O  O184  1  0.87822108  0.37924912  0.88593877  1
  O  O185  1  0.88339651  0.86715581  0.38396340  1
  O  O186  1  0.88874037  0.87171051  0.87607398  1
  O  O187  1  0.25558747  0.00526171  0.36893380  1
  O  O188  1  0.24541592  0.01351921  0.88030283  1
  O  O189  1  0.25642586  0.50727281  0.36892038  1
  O  O190  1  0.25128068  0.51225241  0.86773275  1
  O  O191  1  0.74437928  0.01482876  0.37456679  1
  O  O192  1  0.74548780  0.00008387  0.86173040  1
  O  O193  1  0.76259952  0.50109583  0.37910560  1
  O  O194  1  0.76666351  0.50456861  0.87248325  1
  O  O195  1  0.25611634  0.48746105  0.12576001  1
  O  O196  1  0.25486785  0.49325753  0.62774140  1
  O  O197  1  0.24410023  0.99512876  0.12828491  1
  O  O198  1  0.25245270  0.98304081  0.62551923  1
  O  O199  1  0.74693572  0.48776309  0.12252210  1
  O  O200  1  0.75090940  0.50400533  0.64241837  1
  O  O201  1  0.74676888  0.98801426  0.13584545  1
  O  O202  1  0.73804262  0.99846979  0.63511453  1
  O  O203  1  0.00425647  0.36813334  0.25718785  1
  O  O204  1  0.00540298  0.37713729  0.75188286  1
  O  O205  1  -0.00365558  0.86601073  0.25816971  1
  O  O206  1  0.00477862  0.86981803  0.75370616  1
  O  O207  1  0.50700711  0.36696548  0.25338531  1
  O  O208  1  0.47546718  0.38081435  0.75432058  1
  O  O209  1  0.50714370  0.86569399  0.24869110  1
  O  O210  1  0.50168171  0.87207521  0.75797242  1
  O  O211  1  0.50081820  0.13830125  0.24975018  1
  O  O212  1  0.48914402  0.12327202  0.75388887  1
  O  O213  1  0.50512469  0.63481254  0.23620443  1
  O  O214  1  0.48572817  0.64114540  0.76498913  1
  O  O215  1  0.99570175  0.13078366  0.25109863  1
  O  O216  1  0.98999947  0.11756671  0.74901347  1
  O  O217  1  0.99362695  0.62921353  0.24233572  1
  O  O218  1  0.99816272  0.62915191  0.74623604  1
  O  O219  1  0.36950847  0.25545550  0.00769855  1
  O  O220  1  0.36890662  0.25869841  0.50087332  1
  O  O221  1  0.36700281  0.75648332  0.00527281  1
  O  O222  1  0.38383132  0.76242953  0.50790308  1
  O  O223  1  0.87805876  0.25714439  0.00779112  1
  O  O224  1  0.86097519  0.26392535  0.49388563  1
  O  O225  1  0.87963478  0.74973824  0.01251894  1
  O  O226  1  0.86554308  0.75811256  0.50217189  1
  O  O227  1  0.14395436  0.25915075  0.49447492  1
  O  O228  1  0.13304488  0.24245294  1.00075485  1
  O  O229  1  0.11887363  0.75185514  0.49023001  1
  O  O230  1  0.13315156  0.73897266  1.00518939  1
  O  O231  1  0.62895591  0.24323482  0.50118169  1
  O  O232  1  0.62698288  0.24131637  0.99725757  1
  O  O233  1  0.63228898  0.75443279  0.49153031  1
  O  O234  1  0.61894977  0.74338359  0.98561418  1
  O  O235  1  0.49238654  0.25275373  0.13215900  1
  O  O236  1  0.48592120  0.24930589  0.61351551  1
  O  O237  1  0.49472611  0.74233396  0.12870607  1
  O  O238  1  0.49258822  0.75737994  0.63726427  1
  O  O239  1  0.99501215  0.24243713  0.13486386  1
  O  O240  1  0.98704002  0.22890390  0.58135586  1
  O  O241  1  0.99176741  0.74268278  0.13195065  1
  O  O242  1  0.99726927  0.74039372  0.63278654  1
  O  O243  1  -0.00428414  0.26064427  0.37150944  1
  O  O244  1  0.02041012  0.24744162  0.88313954  1
  O  O245  1  0.00675373  0.75389139  0.37057941  1
  O  O246  1  -0.00058351  0.75722130  0.86578467  1
  O  O247  1  0.50079860  0.25697581  0.36705874  1
  O  O248  1  0.51727534  0.24793790  0.88083724  1
  O  O249  1  0.50400287  0.75285143  0.36502369  1
  O  O250  1  0.50652738  0.75993388  0.86829080  1
  O  O251  1  0.24954386  0.13649619  0.49188048  1
  O  O252  1  0.24677209  0.13189062  0.99832007  1
  O  O253  1  0.25145906  0.62291790  0.48026883  1
  O  O254  1  0.24354472  0.62827546  0.99505227  1
  O  O255  1  0.74359659  0.13000943  0.49791363  1
  O  O256  1  0.74219764  0.12295150  1.00117428  1
  O  O257  1  0.75569927  0.63611127  0.49939934  1
  O  O258  1  0.74702893  0.61838771  0.98613363  1
  O  O259  1  0.25333994  0.36894098  0.00891868  1
  O  O260  1  0.25847428  0.37036131  0.49947544  1
  O  O261  1  0.25066652  0.86726208  0.00137180  1
  O  O262  1  0.26083568  0.87641356  0.50558384  1
  O  O263  1  0.76482255  0.37669045  0.00832603  1
  O  O264  1  0.75647473  0.36822717  0.49602036  1
  O  O265  1  0.74860353  0.87962271  0.01318499  1
  O  O266  1  0.75557992  0.86604472  0.50109582  1
  O  O267  1  0.12063614  0.48832045  0.25061982  1
  O  O268  1  0.14174683  0.49484916  0.75447260  1
  O  O269  1  0.12959900  0.99626486  0.24058663  1
  O  O270  1  0.12742825  0.98752021  0.75398161  1
  O  O271  1  0.62069495  0.48650837  0.24189663  1
  O  O272  1  0.65025142  0.47803869  0.77500815  1
  O  O273  1  0.62201092  0.98544991  0.25086892  1
  O  O274  1  0.63017266  0.99753722  0.74509929  1
  O  O275  1  0.37049107  0.00067735  0.25736810  1
  O  O276  1  0.37326549  0.01642255  0.74869884  1
  O  O277  1  0.37480110  0.49174249  0.25991631  1
  O  O278  1  0.36521898  0.51938248  0.74117576  1
  O  O279  1  0.87736126  0.01443006  0.25027450  1
  O  O280  1  0.86362258  0.00195600  0.74630117  1
  O  O281  1  0.88149434  0.50958715  0.26032673  1
  O  O282  1  0.87258061  0.50712143  0.75811863  1
  O  O283  1  0.11150758  0.37912978  0.36691019  1
  O  O284  1  0.12689920  0.35982164  0.88157109  1
  O  O285  1  0.11736233  0.85888266  0.37079248  1
  O  O286  1  0.11199513  0.87306974  0.86602243  1
  O  O287  1  0.61930000  0.37481322  0.36632291  1
  O  O288  1  0.62765628  0.35869441  0.88002911  1
  O  O289  1  0.62292031  0.86447943  0.36747310  1
  O  O290  1  0.61681193  0.86896105  0.87167365  1
  O  O291  1  0.37713538  0.13966339  0.12774884  1
  O  O292  1  0.38027664  0.13307243  0.63974124  1
  O  O293  1  0.38635485  0.63092686  0.11820763  1
  O  O294  1  0.36754478  0.63938785  0.63090090  1
  O  O295  1  0.88012571  0.13016351  0.13564567  1
  O  O296  1  0.87447966  0.12377436  0.64395527  1
  O  O297  1  0.88197868  0.62961826  0.12990731  1
  O  O298  1  0.88356912  0.62426045  0.63849326  1
  O  O299  1  0.25591651  0.25719603  0.11789576  1
  O  O300  1  0.26348495  0.25727036  0.60958666  1
  O  O301  1  0.25352441  0.75228281  0.11564552  1
  O  O302  1  0.26165621  0.76339582  0.62859399  1
  O  O303  1  0.75849766  0.26178799  0.12318266  1
  O  O304  1  0.75415738  0.24471869  0.61354761  1
  O  O305  1  0.75931453  0.75758879  0.12949613  1
  O  O306  1  0.74925800  0.74892958  0.61964053  1
  O  O307  1  0.25912155  0.24055304  0.38558753  1
  O  O308  1  0.23992399  0.24022086  0.89265608  1
  O  O309  1  0.23274296  0.74657879  0.37109592  1
  O  O310  1  0.25039667  0.74166480  0.88713351  1
  O  O311  1  0.74498625  0.23833307  0.38574943  1
  O  O312  1  0.74046146  0.24354312  0.88280713  1
  O  O313  1  0.74089806  0.74603854  0.38330051  1
  O  O314  1  0.74245939  0.74276574  0.86972769  1
  O  O315  1  0.00355049  0.11627804  0.00666067  1
  O  O316  1  0.00023676  0.09763120  0.48317161  1
  O  O317  1  0.00651825  0.61848084  0.00504738  1
  O  O318  1  -0.00566910  0.61403390  0.50697592  1
  O  O319  1  0.50518581  0.11676126  0.00225587  1
  O  O320  1  0.50673039  0.11444667  0.50014972  1
  O  O321  1  0.50638186  0.61901481  0.00451568  1
  O  O322  1  0.49849249  0.61909904  0.48690977  1
  O  O323  1  0.49235538  0.37969398  0.48831227  1
  O  O324  1  0.49238284  0.38766196  1.00156186  1
  O  O325  1  0.49383387  0.88657052  0.49904567  1
  O  O326  1  0.49363346  0.87989947  0.99359207  1
  O  O327  1  0.99444227  0.38636496  0.49468983  1
  O  O328  1  0.99193035  0.38048156  1.00271101  1
  O  O329  1  0.99200071  0.88353868  0.49598331  1
  O  O330  1  0.99871763  0.88117320  0.99291433  1
  O  O331  1  0.49281854  0.49696350  0.37729996  1
  O  O332  1  0.51248102  0.51336040  0.87910469  1
  O  O333  1  0.49196698  0.99786072  0.38170976  1
  O  O334  1  0.50486976  0.98948182  0.88837018  1
  O  O335  1  0.99051998  0.49653832  0.38541942  1
  O  O336  1  0.99138115  0.49867979  0.88317332  1
  O  O337  1  1.00852987  0.98057905  0.38112357  1
  O  O338  1  1.00522968  0.99158336  0.88806194  1
  O  O339  1  0.00547567  0.00356325  0.12119336  1
  O  O340  1  0.00205973  0.00450210  0.60873319  1
  O  O341  1  -0.00619245  0.50902484  0.11545931  1
  O  O342  1  -0.00220359  0.50830694  0.61037151  1
  O  O343  1  0.50188553  0.00057604  0.11400739  1
  O  O344  1  0.51028043  0.00257475  0.61879891  1
  O  O345  1  0.50692626  0.50851039  0.12072501  1
  O  O346  1  0.48950966  0.51118191  0.59865359  1
  O  O347  1  0.23875687  0.37487751  0.24308313  1
  O  O348  1  0.26473756  0.38695055  0.73580254  1
  O  O349  1  0.24710393  0.88123279  0.24190236  1
  O  O350  1  0.24147391  0.87689368  0.74558454  1
  O  O351  1  0.74349885  0.36780179  0.24478081  1
  O  O352  1  0.77108295  0.38533847  0.74906849  1
  O  O353  1  0.74206223  0.87313759  0.24493857  1
  O  O354  1  0.74558013  0.88546765  0.74948678  1
  O  O355  1  0.25318214  0.12023442  0.25563744  1
  O  O356  1  0.26074115  0.12145352  0.76159400  1
  O  O357  1  0.24120025  0.62410571  0.26293958  1
  O  O358  1  0.25313170  0.62392039  0.75758861  1
  O  O359  1  0.75913605  0.12709126  0.26020885  1
  O  O360  1  0.75719304  0.11241792  0.75318328  1
  O  O361  1  0.76149598  0.62863311  0.24894458  1
  O  O362  1  0.76259575  0.61752203  0.76305020  1
  O  O363  1  0.36876993  0.11242490  0.37432892  1
  O  O364  1  0.36814227  0.13392077  0.86442586  1
  O  O365  1  0.36421918  0.61887878  0.36927109  1
  O  O366  1  0.36258293  0.63382060  0.86601099  1
  O  O367  1  0.86807756  0.13318948  0.37133822  1
  O  O368  1  0.87402646  0.12467668  0.86026436  1
  O  O369  1  0.87377433  0.61781813  0.36551508  1
  O  O370  1  0.87402496  0.61849181  0.86876367  1
  O  O371  1  0.13403219  0.37100073  0.13348137  1
  O  O372  1  0.14251295  0.36703575  0.62330590  1
  O  O373  1  0.12980708  0.88076997  0.12473197  1
  O  O374  1  0.13258414  0.86877782  0.63557821  1
  O  O375  1  0.63479996  0.37839251  0.12995793  1
  O  O376  1  0.61276033  0.39056372  0.63610289  1
  O  O377  1  0.63198505  0.87172145  0.13265049  1
  O  O378  1  0.62539777  0.88339904  0.63319694  1
  O  O379  1  0.11147162  0.25824482  0.24734976  1
  O  O380  1  0.13920336  0.25712541  0.76664955  1
  O  O381  1  0.10831418  0.75058146  0.24883528  1
  O  O382  1  0.11407090  0.75844525  0.74847377  1
  O  O383  1  0.61806648  0.26054469  0.25008248  1
  O  O384  1  0.62770164  0.25225900  0.76389644  1
  O  O385  1  0.61554070  0.75873719  0.25407168  1
  O  O386  1  0.61705301  0.75814621  0.75896111  1
  O  O387  1  0.38323117  0.25276349  0.24285822  1
  O  O388  1  0.36565738  0.23795861  0.73707601  1
  O  O389  1  0.38620651  0.75652464  0.24284111  1
  O  O390  1  0.38044784  0.74594770  0.74167259  1
  O  O391  1  0.88633206  0.24223019  0.24824141  1
  O  O392  1  0.87632987  0.23729887  0.74858183  1
  O  O393  1  0.88427419  0.74093097  0.24445861  1
  O  O394  1  0.88578840  0.74094051  0.74866360  1
  O  O395  1  0.38242289  0.49495377  0.48433073  1
  O  O396  1  0.38873500  0.49318868  0.99968852  1
  O  O397  1  0.38440397  0.99170445  0.49170350  1
  O  O398  1  0.38228334  0.99079397  1.00414093  1
  O  O399  1  0.87996772  0.49427621  0.49337243  1
  O  O400  1  0.88598868  0.49307001  0.99431800  1
  O  O401  1  0.87425963  0.98829385  0.50252710  1
  O  O402  1  0.88568582  0.99660730  1.00885673  1
  O  O403  1  0.11744430  0.00573089  0.00913904  1
  O  O404  1  0.12051770  -0.00834996  0.49773036  1
  O  O405  1  0.11449651  0.50403300  -0.00410812  1
  O  O406  1  0.10952222  0.49864570  0.49287684  1
  O  O407  1  0.61655476  0.00865168  0.00403798  1
  O  O408  1  0.61991841  0.00510733  0.50803290  1
  O  O409  1  0.61998233  0.50463186  0.00370078  1
  O  O410  1  0.60931000  0.50411472  0.49603876  1
  O  O411  1  0.36782326  0.36593246  0.11810891  1
  O  O412  1  0.36850246  0.37172126  0.60826588  1
  O  O413  1  0.36695898  0.86768371  0.11742272  1
  O  O414  1  0.36991476  0.86925798  0.61816693  1
  O  O415  1  0.87128041  0.37081333  0.12289980  1
  O  O416  1  0.88010361  0.37371304  0.61149726  1
  O  O417  1  0.86624210  0.86456745  0.12481346  1
  O  O418  1  0.87190110  0.87157752  0.61531470  1
  O  O419  1  0.13752629  0.12297669  0.36906868  1
  O  O420  1  0.13329300  0.13369198  0.88129550  1
  O  O421  1  0.12529410  0.63952162  0.37363026  1
  O  O422  1  0.13092507  0.62215608  0.88779183  1
  O  O423  1  0.62960509  0.12633328  0.38864038  1
  O  O424  1  0.62768157  0.13159661  0.88787599  1
  O  O425  1  0.62660614  0.63886632  0.36455090  1
  O  O426  1  0.63651145  0.63358568  0.87480925  1
