# generated using pymatgen
data_V85Zn86O256
_symmetry_space_group_name_H-M   'P 1'
_cell_length_a   16.93696850
_cell_length_b   16.93457481
_cell_length_c   16.94465480
_cell_angle_alpha   89.98751224
_cell_angle_beta   90.06566884
_cell_angle_gamma   90.03484182
_symmetry_Int_Tables_number   1
_chemical_formula_structural   V85Zn86O256
_chemical_formula_sum   'V85 Zn86 O256'
_cell_volume   4860.06778749
_cell_formula_units_Z   1
loop_
 _symmetry_equiv_pos_site_id
 _symmetry_equiv_pos_as_xyz
  1  'x, y, z'
loop_
 _atom_site_type_symbol
 _atom_site_label
 _atom_site_symmetry_multiplicity
 _atom_site_fract_x
 _atom_site_fract_y
 _atom_site_fract_z
 _atom_site_occupancy
  V  V0  1  0.87881669  0.25122517  0.13013670  1
  V  V1  1  0.88378394  0.49968703  0.37265292  1
  V  V2  1  0.75059648  0.49945511  0.24711514  1
  V  V3  1  0.36567323  0.37058629  0.49429707  1
  V  V4  1  0.37135367  0.26020861  0.12494867  1
  V  V5  1  0.49051991  0.74682656  0.25193651  1
  V  V6  1  0.25881666  0.13695386  0.39206982  1
  V  V7  1  0.00418463  0.87680720  0.38127159  1
  V  V8  1  0.12198186  0.24708454  0.39172335  1
  V  V9  1  0.48914805  0.49998030  -0.00785122  1
  V  V10  1  0.75010426  0.00036651  0.25081816  1
  V  V11  1  0.74888395  0.87520420  0.12641072  1
  V  V12  1  0.00090382  0.24300949  0.73962285  1
  V  V13  1  0.88578950  0.62114091  0.74636611  1
  V  V14  1  -0.00251642  0.37022213  0.87413393  1
  V  V15  1  0.62197876  0.36901037  0.73593853  1
  V  V16  1  0.12156740  0.24492523  0.87299570  1
  V  V17  1  0.12299062  0.38405264  0.74092304  1
  V  V18  1  0.62253889  0.00079891  0.12477999  1
  V  V19  1  0.88153771  0.12276351  0.74499189  1
  V  V20  1  0.87327197  -0.00168994  0.87507158  1
  V  V21  1  0.23893715  0.86491069  0.61576713  1
  V  V22  1  0.87456785  0.37223018  0.00052733  1
  V  V23  1  0.87114196  0.49619219  0.87385901  1
  V  V24  1  0.74315091  0.49463709  0.73378001  1
  V  V25  1  0.74979313  0.62576770  0.37386927  1
  V  V26  1  0.01349650  -0.00619564  -0.00763524  1
  V  V27  1  0.62412981  0.87303595  0.25001349  1
  V  V28  1  0.62488370  0.12322938  0.51694859  1
  V  V29  1  0.62479868  0.75062454  0.86935332  1
  V  V30  1  0.62391212  0.49935299  0.12239944  1
  V  V31  1  0.38217121  0.01006688  0.37731469  1
  V  V32  1  0.49402353  0.24579732  0.25520650  1
  V  V33  1  0.87518122  0.75014962  0.12540241  1
  V  V34  1  0.00872144  0.62587574  0.12080227  1
  V  V35  1  0.37301432  0.75552853  0.11478106  1
  V  V36  1  0.49265197  0.62103135  0.62724396  1
  V  V37  1  0.24985070  0.12162363  0.87013738  1
  V  V38  1  0.26159034  0.62340059  0.37154830  1
  V  V39  1  0.00262436  0.01613111  0.50469516  1
  V  V40  1  0.86579697  0.24994584  0.62303190  1
  V  V41  1  0.00281485  0.12882883  0.13150402  1
  V  V42  1  0.25667827  0.00951598  0.25854555  1
  V  V43  1  0.00321329  0.75131665  0.25383619  1
  V  V44  1  0.74864992  0.37393357  0.12369510  1
  V  V45  1  0.25022909  0.25716886  0.00119736  1
  V  V46  1  0.12624084  0.00256695  0.13520368  1
  V  V47  1  0.00380197  0.50323566  0.51531883  1
  V  V48  1  0.48754025  0.12520924  0.12840820  1
  V  V49  1  0.86814563  0.37746490  0.50256819  1
  V  V50  1  0.50001548  0.87589960  0.37667422  1
  V  V51  1  0.49211171  -0.00229376  -0.00010393  1
  V  V52  1  0.00665871  0.76071061  0.75090673  1
  V  V53  1  0.50954085  -0.00399659  0.51715427  1
  V  V54  1  0.74786416  0.61985465  0.87232175  1
  V  V55  1  0.87760814  0.74674745  0.62392438  1
  V  V56  1  0.62299174  0.62355295  -0.00123171  1
  V  V57  1  0.25665144  0.87758522  0.12268190  1
  V  V58  1  0.26168593  0.49761451  0.24990379  1
  V  V59  1  0.13226257  0.74583622  0.38056512  1
  V  V60  1  0.74512365  0.87531332  0.62261257  1
  V  V61  1  0.38815116  0.12933151  0.74484021  1
  V  V62  1  0.49671491  0.38188123  0.37080748  1
  V  V63  1  0.87366033  0.87760862  -0.00125442  1
  V  V64  1  0.12357241  0.36601551  0.24510931  1
  V  V65  1  0.74872991  0.12744231  0.87492933  1
  V  V66  1  0.12785846  0.12646152  0.00499986  1
  V  V67  1  0.62192743  0.12783745  0.00108789  1
  V  V68  1  0.49492585  0.36860385  0.86848348  1
  V  V69  1  0.36944335  -0.00836126  0.87499359  1
  V  V70  1  0.62864727  0.61866524  0.50855803  1
  V  V71  1  0.13224239  0.50059506  0.12612194  1
  V  V72  1  0.00393289  0.50250349  -0.00131617  1
  V  V73  1  0.74372458  -0.00074157  0.74409058  1
  V  V74  1  0.24589930  -0.01222767  0.74739247  1
  V  V75  1  0.13011847  0.62221946  0.50944472  1
  V  V76  1  0.49845339  0.87333922  0.87605428  1
  V  V77  1  0.87701597  0.62539156  0.24843232  1
  V  V78  1  0.87627058  0.12765000  0.25076750  1
  V  V79  1  0.74472346  0.12722607  0.37592454  1
  V  V80  1  0.49177205  0.62377004  0.12877926  1
  V  V81  1  0.49176270  0.50264240  0.49420063  1
  V  V82  1  0.87687444  0.00042549  0.37751778  1
  V  V83  1  0.74886556  0.74937740  -0.00123287  1
  V  V84  1  0.12054702  0.01576649  0.62588893  1
  Zn  Zn85  1  0.03583825  0.84129413  0.89744891  1
  Zn  Zn86  1  0.74825581  0.24992458  0.00051164  1
  Zn  Zn87  1  0.26690811  0.49644755  0.74853964  1
  Zn  Zn88  1  0.36373493  0.38376198  -0.01068647  1
  Zn  Zn89  1  0.49701470  0.75092721  0.74612559  1
  Zn  Zn90  1  0.36971609  0.87392804  0.50123274  1
  Zn  Zn91  1  0.24046822  0.37243706  0.61518333  1
  Zn  Zn92  1  0.74369801  0.25853543  0.50070879  1
  Zn  Zn93  1  0.87609151  0.87476243  0.50293543  1
  Zn  Zn94  1  0.37270262  0.24613180  0.62163112  1
  Zn  Zn95  1  0.62059665  0.87928974  0.74322648  1
  Zn  Zn96  1  0.26133458  0.59362044  0.88694290  1
  Zn  Zn97  1  0.62424559  0.74692334  0.37441103  1
  Zn  Zn98  1  0.13248532  0.87639710  0.25894144  1
  Zn  Zn99  1  -0.00046009  0.36865414  0.37085377  1
  Zn  Zn100  1  0.17484930  0.70512651  -0.05648237  1
  Zn  Zn101  1  0.37198668  0.62168967  0.75965351  1
  Zn  Zn102  1  0.75150716  0.75064350  0.49868420  1
  Zn  Zn103  1  0.62348363  0.37211768  0.24940924  1
  Zn  Zn104  1  0.62124496  0.24905752  0.86890267  1
  Zn  Zn105  1  0.36767738  0.74983424  0.62126148  1
  Zn  Zn106  1  0.62238647  0.25123446  0.37571359  1
  Zn  Zn107  1  0.19679222  0.18721756  0.19466065  1
  Zn  Zn108  1  0.19490635  0.19267424  0.68257461  1
  Zn  Zn109  1  0.19216767  0.68809298  0.19073031  1
  Zn  Zn110  1  0.18901956  0.68055174  0.69676357  1
  Zn  Zn111  1  0.68371294  0.18930609  0.18813142  1
  Zn  Zn112  1  0.69007876  0.18890490  0.68858218  1
  Zn  Zn113  1  0.68303525  0.68739204  0.18797510  1
  Zn  Zn114  1  0.69174363  0.68654751  0.68722240  1
  Zn  Zn115  1  0.31402753  0.31561400  0.31479328  1
  Zn  Zn116  1  0.30947136  0.31130693  0.80932725  1
  Zn  Zn117  1  0.31393240  0.81597031  0.31501901  1
  Zn  Zn118  1  0.31188793  0.79351023  0.80978308  1
  Zn  Zn119  1  0.81147609  0.31280695  0.31278055  1
  Zn  Zn120  1  0.80729930  0.31073111  0.80847489  1
  Zn  Zn121  1  0.81609964  0.81342192  0.31425095  1
  Zn  Zn122  1  0.81480560  0.81169693  0.80958590  1
  Zn  Zn123  1  0.18340142  0.44202560  0.42911346  1
  Zn  Zn124  1  0.17966711  0.44467961  0.93151823  1
  Zn  Zn125  1  0.18534947  0.94538904  0.44242462  1
  Zn  Zn126  1  0.18900438  0.88076720  0.92870725  1
  Zn  Zn127  1  0.68460905  0.44037025  0.43335151  1
  Zn  Zn128  1  0.68130412  0.43393835  0.93383258  1
  Zn  Zn129  1  0.68702139  0.93754947  0.43936474  1
  Zn  Zn130  1  0.68456713  0.93921375  0.93606323  1
  Zn  Zn131  1  0.30905261  0.06118158  0.06044381  1
  Zn  Zn132  1  0.31417175  0.05608830  0.56385658  1
  Zn  Zn133  1  0.30800712  0.57181817  0.06167025  1
  Zn  Zn134  1  0.30651588  0.55025783  0.56778781  1
  Zn  Zn135  1  0.81279984  0.06330722  0.06250677  1
  Zn  Zn136  1  0.81356314  0.06178794  0.56252984  1
  Zn  Zn137  1  0.81490254  0.56210843  0.06034977  1
  Zn  Zn138  1  0.81621512  0.56324671  0.56152546  1
  Zn  Zn139  1  0.43789448  0.43437138  0.18387123  1
  Zn  Zn140  1  0.44038616  0.43922408  0.67743559  1
  Zn  Zn141  1  0.43516368  0.94038719  0.19433952  1
  Zn  Zn142  1  0.42881249  0.93283631  0.69138755  1
  Zn  Zn143  1  0.94315546  0.43675935  0.18819896  1
  Zn  Zn144  1  0.93496239  0.43327065  0.68838774  1
  Zn  Zn145  1  0.94050900  0.93824568  0.19090443  1
  Zn  Zn146  1  0.93867291  0.93369169  0.68701031  1
  Zn  Zn147  1  0.06569221  0.07002584  0.31814919  1
  Zn  Zn148  1  0.07593569  0.03330823  0.82771887  1
  Zn  Zn149  1  0.06836599  0.56336867  0.30961299  1
  Zn  Zn150  1  0.07030540  0.56828363  0.81811161  1
  Zn  Zn151  1  0.56129967  0.06382925  0.31163018  1
  Zn  Zn152  1  0.56219669  0.06102739  0.81374699  1
  Zn  Zn153  1  0.56379541  0.56246160  0.31086558  1
  Zn  Zn154  1  0.55872181  0.55496488  0.80928398  1
  Zn  Zn155  1  0.44698769  0.19489216  0.46347054  1
  Zn  Zn156  1  0.43347152  0.18800525  0.93437174  1
  Zn  Zn157  1  0.43644087  0.69262267  0.44462889  1
  Zn  Zn158  1  0.43238194  0.68971785  0.93976480  1
  Zn  Zn159  1  0.93621867  0.19155488  0.43559735  1
  Zn  Zn160  1  0.93753389  0.18320635  0.94054142  1
  Zn  Zn161  1  0.94214365  0.68594974  0.44116961  1
  Zn  Zn162  1  0.93578585  0.68360791  0.93594578  1
  Zn  Zn163  1  0.06452903  0.31406588  0.06463491  1
  Zn  Zn164  1  0.05103046  0.31294726  0.56062158  1
  Zn  Zn165  1  0.06693167  0.81640719  0.07549688  1
  Zn  Zn166  1  0.06429849  0.81118496  0.56485892  1
  Zn  Zn167  1  0.55696912  0.31309672  0.05974921  1
  Zn  Zn168  1  0.54980743  0.30660795  0.56159650  1
  Zn  Zn169  1  0.55941727  0.81157300  0.06027977  1
  Zn  Zn170  1  0.56461331  0.80421816  0.55913617  1
  O  O171  1  0.11935330  0.12373606  0.12959832  1
  O  O172  1  0.12489603  0.11445108  0.63008019  1
  O  O173  1  0.11732946  0.61820276  0.13059592  1
  O  O174  1  0.13095297  0.62823796  0.60752198  1
  O  O175  1  0.61658112  0.11866016  0.11861491  1
  O  O176  1  0.62987071  0.12330172  0.61555040  1
  O  O177  1  0.61680424  0.61991391  0.11803720  1
  O  O178  1  0.62564137  0.62594820  0.61109833  1
  O  O179  1  0.38740625  0.38081378  0.37836505  1
  O  O180  1  0.39016864  0.36764230  0.87226467  1
  O  O181  1  0.38759059  0.88479015  0.37765925  1
  O  O182  1  0.38397618  0.88608703  0.87052555  1
  O  O183  1  0.87844515  0.38338234  0.37819301  1
  O  O184  1  0.88133772  0.37413379  0.87750946  1
  O  O185  1  0.88513925  0.88290461  0.37643667  1
  O  O186  1  0.86858523  0.88452312  0.88541133  1
  O  O187  1  0.25936465  0.01136761  0.37672505  1
  O  O188  1  0.25633206  0.00240319  0.86760371  1
  O  O189  1  0.24578289  0.51255271  0.36024975  1
  O  O190  1  0.25805623  0.48023773  0.86495872  1
  O  O191  1  0.75545910  0.00557349  0.36919137  1
  O  O192  1  0.75639291  0.00864344  0.87140102  1
  O  O193  1  0.76138236  0.50950913  0.36864855  1
  O  O194  1  0.75512459  0.50229677  0.87145377  1
  O  O195  1  0.24272386  0.50894505  0.13767296  1
  O  O196  1  0.24839195  0.48406930  0.63409309  1
  O  O197  1  0.24807372  0.99989364  0.13970489  1
  O  O198  1  0.23719746  0.99707329  0.62988388  1
  O  O199  1  0.74531172  0.49427617  0.12647819  1
  O  O200  1  0.75332995  0.49871239  0.63578171  1
  O  O201  1  0.74444039  0.99574693  0.13127208  1
  O  O202  1  0.75675403  0.99022973  0.63418967  1
  O  O203  1  0.01808006  0.37895637  0.25315222  1
  O  O204  1  0.00174627  0.36287117  0.75650602  1
  O  O205  1  0.00454342  0.87252443  0.26437421  1
  O  O206  1  -0.00305059  0.86303803  0.75874259  1
  O  O207  1  0.50064611  0.36797704  0.25471664  1
  O  O208  1  0.51229208  0.38111223  0.75845506  1
  O  O209  1  0.50546155  0.87034629  0.25750280  1
  O  O210  1  0.50304030  0.87511482  0.76140498  1
  O  O211  1  0.50161594  0.13189696  0.23974113  1
  O  O212  1  0.48715885  0.12070068  0.75376575  1
  O  O213  1  0.50681545  0.63491941  0.24073304  1
  O  O214  1  0.50876072  0.62358191  0.73271355  1
  O  O215  1  0.99287727  0.11852065  0.23926429  1
  O  O216  1  0.98489386  0.13015258  0.75877691  1
  O  O217  1  0.99520957  0.62911328  0.24072932  1
  O  O218  1  0.98780816  0.62464783  0.75479838  1
  O  O219  1  0.36532514  0.25039304  0.00484071  1
  O  O220  1  0.35946455  0.27153566  0.47908817  1
  O  O221  1  0.38793278  0.76225401  0.01679488  1
  O  O222  1  0.38106570  0.76198385  0.50865615  1
  O  O223  1  0.87273314  0.25364195  0.01206703  1
  O  O224  1  0.87428841  0.25974427  0.50564109  1
  O  O225  1  0.86844449  0.75704985  0.00501900  1
  O  O226  1  0.87465955  0.74923017  0.50923018  1
  O  O227  1  0.12395265  0.25722423  0.49004813  1
  O  O228  1  0.12919376  0.24394851  0.99517090  1
  O  O229  1  0.11582273  0.73391125  0.49047165  1
  O  O230  1  0.10971815  0.79088288  0.97762868  1
  O  O231  1  0.62639335  0.23368085  0.49709749  1
  O  O232  1  0.62539232  0.23616495  1.00289543  1
  O  O233  1  0.63072766  0.73363724  0.49269383  1
  O  O234  1  0.62978174  0.74523079  0.99024004  1
  O  O235  1  0.49144467  0.24256399  0.12947511  1
  O  O236  1  0.47476179  0.22704449  0.57501747  1
  O  O237  1  0.49591856  0.74479705  0.13203600  1
  O  O238  1  0.50573696  0.73263782  0.62589263  1
  O  O239  1  0.99208224  0.24041959  0.12148809  1
  O  O240  1  0.98862810  0.24830789  0.63551270  1
  O  O241  1  0.99777834  0.74437059  0.13313670  1
  O  O242  1  0.98684537  0.75702770  0.63636937  1
  O  O243  1  0.01655681  0.24846134  0.37505100  1
  O  O244  1  -0.00017622  0.25276311  0.86820971  1
  O  O245  1  0.00657216  0.75754991  0.37208652  1
  O  O246  1  -0.01263370  0.74739154  0.85823394  1
  O  O247  1  0.49889992  0.25631474  0.36814978  1
  O  O248  1  0.50363953  0.26378029  0.88091192  1
  O  O249  1  0.50101972  0.75788024  0.36776280  1
  O  O250  1  0.50864665  0.75863648  0.87577935  1
  O  O251  1  0.25147068  0.12306459  0.48991246  1
  O  O252  1  0.24591593  0.12963870  0.98907625  1
  O  O253  1  0.23622485  0.61179610  0.48648021  1
  O  O254  1  0.25385535  0.63974078  0.99572877  1
  O  O255  1  0.73829941  0.12106969  0.49304850  1
  O  O256  1  0.74052473  0.12308126  0.99291677  1
  O  O257  1  0.74300985  0.62177165  0.49190518  1
  O  O258  1  0.74415553  0.62904215  0.99370137  1
  O  O259  1  0.24592189  0.35970168  -0.00544093  1
  O  O260  1  0.26432756  0.39246195  0.49264431  1
  O  O261  1  0.25300410  0.89462522  0.02554124  1
  O  O262  1  0.24829413  0.87971422  0.51210133  1
  O  O263  1  0.75597770  0.37415324  0.00668649  1
  O  O264  1  0.76339245  0.37906901  0.49230090  1
  O  O265  1  0.75601657  0.87300669  0.00600768  1
  O  O266  1  0.75393270  0.87249320  0.50666483  1
  O  O267  1  0.13110404  0.49239447  0.24077307  1
  O  O268  1  0.11036758  0.48234456  0.74957098  1
  O  O269  1  0.13393572  1.00418220  0.24793779  1
  O  O270  1  0.13206947  0.99984121  0.73647555  1
  O  O271  1  0.63288975  0.49947914  0.23838958  1
  O  O272  1  0.63736506  0.48925065  0.74990867  1
  O  O273  1  0.62929601  0.99333584  0.24321629  1
  O  O274  1  0.63997571  0.99933303  0.75638857  1
  O  O275  1  0.37262216  0.00319761  0.26856679  1
  O  O276  1  0.36595720  0.00728719  0.75847235  1
  O  O277  1  0.36041856  0.49516524  0.24269137  1
  O  O278  1  0.38393262  0.50808528  0.74099529  1
  O  O279  1  0.86966348  0.00644205  0.25612052  1
  O  O280  1  0.86807762  0.00500008  0.75690301  1
  O  O281  1  0.87123298  0.50437698  0.25434628  1
  O  O282  1  0.86501859  0.50170782  0.75374766  1
  O  O283  1  0.12504838  0.36252755  0.36626898  1
  O  O284  1  0.10863041  0.36550863  0.86854442  1
  O  O285  1  0.12140436  0.86759621  0.37924019  1
  O  O286  1  0.09177280  0.93971164  0.90310041  1
  O  O287  1  0.61423933  0.37245417  0.37147628  1
  O  O288  1  0.61498697  0.37011532  0.86610504  1
  O  O289  1  0.61639380  0.87391786  0.36873079  1
  O  O290  1  0.61946527  0.86676669  0.87325286  1
  O  O291  1  0.38497437  0.13016568  0.11943408  1
  O  O292  1  0.36840367  0.11757889  0.64391080  1
  O  O293  1  0.38657095  0.63682169  0.12512716  1
  O  O294  1  0.38890918  0.62445986  0.61541494  1
  O  O295  1  0.88202037  0.13142045  0.12864523  1
  O  O296  1  0.87096781  0.13242946  0.63458356  1
  O  O297  1  0.88161272  0.63157696  0.12997576  1
  O  O298  1  0.87042133  0.63301083  0.63439651  1
  O  O299  1  0.26077894  0.23905805  0.11471827  1
  O  O300  1  0.25948112  0.26085062  0.62593381  1
  O  O301  1  0.25736695  0.76757203  0.13484223  1
  O  O302  1  0.24226311  0.76297022  0.62952911  1
  O  O303  1  0.75668784  0.25674077  0.12395690  1
  O  O304  1  0.76120790  0.24931776  0.62022944  1
  O  O305  1  0.75330965  0.75466247  0.11876448  1
  O  O306  1  0.76131513  0.75539573  0.62462104  1
  O  O307  1  0.24261692  0.24070277  0.37133384  1
  O  O308  1  0.24316888  0.23974910  0.88069613  1
  O  O309  1  0.24187585  0.73886789  0.36752938  1
  O  O310  1  0.23075018  0.78815888  0.87984677  1
  O  O311  1  0.74750479  0.24132775  0.37825867  1
  O  O312  1  0.74757081  0.23823788  0.87830677  1
  O  O313  1  0.75338987  0.73618826  0.37357651  1
  O  O314  1  0.74433496  0.74380195  0.87961348  1
  O  O315  1  0.00741380  0.11794321  0.01257070  1
  O  O316  1  -0.00438060  0.11501010  0.49678199  1
  O  O317  1  -0.00700591  0.62000489  0.01326385  1
  O  O318  1  0.01035012  0.61027186  0.49593537  1
  O  O319  1  0.50490509  0.11863815  0.00538189  1
  O  O320  1  0.51936284  0.10498050  0.48979772  1
  O  O321  1  0.50540927  0.61795459  0.00746246  1
  O  O322  1  0.51192565  0.62074132  0.50219602  1
  O  O323  1  0.49541510  0.38539033  0.48790444  1
  O  O324  1  0.49836030  0.38355460  0.98782900  1
  O  O325  1  0.50917081  0.88480397  0.49254140  1
  O  O326  1  0.50717732  0.88663679  0.98857319  1
  O  O327  1  0.99096609  0.38895298  0.49340151  1
  O  O328  1  0.99370205  0.37723277  0.99253806  1
  O  O329  1  0.99998757  0.87994519  0.49016471  1
  O  O330  1  0.98116745  0.87961654  1.01017111  1
  O  O331  1  0.50486949  0.49385616  0.37945596  1
  O  O332  1  0.50527536  0.48765568  0.88474266  1
  O  O333  1  0.49696083  0.99295958  0.37719252  1
  O  O334  1  0.49382050  0.99436661  0.88268498  1
  O  O335  1  0.98936262  0.50203334  0.37335442  1
  O  O336  1  0.99154099  0.48929231  0.87901239  1
  O  O337  1  0.99984200  0.99543425  0.38303463  1
  O  O338  1  0.97511768  1.02242348  0.88273470  1
  O  O339  1  0.01037575  0.00428470  0.12241379  1
  O  O340  1  0.01102690  -0.00460680  0.61963032  1
  O  O341  1  0.00725918  0.50896703  0.12133481  1
  O  O342  1  -0.00554089  0.49990893  0.61321296  1
  O  O343  1  0.50062484  0.00558338  0.11927389  1
  O  O344  1  0.49962740  -0.00919410  0.61483048  1
  O  O345  1  0.50573400  0.50738838  0.12085590  1
  O  O346  1  0.50727274  0.51381608  0.60964307  1
  O  O347  1  0.23980217  0.38996945  0.25680024  1
  O  O348  1  0.22653674  0.36794174  0.75375878  1
  O  O349  1  0.25160304  0.89245202  0.25066598  1
  O  O350  1  0.25173704  0.88636044  0.73933950  1
  O  O351  1  0.74853839  0.38150473  0.24102209  1
  O  O352  1  0.73848813  0.38567490  0.75187111  1
  O  O353  1  0.74471656  0.87905597  0.24601237  1
  O  O354  1  0.75013734  0.88366097  0.74347985  1
  O  O355  1  0.25270328  0.11532196  0.26541447  1
  O  O356  1  0.24984947  0.11707862  0.76244170  1
  O  O357  1  0.24827169  0.61478806  0.26175066  1
  O  O358  1  0.25156099  0.61679909  0.75952508  1
  O  O359  1  0.75450717  0.12078182  0.25592774  1
  O  O360  1  0.75702624  0.11864813  0.75732031  1
  O  O361  1  0.75614098  0.62019336  0.25401589  1
  O  O362  1  0.75379696  0.61043267  0.75381774  1
  O  O363  1  0.36796518  0.12335979  0.38704402  1
  O  O364  1  0.36828852  0.11477891  0.86835159  1
  O  O365  1  0.35971797  0.63098054  0.37959589  1
  O  O366  1  0.37332222  0.62798726  0.87427433  1
  O  O367  1  0.86461339  0.12155781  0.37131979  1
  O  O368  1  0.86249919  0.12210401  0.87106291  1
  O  O369  1  0.87124650  0.61920909  0.36909339  1
  O  O370  1  0.86635829  0.61599727  0.86749972  1
  O  O371  1  0.12465185  0.38121828  0.13781215  1
  O  O372  1  0.11531544  0.36782327  0.63888984  1
  O  O373  1  0.13729028  0.88637072  0.13755869  1
  O  O374  1  0.13504471  0.88336567  0.62170525  1
  O  O375  1  0.63033473  0.38152813  0.12302945  1
  O  O376  1  0.61387892  0.36844459  0.63637112  1
  O  O377  1  0.62916217  0.88075248  0.12833533  1
  O  O378  1  0.64032527  0.86423912  0.62662429  1
  O  O379  1  0.13270986  0.26428659  0.25117752  1
  O  O380  1  0.11347340  0.24830840  0.75623212  1
  O  O381  1  0.11931297  0.75150554  0.26166026  1
  O  O382  1  0.10400902  0.74358496  0.74455255  1
  O  O383  1  0.60922879  0.25104931  0.25014319  1
  O  O384  1  0.63126806  0.26416241  0.75079729  1
  O  O385  1  0.61553951  0.75832570  0.25066531  1
  O  O386  1  0.62654812  0.74994016  0.76208235  1
  O  O387  1  0.38405641  0.25522724  0.24076939  1
  O  O388  1  0.37398376  0.23260402  0.75205739  1
  O  O389  1  0.38765245  0.75735916  0.24310058  1
  O  O390  1  0.38019204  0.74221987  0.73897215  1
  O  O391  1  0.87206493  0.24480648  0.23815127  1
  O  O392  1  0.87727820  0.24319894  0.74233317  1
  O  O393  1  0.88248043  0.74594207  0.24388493  1
  O  O394  1  0.87757673  0.73865866  0.74330940  1
  O  O395  1  0.38862053  0.49874736  0.49702600  1
  O  O396  1  0.38672592  0.49862671  1.01119558  1
  O  O397  1  0.39160166  0.99752990  0.49363663  1
  O  O398  1  0.38524694  1.00560260  0.99196006  1
  O  O399  1  0.88484751  0.49829532  0.49231198  1
  O  O400  1  0.88238376  0.49160937  0.99504124  1
  O  O401  1  0.88371812  0.99811393  0.49420504  1
  O  O402  1  0.87826299  0.99340571  0.99502356  1
  O  O403  1  0.12845914  0.01346175  0.02673189  1
  O  O404  1  0.11598239  0.00307005  0.51429392  1
  O  O405  1  0.11601511  0.48579470  0.01772752  1
  O  O406  1  0.11095365  0.50686630  0.49435850  1
  O  O407  1  0.61549110  0.00958024  0.00382515  1
  O  O408  1  0.61814532  0.00605419  0.50235158  1
  O  O409  1  0.61688662  0.50416404  0.00660534  1
  O  O410  1  0.61862015  0.51431447  0.49252843  1
  O  O411  1  0.37849597  0.36254428  0.11443267  1
  O  O412  1  0.38468147  0.37213197  0.60107302  1
  O  O413  1  0.36440696  0.87279835  0.13382156  1
  O  O414  1  0.35404796  0.88007969  0.62322271  1
  O  O415  1  0.87198024  0.36826031  0.12255220  1
  O  O416  1  0.87964589  0.36512598  0.61446453  1
  O  O417  1  0.86773203  0.87036191  0.12208080  1
  O  O418  1  0.86528627  0.86610652  0.62544163  1
  O  O419  1  0.13697540  0.14064328  0.37460143  1
  O  O420  1  0.13155527  0.12524922  0.88311513  1
  O  O421  1  0.13115295  0.63183267  0.37960698  1
  O  O422  1  0.13746262  0.60844730  0.89324546  1
  O  O423  1  0.63749801  0.12328302  0.37539232  1
  O  O424  1  0.63055837  0.12634009  0.88267479  1
  O  O425  1  0.63687677  0.62482954  0.37850662  1
  O  O426  1  0.62754380  0.63024137  0.87874317  1
