# generated using pymatgen
data_V85Zn86O256
_symmetry_space_group_name_H-M   'P 1'
_cell_length_a   16.95287174
_cell_length_b   16.95256739
_cell_length_c   16.95355926
_cell_angle_alpha   89.97298802
_cell_angle_beta   90.03128210
_cell_angle_gamma   89.94573710
_symmetry_Int_Tables_number   1
_chemical_formula_structural   V85Zn86O256
_chemical_formula_sum   'V85 Zn86 O256'
_cell_volume   4872.35963371
_cell_formula_units_Z   1
loop_
 _symmetry_equiv_pos_site_id
 _symmetry_equiv_pos_as_xyz
  1  'x, y, z'
loop_
 _atom_site_type_symbol
 _atom_site_label
 _atom_site_symmetry_multiplicity
 _atom_site_fract_x
 _atom_site_fract_y
 _atom_site_fract_z
 _atom_site_occupancy
  V  V0  1  0.49767033  0.87350468  0.37175189  1
  V  V1  1  0.62084995  0.49742950  0.12843320  1
  V  V2  1  0.74675239  0.62429257  0.37567640  1
  V  V3  1  0.50010101  0.37776202  0.37572871  1
  V  V4  1  0.87808369  0.50260568  0.37490957  1
  V  V5  1  0.74417602  0.12093972  0.37918654  1
  V  V6  1  0.12657921  0.49810255  0.63110606  1
  V  V7  1  0.87946639  0.87772232  -0.01462651  1
  V  V8  1  0.87350118  0.62737409  0.24872164  1
  V  V9  1  0.75085174  0.87495866  0.12258866  1
  V  V10  1  0.37230012  0.37146544  0.50311946  1
  V  V11  1  0.49808305  0.12610911  0.63098285  1
  V  V12  1  0.75669245  0.12567286  0.87406636  1
  V  V13  1  0.62412386  0.62451383  0.00078116  1
  V  V14  1  0.49761980  0.63648799  0.12735302  1
  V  V15  1  0.74663140  0.75085883  0.50240356  1
  V  V16  1  0.12667716  0.50124430  0.11902563  1
  V  V17  1  0.62185578  0.26035348  0.87791382  1
  V  V18  1  0.24223264  0.75195725  0.49934362  1
  V  V19  1  0.06080927  0.20059374  0.30829770  1
  V  V20  1  0.62389386  0.87507763  0.75367943  1
  V  V21  1  0.63297374  0.12495516  0.00259339  1
  V  V22  1  -0.05641191  0.29831188  0.69146038  1
  V  V23  1  0.37922067  0.64263906  0.24645528  1
  V  V24  1  0.00429120  0.75003254  0.25333053  1
  V  V25  1  0.75113268  0.74959859  -0.00128241  1
  V  V26  1  0.00008128  0.62633032  0.12196984  1
  V  V27  1  0.87746090  0.75155802  0.63206610  1
  V  V28  1  0.00046038  0.63364476  0.62617068  1
  V  V29  1  0.62172173  -0.00357590  0.63044755  1
  V  V30  1  0.71948959  0.44001975  0.69671515  1
  V  V31  1  0.37702516  0.62132035  0.75083125  1
  V  V32  1  0.25664688  0.50012341  0.24860071  1
  V  V33  1  0.01112799  0.75164922  0.76151554  1
  V  V34  1  0.62165028  0.74981034  0.87671826  1
  V  V35  1  0.02014307  0.87307099  0.38930866  1
  V  V36  1  0.75500924  0.61964094  0.86363211  1
  V  V37  1  0.37633953  0.74251887  0.62405835  1
  V  V38  1  -0.00280712  -0.00386239  -0.01670413  1
  V  V39  1  0.00187780  0.37436332  0.87212067  1
  V  V40  1  0.88285768  0.12135904  0.74983179  1
  V  V41  1  0.87502267  0.13572119  0.25492845  1
  V  V42  1  0.61852196  0.74903079  0.37022959  1
  V  V43  1  0.26710625  0.86868702  0.11961724  1
  V  V44  1  0.25041551  0.11310489  0.87139111  1
  V  V45  1  0.62299188  0.87363640  0.24913513  1
  V  V46  1  0.24637327  0.25374459  -0.00536985  1
  V  V47  1  0.46944270  0.10487233  0.09678279  1
  V  V48  1  0.37631737  0.87424534  0.50344791  1
  V  V49  1  0.61649053  0.62544442  0.51102349  1
  V  V50  1  0.24422467  0.62455548  0.87318250  1
  V  V51  1  0.00218362  0.12701725  0.12432182  1
  V  V52  1  0.37419461  0.25414400  0.12484881  1
  V  V53  1  0.38038178  0.37285730  -0.01093758  1
  V  V54  1  0.87580368  0.75229030  0.12206845  1
  V  V55  1  0.63009957  0.37194702  0.25292545  1
  V  V56  1  0.37179969  0.12552551  0.25874141  1
  V  V57  1  0.48641762  0.88645374  0.88572520  1
  V  V58  1  0.50205135  0.00360437  0.49935667  1
  V  V59  1  0.24686963  0.88469995  0.63411417  1
  V  V60  1  0.49800399  0.50395825  0.51357086  1
  V  V61  1  0.37257662  0.10903439  0.75480947  1
  V  V62  1  0.50154049  0.49679018  -0.00996714  1
  V  V63  1  0.75307963  -0.00238416  0.24764683  1
  V  V64  1  0.62537816  0.00426708  0.12155760  1
  V  V65  1  0.49785127  0.24568388  0.24628782  1
  V  V66  1  0.88055263  0.25455377  0.12652422  1
  V  V67  1  0.61942416  0.24472424  0.38093309  1
  V  V68  1  0.12615173  0.88418595  0.76219374  1
  V  V69  1  0.50131707  0.74315817  0.74772817  1
  V  V70  1  0.12335136  0.25573446  0.85771934  1
  V  V71  1  0.01295209  0.11501451  0.62801546  1
  V  V72  1  0.49667802  0.25884535  0.76041473  1
  V  V73  1  0.23794669  0.24288926  0.49639142  1
  V  V74  1  -0.00624144  0.50332969  -0.00624902  1
  V  V75  1  0.24446157  0.63183582  0.37202012  1
  V  V76  1  0.75469772  0.00112344  0.75610365  1
  V  V77  1  0.87475107  -0.00731829  0.37151381  1
  V  V78  1  0.12371181  -0.00592345  0.11894911  1
  V  V79  1  0.00294511  0.50454278  0.49741778  1
  V  V80  1  0.12197999  0.12788463  -0.00413716  1
  V  V81  1  0.12849791  0.86433338  0.24205832  1
  V  V82  1  0.25934488  0.75175247  -0.00644377  1
  V  V83  1  0.87353500  0.87679860  0.49788788  1
  V  V84  1  0.12275824  0.37858421  0.25595536  1
  Zn  Zn85  1  0.87789100  0.37501063  0.51040154  1
  Zn  Zn86  1  0.12323010  0.63097420  0.49469944  1
  Zn  Zn87  1  0.37761005  0.49743857  0.87203193  1
  Zn  Zn88  1  0.74818312  0.50102997  0.25023846  1
  Zn  Zn89  1  0.37240516  0.24958362  0.62820885  1
  Zn  Zn90  1  0.63613673  0.13942791  0.52333286  1
  Zn  Zn91  1  0.75399038  0.87926863  0.62672643  1
  Zn  Zn92  1  0.37490655  0.50263898  0.37585707  1
  Zn  Zn93  1  0.86258209  0.49516327  0.84996447  1
  Zn  Zn94  1  0.24970183  -0.00125228  0.25392439  1
  Zn  Zn95  1  0.36850637  0.00111732  0.37822803  1
  Zn  Zn96  1  0.75129472  0.27645902  0.52756080  1
  Zn  Zn97  1  0.87374828  0.37788000  0.00033113  1
  Zn  Zn98  1  0.24949864  0.37766073  0.12238509  1
  Zn  Zn99  1  0.12285509  0.63315745  -0.00874581  1
  Zn  Zn100  1  0.00838892  0.01039299  0.50285526  1
  Zn  Zn101  1  0.75203919  0.37466390  0.12563280  1
  Zn  Zn102  1  0.23643470  0.12444941  0.37855783  1
  Zn  Zn103  1  0.24163145  0.36774107  0.63057753  1
  Zn  Zn104  1  0.75392905  0.25405829  0.00297109  1
  Zn  Zn105  1  0.24486487  0.49279027  0.75574084  1
  Zn  Zn106  1  0.00379331  0.37163331  0.37428753  1
  Zn  Zn107  1  0.19521889  0.18468803  0.18174427  1
  Zn  Zn108  1  0.19205269  0.18481983  0.68359898  1
  Zn  Zn109  1  0.19210052  0.68670343  0.17816855  1
  Zn  Zn110  1  0.18746249  0.68712323  0.68646827  1
  Zn  Zn111  1  0.69259964  0.18941741  0.19172577  1
  Zn  Zn112  1  0.70064001  0.23796418  0.70133693  1
  Zn  Zn113  1  0.68451770  0.68832330  0.18688083  1
  Zn  Zn114  1  0.68824130  0.68933336  0.68696123  1
  Zn  Zn115  1  0.30901490  0.31300070  0.31672073  1
  Zn  Zn116  1  0.31142341  0.30999108  0.80888182  1
  Zn  Zn117  1  0.31169698  0.81521628  0.31335732  1
  Zn  Zn118  1  0.31369438  0.81215150  0.81308654  1
  Zn  Zn119  1  0.80395739  0.31979886  0.37048781  1
  Zn  Zn120  1  0.81153172  0.31527389  0.82202112  1
  Zn  Zn121  1  0.81131916  0.80984892  0.31247677  1
  Zn  Zn122  1  0.81120908  0.80974392  0.80999714  1
  Zn  Zn123  1  0.18915005  0.43974479  0.43833504  1
  Zn  Zn124  1  0.18606949  0.43922520  0.93397503  1
  Zn  Zn125  1  0.18907600  0.93537977  0.43947928  1
  Zn  Zn126  1  0.18853551  0.93221246  0.93934542  1
  Zn  Zn127  1  0.68773790  0.44155161  0.52496498  1
  Zn  Zn128  1  0.68859884  0.43656218  0.94240994  1
  Zn  Zn129  1  0.68496116  0.93917767  0.44001805  1
  Zn  Zn130  1  0.68710013  0.93781989  0.93712791  1
  Zn  Zn131  1  0.30181707  0.06312036  0.06209151  1
  Zn  Zn132  1  0.31358353  0.06439723  0.56246418  1
  Zn  Zn133  1  0.31592206  0.56541977  0.05925836  1
  Zn  Zn134  1  0.31170550  0.56382429  0.56093729  1
  Zn  Zn135  1  0.81768283  0.06330786  0.06277461  1
  Zn  Zn136  1  0.79223893  0.09911724  0.58908395  1
  Zn  Zn137  1  0.80767875  0.56151068  0.06264466  1
  Zn  Zn138  1  0.81719824  0.57125388  0.56074421  1
  Zn  Zn139  1  0.44029790  0.43716185  0.18435954  1
  Zn  Zn140  1  0.43521950  0.43422843  0.68788044  1
  Zn  Zn141  1  0.43826933  0.94074959  0.19236055  1
  Zn  Zn142  1  0.43790695  0.92963133  0.69205239  1
  Zn  Zn143  1  0.94068123  0.43996924  0.18899312  1
  Zn  Zn144  1  0.91849176  0.46241922  0.68261327  1
  Zn  Zn145  1  0.93958183  0.93594897  0.18374317  1
  Zn  Zn146  1  0.94058922  0.93621215  0.69181428  1
  Zn  Zn147  1  0.06269139  0.03800341  0.30754692  1
  Zn  Zn148  1  0.06669866  0.06480533  0.80941544  1
  Zn  Zn149  1  0.06648487  0.56366136  0.30887522  1
  Zn  Zn150  1  0.05795757  0.56677853  0.81028851  1
  Zn  Zn151  1  0.55801432  0.06188178  0.30710545  1
  Zn  Zn152  1  0.56494657  0.06624503  0.81614655  1
  Zn  Zn153  1  0.55895275  0.56078281  0.31580912  1
  Zn  Zn154  1  0.57372665  0.55746360  0.80491238  1
  Zn  Zn155  1  0.43704907  0.18870705  0.44225762  1
  Zn  Zn156  1  0.43466150  0.17195738  0.94023656  1
  Zn  Zn157  1  0.43322833  0.68727729  0.43486711  1
  Zn  Zn158  1  0.43551311  0.68760550  0.93668292  1
  Zn  Zn159  1  0.92943683  0.18271201  0.45145905  1
  Zn  Zn160  1  0.93928466  0.19075140  0.93722204  1
  Zn  Zn161  1  0.93799277  0.69529496  0.44023244  1
  Zn  Zn162  1  0.93204824  0.68440510  0.93327538  1
  Zn  Zn163  1  0.06079189  0.31645344  0.06106092  1
  Zn  Zn164  1  0.06356244  0.31797624  0.55429257  1
  Zn  Zn165  1  0.06554758  0.80948464  0.05311915  1
  Zn  Zn166  1  0.06784133  0.83134068  0.56054635  1
  Zn  Zn167  1  0.56071708  0.30821059  0.06199030  1
  Zn  Zn168  1  0.56530002  0.32023416  0.57520081  1
  Zn  Zn169  1  0.55961863  0.81620387  0.06027548  1
  Zn  Zn170  1  0.56058129  0.81231777  0.56280810  1
  O  O171  1  0.12242989  0.11685866  0.11729942  1
  O  O172  1  0.11206098  0.12062165  0.63395556  1
  O  O173  1  0.12033585  0.61307105  0.12413660  1
  O  O174  1  0.11496922  0.61930978  0.62009677  1
  O  O175  1  0.63389527  0.11758561  0.11942819  1
  O  O176  1  0.60624457  0.10739651  0.63408939  1
  O  O177  1  0.61820379  0.61685250  0.12288064  1
  O  O178  1  0.62350342  0.63507827  0.60998961  1
  O  O179  1  0.38497582  0.37395436  0.38497904  1
  O  O180  1  0.37589286  0.37422028  0.88658519  1
  O  O181  1  0.38286126  0.87788601  0.38115218  1
  O  O182  1  0.38711576  0.87590108  0.87138165  1
  O  O183  1  0.88510599  0.39895375  0.35613839  1
  O  O184  1  0.88534814  0.38034307  0.87813605  1
  O  O185  1  0.88002216  0.87664872  0.37742473  1
  O  O186  1  0.86933873  0.87234320  0.88666179  1
  O  O187  1  0.24877701  0.00547135  0.37570791  1
  O  O188  1  0.24710364  0.01474114  0.88615201  1
  O  O189  1  0.25388670  0.50983689  0.36599841  1
  O  O190  1  0.25592560  0.50858737  0.87414509  1
  O  O191  1  0.75257332  -0.00085219  0.36427284  1
  O  O192  1  0.74361907  0.00875972  0.86383936  1
  O  O193  1  0.76026551  0.51829136  0.36996915  1
  O  O194  1  0.74605475  0.51699477  0.88457780  1
  O  O195  1  0.24361067  0.50089784  0.12860358  1
  O  O196  1  0.23206568  0.50530515  0.62177641  1
  O  O197  1  0.23940534  0.98834499  0.11981366  1
  O  O198  1  0.25540437  0.98270788  0.62033019  1
  O  O199  1  0.73500812  0.49877153  0.13057326  1
  O  O200  1  0.74719694  0.49728286  0.61026181  1
  O  O201  1  0.74639496  0.99489170  0.13017925  1
  O  O202  1  0.73884130  1.00386315  0.63780945  1
  O  O203  1  0.01810493  0.38159221  0.25023089  1
  O  O204  1  -0.01357539  0.37305695  0.74922977  1
  O  O205  1  0.00863847  0.86775304  0.25486635  1
  O  O206  1  0.01583142  0.86465537  0.74572897  1
  O  O207  1  0.50383862  0.36762219  0.25651042  1
  O  O208  1  0.49566254  0.35774495  0.75045314  1
  O  O209  1  0.50637602  0.88159990  0.26386339  1
  O  O210  1  0.50640340  0.86210494  0.75936319  1
  O  O211  1  0.48857795  0.12940768  0.24032146  1
  O  O212  1  0.48914899  0.12755426  0.74915225  1
  O  O213  1  0.48570995  0.62042902  0.24496290  1
  O  O214  1  0.49805843  0.63558561  0.75612368  1
  O  O215  1  1.00049053  0.12993053  0.25114027  1
  O  O216  1  0.99425931  0.12291061  0.74273995  1
  O  O217  1  0.99450136  0.63165387  0.24309964  1
  O  O218  1  1.00206583  0.64075349  0.74068001  1
  O  O219  1  0.36887440  0.25390457  0.00513472  1
  O  O220  1  0.37118803  0.25767344  0.50516813  1
  O  O221  1  0.35979822  0.74186171  0.00491218  1
  O  O222  1  0.37126823  0.75491759  0.50837317  1
  O  O223  1  0.87534166  0.25194912  0.01256995  1
  O  O224  1  0.85842091  0.26413352  0.47193464  1
  O  O225  1  0.87136315  0.75660138  0.00370421  1
  O  O226  1  0.86107058  0.75163019  0.51014134  1
  O  O227  1  0.13900993  0.25358181  0.49875359  1
  O  O228  1  0.13204614  0.24893904  0.99469355  1
  O  O229  1  0.13960793  0.75161858  0.50414799  1
  O  O230  1  0.14628685  0.74516340  1.00829437  1
  O  O231  1  0.62043163  0.25157589  0.48866509  1
  O  O232  1  0.63143671  0.24467107  0.99345120  1
  O  O233  1  0.62730197  0.74673213  0.49034714  1
  O  O234  1  0.62957973  0.74511361  0.99282509  1
  O  O235  1  0.48677121  0.23568170  0.12334851  1
  O  O236  1  0.50373483  0.24109462  0.63981104  1
  O  O237  1  0.50914972  0.73577615  0.12392776  1
  O  O238  1  0.49009961  0.75609488  0.63529623  1
  O  O239  1  0.99149271  0.24314477  0.12226933  1
  O  O240  1  1.00791877  0.24590711  0.63027228  1
  O  O241  1  0.99491214  0.74543217  0.13110783  1
  O  O242  1  0.99641540  0.74848907  0.62879312  1
  O  O243  1  0.00074097  0.24933696  0.37385765  1
  O  O244  1  0.01059606  0.26109945  0.87788107  1
  O  O245  1  -0.00044438  0.75297685  0.35775322  1
  O  O246  1  -0.00429403  0.74578339  0.85955290  1
  O  O247  1  0.50406559  0.25272964  0.36903861  1
  O  O248  1  0.50708913  0.24235310  0.86914398  1
  O  O249  1  0.50748676  0.75985739  0.38048380  1
  O  O250  1  0.50733487  0.75431990  0.87005852  1
  O  O251  1  0.25187013  0.13656278  0.49844938  1
  O  O252  1  0.24015112  0.13567173  0.99250172  1
  O  O253  1  0.25131939  0.63374589  0.48872752  1
  O  O254  1  0.24995942  0.63224195  0.99153879  1
  O  O255  1  0.74505294  0.10369388  0.48151962  1
  O  O256  1  0.74805724  0.12645623  0.99381598  1
  O  O257  1  0.73945425  0.63094300  0.49207212  1
  O  O258  1  0.74218700  0.63281611  0.99622936  1
  O  O259  1  0.25717908  0.36888585  -0.00027799  1
  O  O260  1  0.25749172  0.36813656  0.50167069  1
  O  O261  1  0.25276508  0.86534049  0.00912417  1
  O  O262  1  0.25854224  0.86849990  0.51035427  1
  O  O263  1  0.75606206  0.37317486  0.00709874  1
  O  O264  1  0.76187019  0.37590033  0.47348442  1
  O  O265  1  0.75643794  0.86983201  0.00462812  1
  O  O266  1  0.75692721  0.87039409  0.50160454  1
  O  O267  1  0.13730119  0.49668496  0.24159844  1
  O  O268  1  0.12233917  0.50607406  0.73378380  1
  O  O269  1  0.13029101  0.98509646  0.23569020  1
  O  O270  1  0.12492296  0.98376839  0.75458217  1
  O  O271  1  0.62113146  0.49106120  0.24506180  1
  O  O272  1  0.64668190  0.48761803  0.74649962  1
  O  O273  1  0.63151248  0.99513438  0.23942989  1
  O  O274  1  0.62969564  0.99448554  0.74677149  1
  O  O275  1  0.37013560  0.01126921  0.25329524  1
  O  O276  1  0.37818132  0.01056513  0.74852011  1
  O  O277  1  0.36333567  0.49830581  0.24807219  1
  O  O278  1  0.38185361  0.51337099  0.75000368  1
  O  O279  1  0.87259637  0.00644262  0.25188750  1
  O  O280  1  0.86637913  0.00680491  0.74842039  1
  O  O281  1  0.87536904  0.51635184  0.25177393  1
  O  O282  1  0.82189742  0.47372868  0.73990310  1
  O  O283  1  0.12357595  0.38170155  0.36400959  1
  O  O284  1  0.11138140  0.37223143  0.87359007  1
  O  O285  1  0.12359589  0.87110126  0.35411452  1
  O  O286  1  0.13466868  0.86983362  0.86123823  1
  O  O287  1  0.60940660  0.36280806  0.36764442  1
  O  O288  1  0.62548822  0.35935102  0.88208134  1
  O  O289  1  0.61827211  0.86824991  0.37203030  1
  O  O290  1  0.62494360  0.86167015  0.87237868  1
  O  O291  1  0.36561142  0.13817296  0.14102172  1
  O  O292  1  0.38338899  0.12473650  0.63641662  1
  O  O293  1  0.38242471  0.62053247  0.13886052  1
  O  O294  1  0.37082541  0.63534843  0.63162875  1
  O  O295  1  0.88427448  0.12884530  0.13586189  1
  O  O296  1  0.88779689  0.13036585  0.64223536  1
  O  O297  1  0.87766568  0.63172867  0.13121253  1
  O  O298  1  0.88889194  0.63581529  0.62252667  1
  O  O299  1  0.25548434  0.25356569  0.11144780  1
  O  O300  1  0.25290568  0.25038060  0.61219033  1
  O  O301  1  0.25505581  0.76330770  0.11853073  1
  O  O302  1  0.25841113  0.75431607  0.61810062  1
  O  O303  1  0.76667757  0.25049199  0.12841125  1
  O  O304  1  0.73037163  0.19909502  0.60300125  1
  O  O305  1  0.75405024  0.75489038  0.11819704  1
  O  O306  1  0.75877134  0.75449055  0.62271247  1
  O  O307  1  0.25387059  0.24559972  0.39071971  1
  O  O308  1  0.24385406  0.24596363  0.88274170  1
  O  O309  1  0.25811608  0.74447654  0.38580584  1
  O  O310  1  0.25582952  0.74310667  0.88604763  1
  O  O311  1  0.73104718  0.23327812  0.36385599  1
  O  O312  1  0.73830482  0.24194901  0.87803224  1
  O  O313  1  0.74279731  0.74171419  0.38029435  1
  O  O314  1  0.74388072  0.74063097  0.87951812  1
  O  O315  1  0.00456530  0.11728858  0.00427307  1
  O  O316  1  -0.00283870  0.12428095  0.51979605  1
  O  O317  1  0.00209802  0.62192976  0.00273941  1
  O  O318  1  0.00298884  0.62413992  0.50524238  1
  O  O319  1  0.52649371  0.13811992  0.00529775  1
  O  O320  1  0.50261144  0.11877779  0.51230770  1
  O  O321  1  0.50480748  0.61839462  0.00776902  1
  O  O322  1  0.50130039  0.61303146  0.49408945  1
  O  O323  1  0.49661584  0.38464741  0.49540836  1
  O  O324  1  0.49187505  0.38384869  1.00752496  1
  O  O325  1  0.49604207  0.88207334  0.49225501  1
  O  O326  1  0.50030469  0.87363646  0.98526578  1
  O  O327  1  0.99592809  0.38834359  0.49283213  1
  O  O328  1  0.99823203  0.38574252  0.98911087  1
  O  O329  1  0.97904282  0.83283091  0.48279687  1
  O  O330  1  0.99173184  0.88332117  1.00397073  1
  O  O331  1  0.49437650  0.48966675  0.37990547  1
  O  O332  1  0.50431506  0.50597463  0.88694301  1
  O  O333  1  0.50138946  0.99360303  0.38474322  1
  O  O334  1  0.50751149  0.98410240  0.87094995  1
  O  O335  1  0.99487742  0.51042488  0.38218419  1
  O  O336  1  0.99282012  0.49684465  0.87702929  1
  O  O337  1  0.99236026  0.98437002  0.37627293  1
  O  O338  1  1.00168074  1.00469908  0.88477791  1
  O  O339  1  0.01197154  0.00578353  0.12229223  1
  O  O340  1  -0.00008169  0.01103059  0.62506373  1
  O  O341  1  0.00702541  0.50766177  0.11723348  1
  O  O342  1  0.00164843  0.51176768  0.61868970  1
  O  O343  1  0.50985929  0.00962482  0.12991042  1
  O  O344  1  0.50271386  0.00039924  0.62089713  1
  O  O345  1  0.50925540  0.50679484  0.11926679  1
  O  O346  1  0.50003676  0.49690599  0.61203782  1
  O  O347  1  0.24243114  0.38254296  0.24734692  1
  O  O348  1  0.26303591  0.38240918  0.74084842  1
  O  O349  1  0.24561479  0.87318274  0.23598991  1
  O  O350  1  0.24371815  0.86931864  0.74132328  1
  O  O351  1  0.73392029  0.37645170  0.25702474  1
  O  O352  1  0.73927851  0.34289163  0.73817417  1
  O  O353  1  0.74432222  0.87803646  0.24305956  1
  O  O354  1  0.74335541  0.88366623  0.74943653  1
  O  O355  1  0.25634400  0.12394607  0.25670788  1
  O  O356  1  0.26402589  0.12743983  0.75572850  1
  O  O357  1  0.26093001  0.62170938  0.25110148  1
  O  O358  1  0.25919941  0.62294454  0.75598425  1
  O  O359  1  0.75853768  0.11646520  0.25861653  1
  O  O360  1  0.76044520  0.12059969  0.75878033  1
  O  O361  1  0.75764616  0.62862175  0.25614228  1
  O  O362  1  0.74527280  0.62996620  0.76514775  1
  O  O363  1  0.37894193  0.12479372  0.36557745  1
  O  O364  1  0.36556303  0.12648011  0.86186145  1
  O  O365  1  0.36813279  0.62424001  0.35975366  1
  O  O366  1  0.36724670  0.62314564  0.86614166  1
  O  O367  1  0.86806571  0.11362419  0.37006436  1
  O  O368  1  0.86478517  0.13290877  0.86834111  1
  O  O369  1  0.86918349  0.62454372  0.36824956  1
  O  O370  1  0.85993143  0.61778548  0.87294066  1
  O  O371  1  0.12623190  0.38820915  0.12860946  1
  O  O372  1  0.12198059  0.39482558  0.61907665  1
  O  O373  1  0.13031788  0.87968140  0.12625266  1
  O  O374  1  0.14237580  0.86833987  0.63933029  1
  O  O375  1  0.62246951  0.37939588  0.13526154  1
  O  O376  1  0.65430504  0.37756673  0.61814129  1
  O  O377  1  0.62925042  0.88244244  0.12845479  1
  O  O378  1  0.62505702  0.88362598  0.63202707  1
  O  O379  1  0.12544392  0.25616900  0.24806294  1
  O  O380  1  0.13257136  0.25045689  0.75932823  1
  O  O381  1  0.11827814  0.75556760  0.23695958  1
  O  O382  1  0.11478780  0.75402654  0.74904201  1
  O  O383  1  0.61576414  0.25409438  0.25360472  1
  O  O384  1  0.60923770  0.23833633  0.76910936  1
  O  O385  1  0.62857961  0.75666773  0.26281834  1
  O  O386  1  0.61864589  0.75370021  0.75651363  1
  O  O387  1  0.37733558  0.24823009  0.24368326  1
  O  O388  1  0.38738666  0.23971644  0.75051815  1
  O  O389  1  0.37541148  0.74079388  0.24867826  1
  O  O390  1  0.38188264  0.73934443  0.74476815  1
  O  O391  1  0.87518627  0.23637956  0.24857499  1
  O  O392  1  0.88079540  0.24357907  0.75294111  1
  O  O393  1  0.88155606  0.74261434  0.24436407  1
  O  O394  1  0.88690442  0.76158824  0.73724126  1
  O  O395  1  0.38337625  0.49487722  0.49839760  1
  O  O396  1  0.38488274  0.49067021  0.99996962  1
  O  O397  1  0.38771257  0.99471457  0.50118499  1
  O  O398  1  0.40435738  1.06927494  1.01817251  1
  O  O399  1  0.88626979  0.50319918  0.49099297  1
  O  O400  1  0.88832919  0.50202221  1.00540045  1
  O  O401  1  0.88433813  0.98061829  0.49324291  1
  O  O402  1  0.88616153  0.98999553  1.00673482  1
  O  O403  1  0.11725052  0.00288456  0.00378143  1
  O  O404  1  0.08680903  -0.07040438  0.48663211  1
  O  O405  1  0.11390043  0.50338457  0.00453400  1
  O  O406  1  0.11475155  0.50653341  0.50508210  1
  O  O407  1  0.63278853  0.00705210  0.01353165  1
  O  O408  1  0.61437036  -0.00080156  0.51153890  1
  O  O409  1  0.61844854  0.50428317  0.00917520  1
  O  O410  1  0.60639610  0.51254953  0.49174878  1
  O  O411  1  0.37396727  0.36416081  0.11898851  1
  O  O412  1  0.37664100  0.37229365  0.61144652  1
  O  O413  1  0.36453546  0.88388376  0.12565623  1
  O  O414  1  0.36618118  0.86331280  0.62620578  1
  O  O415  1  0.87598198  0.36675645  0.12966372  1
  O  O416  1  0.88755535  0.35738140  0.62805514  1
  O  O417  1  0.86881665  0.86813959  0.12034459  1
  O  O418  1  0.87653728  0.86973190  0.61516763  1
  O  O419  1  0.11407769  0.13036660  0.36111549  1
  O  O420  1  0.13062118  0.13567267  0.87762012  1
  O  O421  1  0.14025610  0.62660088  0.37137968  1
  O  O422  1  0.13945013  0.62031653  0.87222240  1
  O  O423  1  0.62782728  0.12948331  0.37245231  1
  O  O424  1  0.63695311  0.12900080  0.88474811  1
  O  O425  1  0.62932343  0.63260567  0.37776008  1
  O  O426  1  0.63043569  0.63438701  0.87915970  1
