# generated using pymatgen
data_V85Zn86O256
_symmetry_space_group_name_H-M   'P 1'
_cell_length_a   16.93425980
_cell_length_b   16.93887132
_cell_length_c   16.92920073
_cell_angle_alpha   89.97643780
_cell_angle_beta   89.99329693
_cell_angle_gamma   89.95956943
_symmetry_Int_Tables_number   1
_chemical_formula_structural   V85Zn86O256
_chemical_formula_sum   'V85 Zn86 O256'
_cell_volume   4856.09298416
_cell_formula_units_Z   1
loop_
 _symmetry_equiv_pos_site_id
 _symmetry_equiv_pos_as_xyz
  1  'x, y, z'
loop_
 _atom_site_type_symbol
 _atom_site_label
 _atom_site_symmetry_multiplicity
 _atom_site_fract_x
 _atom_site_fract_y
 _atom_site_fract_z
 _atom_site_occupancy
  V  V0  1  0.50290241  0.75646079  0.76333661  1
  V  V1  1  0.01301768  0.75315080  0.25781120  1
  V  V2  1  0.73405427  0.62551789  0.87548645  1
  V  V3  1  0.73630868  0.74358896  0.00276723  1
  V  V4  1  0.87686289  0.37697328  -0.00551927  1
  V  V5  1  0.49828563  0.50308160  0.50198342  1
  V  V6  1  0.25103567  0.37582454  0.12633036  1
  V  V7  1  0.24653574  0.74979986  -0.00267594  1
  V  V8  1  0.49317743  -0.00536384  -0.00186669  1
  V  V9  1  0.25086443  0.24732326  0.50475958  1
  V  V10  1  0.65507491  0.08897399  0.02471056  1
  V  V11  1  0.50069678  0.11999281  0.12195162  1
  V  V12  1  0.12020861  0.37458334  0.75774828  1
  V  V13  1  0.24153904  0.12351418  0.87924904  1
  V  V14  1  0.49820003  0.37120949  0.37695597  1
  V  V15  1  0.50417709  0.50238425  -0.00007231  1
  V  V16  1  0.49593542  0.13334216  0.62458595  1
  V  V17  1  0.00777718  0.00300213  -0.00175971  1
  V  V18  1  -0.01697672  0.74892461  0.74062794  1
  V  V19  1  0.62247740  0.87402324  0.77045876  1
  V  V20  1  0.12235000  0.87632327  0.73571028  1
  V  V21  1  0.24997389  0.75089983  0.48830048  1
  V  V22  1  -0.01035824  0.00059247  0.50551231  1
  V  V23  1  0.63054743  0.13271909  0.50260542  1
  V  V24  1  0.37643932  0.62747246  0.74708394  1
  V  V25  1  0.87353827  0.75095087  0.12849764  1
  V  V26  1  0.49614607  0.24839330  0.75201512  1
  V  V27  1  0.63150879  0.62933345  0.50299694  1
  V  V28  1  0.64082293  0.88798428  0.23701108  1
  V  V29  1  0.37539883  0.49937129  0.87426260  1
  V  V30  1  0.74824983  0.26109815  0.00451643  1
  V  V31  1  0.25090769  0.36919651  0.62785000  1
  V  V32  1  0.50314799  0.75352895  0.24811056  1
  V  V33  1  -0.00010078  0.87364469  0.87255589  1
  V  V34  1  0.87755484  0.50953251  0.87034707  1
  V  V35  1  0.24882964  0.50204509  0.74795827  1
  V  V36  1  0.37249450  0.12822722  0.74899541  1
  V  V37  1  0.00141889  0.49740736  -0.00536210  1
  V  V38  1  0.49994315  -0.00325507  0.50146353  1
  V  V39  1  0.87598962  -0.00068299  0.87559187  1
  V  V40  1  0.00522783  0.12814844  0.12326006  1
  V  V41  1  0.63154569  0.50131057  0.12267168  1
  V  V42  1  0.75167116  0.12810788  0.87681554  1
  V  V43  1  0.12535026  0.11436274  0.50698378  1
  V  V44  1  -0.00530124  0.25288691  0.75246764  1
  V  V45  1  0.75843998  0.49953693  0.24981675  1
  V  V46  1  0.25009056  0.12479529  0.37390120  1
  V  V47  1  0.75306718  0.50020623  0.74310575  1
  V  V48  1  0.75788858  0.62570914  0.37487727  1
  V  V49  1  0.37340311  0.62750014  0.25456139  1
  V  V50  1  0.12594986  0.50125549  0.12452555  1
  V  V51  1  0.50293236  0.87731062  0.37406845  1
  V  V52  1  0.63653911  0.25219537  0.37721102  1
  V  V53  1  0.50633801  0.62604010  0.12152781  1
  V  V54  1  0.37509357  0.37493162  0.00113964  1
  V  V55  1  0.24106465  0.24526015  0.00267963  1
  V  V56  1  0.62817270  0.37642237  0.24636292  1
  V  V57  1  0.75533383  0.10990498  0.37285764  1
  V  V58  1  -0.01207435  0.62348042  0.62403975  1
  V  V59  1  0.24494271  0.87224440  0.12889232  1
  V  V60  1  0.87225062  0.11303027  0.25061276  1
  V  V61  1  0.24304237  0.00085615  0.73932411  1
  V  V62  1  0.63255103  0.75075174  0.37324057  1
  V  V63  1  0.37645075  0.24845436  0.12716056  1
  V  V64  1  0.75070245  -0.00328839  0.74919992  1
  V  V65  1  0.37236241  -0.00744212  0.87239771  1
  V  V66  1  0.24939512  -0.00537511  0.25267213  1
  V  V67  1  0.87600366  0.86979226  0.00526166  1
  V  V68  1  0.37411639  0.75019899  0.12427648  1
  V  V69  1  0.12458879  -0.00088469  0.12864717  1
  V  V70  1  0.62841662  0.37449127  0.74303027  1
  V  V71  1  0.37287188  0.37187647  0.50274355  1
  V  V72  1  0.36979139  0.50302892  0.37629418  1
  V  V73  1  0.12895069  0.62749006  0.49188000  1
  V  V74  1  -0.01192209  0.37808290  0.37951226  1
  V  V75  1  0.62419384  0.24892369  0.88208929  1
  V  V76  1  0.00071691  0.62641512  0.12534055  1
  V  V77  1  0.25076435  0.50399125  0.25190999  1
  V  V78  1  0.87264615  0.25684020  0.12841537  1
  V  V79  1  0.62439270  -0.00427195  0.62819795  1
  V  V80  1  0.12315849  0.74890144  0.86768104  1
  V  V81  1  0.12504128  0.37339548  0.25571990  1
  V  V82  1  0.86546692  0.86279228  0.49563724  1
  V  V83  1  0.50002844  0.37331143  0.87507028  1
  V  V84  1  0.00699768  0.88386302  0.37089505  1
  Zn  Zn85  1  0.50122820  0.62920619  0.62564048  1
  Zn  Zn86  1  0.87884034  0.62312161  0.25534595  1
  Zn  Zn87  1  0.00066400  0.12579162  0.62716263  1
  Zn  Zn88  1  0.85499193  0.37817908  0.51136812  1
  Zn  Zn89  1  0.37649856  0.00003925  0.37486611  1
  Zn  Zn90  1  0.87475814  0.12535047  0.74526788  1
  Zn  Zn91  1  0.62851229  0.49468255  0.61965906  1
  Zn  Zn92  1  -0.00080043  0.24795269  0.25306880  1
  Zn  Zn93  1  0.50193448  0.24634346  0.25170489  1
  Zn  Zn94  1  0.76765089  0.84536424  0.63171575  1
  Zn  Zn95  1  0.12454672  0.62461502  -0.00388661  1
  Zn  Zn96  1  0.86225560  0.24905411  0.61683738  1
  Zn  Zn97  1  -0.00399703  0.50248393  0.49262072  1
  Zn  Zn98  1  0.12186146  0.50287832  0.62480992  1
  Zn  Zn99  1  0.24845959  0.62580352  0.87241806  1
  Zn  Zn100  1  0.11784921  0.25015998  0.88144024  1
  Zn  Zn101  1  0.37806297  0.75583598  0.62405912  1
  Zn  Zn102  1  0.25114042  0.87375773  0.61972515  1
  Zn  Zn103  1  0.37757610  0.12253467  0.25109743  1
  Zn  Zn104  1  0.37803141  0.87291338  0.50171742  1
  Zn  Zn105  1  0.12327793  0.24930917  0.37696172  1
  Zn  Zn106  1  0.37576936  0.86980407  -0.00582367  1
  Zn  Zn107  1  0.18642303  0.18527618  0.18919251  1
  Zn  Zn108  1  0.18272231  0.18936709  0.68807684  1
  Zn  Zn109  1  0.18729858  0.68615473  0.18939367  1
  Zn  Zn110  1  0.18606193  0.68974393  0.67658329  1
  Zn  Zn111  1  0.69041332  0.18919114  0.19053631  1
  Zn  Zn112  1  0.68000830  0.18043206  0.69625933  1
  Zn  Zn113  1  0.68875099  0.68940709  0.18939132  1
  Zn  Zn114  1  0.68546041  0.68273015  0.69294367  1
  Zn  Zn115  1  0.31057385  0.31086674  0.31359871  1
  Zn  Zn116  1  0.30923589  0.31045366  0.81476504  1
  Zn  Zn117  1  0.31413762  0.81467166  0.31427937  1
  Zn  Zn118  1  0.30944845  0.81234603  0.80691385  1
  Zn  Zn119  1  0.81127012  0.31105611  0.31261829  1
  Zn  Zn120  1  0.81590021  0.31833617  0.81114185  1
  Zn  Zn121  1  0.81665614  0.81742978  0.31470920  1
  Zn  Zn122  1  0.80635142  0.81224831  0.82082095  1
  Zn  Zn123  1  0.18479947  0.44192136  0.44091370  1
  Zn  Zn124  1  0.18877851  0.43721960  0.93676132  1
  Zn  Zn125  1  0.18379458  0.93507185  0.43710425  1
  Zn  Zn126  1  0.18662908  0.93443846  0.93459582  1
  Zn  Zn127  1  0.68454069  0.44573555  0.43003230  1
  Zn  Zn128  1  0.68767707  0.43873346  0.93430129  1
  Zn  Zn129  1  0.68423299  0.93730455  0.43770432  1
  Zn  Zn130  1  0.69643583  0.93734372  0.95520383  1
  Zn  Zn131  1  0.31227997  0.06246642  0.06287125  1
  Zn  Zn132  1  0.31627608  0.06204442  0.56273045  1
  Zn  Zn133  1  0.31467642  0.56564822  0.06307731  1
  Zn  Zn134  1  0.30921871  0.56585172  0.56429311  1
  Zn  Zn135  1  0.82510857  0.06464893  0.06274237  1
  Zn  Zn136  1  0.81298436  0.06922426  0.56408148  1
  Zn  Zn137  1  0.81369926  0.56588808  0.06186975  1
  Zn  Zn138  1  0.81660514  0.55795782  0.55644890  1
  Zn  Zn139  1  0.44077702  0.43822925  0.18931296  1
  Zn  Zn140  1  0.43643692  0.43457748  0.68509000  1
  Zn  Zn141  1  0.43624659  0.93672495  0.18667718  1
  Zn  Zn142  1  0.43821963  0.93550574  0.68763739  1
  Zn  Zn143  1  0.94046794  0.43490341  0.18682051  1
  Zn  Zn144  1  0.93319689  0.43373168  0.68159402  1
  Zn  Zn145  1  0.93815043  0.93496364  0.18807239  1
  Zn  Zn146  1  0.93474377  0.93672551  0.68152470  1
  Zn  Zn147  1  0.06374560  0.06268204  0.31332450  1
  Zn  Zn148  1  0.06275843  0.06494499  0.81021809  1
  Zn  Zn149  1  0.06202447  0.56206305  0.31226660  1
  Zn  Zn150  1  0.05992069  0.56615346  0.80719500  1
  Zn  Zn151  1  0.56702821  0.06268404  0.31064158  1
  Zn  Zn152  1  0.56399494  0.06201634  0.82187566  1
  Zn  Zn153  1  0.56303664  0.56365903  0.31257664  1
  Zn  Zn154  1  0.56217070  0.56184834  0.81015844  1
  Zn  Zn155  1  0.43706442  0.18806818  0.43921082  1
  Zn  Zn156  1  0.43267866  0.18183261  0.93954060  1
  Zn  Zn157  1  0.43977576  0.69086473  0.43682800  1
  Zn  Zn158  1  0.43536249  0.68432906  0.93741645  1
  Zn  Zn159  1  0.93508386  0.19278056  0.43858949  1
  Zn  Zn160  1  0.93842050  0.18888771  0.93579890  1
  Zn  Zn161  1  0.93946384  0.68979296  0.43948234  1
  Zn  Zn162  1  0.93749244  0.68478546  0.93603244  1
  Zn  Zn163  1  0.06044426  0.31638787  0.06607990  1
  Zn  Zn164  1  0.06227286  0.31015488  0.56442084  1
  Zn  Zn165  1  0.06312238  0.81265650  0.06280664  1
  Zn  Zn166  1  0.06043631  0.81032605  0.55589664  1
  Zn  Zn167  1  0.56199110  0.31371712  0.06521184  1
  Zn  Zn168  1  0.69731703  0.30979993  0.56632318  1
  Zn  Zn169  1  0.56148483  0.81857530  0.06318066  1
  Zn  Zn170  1  0.59311039  0.79146414  0.58643717  1
  O  O171  1  0.11297382  0.11795667  0.12690542  1
  O  O172  1  0.12382380  0.12628247  0.61082099  1
  O  O173  1  0.11472925  0.62097909  0.12294392  1
  O  O174  1  0.11436608  0.62402132  0.61553425  1
  O  O175  1  0.61896503  0.13050291  0.11675880  1
  O  O176  1  0.61594503  0.11447178  0.61979205  1
  O  O177  1  0.61331595  0.61791896  0.13106053  1
  O  O178  1  0.61973684  0.61618048  0.61457029  1
  O  O179  1  0.37965352  0.38133072  0.37887579  1
  O  O180  1  0.37981397  0.37909274  0.88057199  1
  O  O181  1  0.39125775  0.87725828  0.37684733  1
  O  O182  1  0.36536797  0.88861424  0.87400444  1
  O  O183  1  0.88775875  0.37300758  0.37221279  1
  O  O184  1  0.87226781  0.38836352  0.88863268  1
  O  O185  1  0.88721278  0.87301243  0.38641306  1
  O  O186  1  0.88147976  0.87888251  0.88425326  1
  O  O187  1  0.25015952  0.00376761  0.36743865  1
  O  O188  1  0.25312255  0.00644038  0.86925425  1
  O  O189  1  0.26349568  0.49636272  0.37090594  1
  O  O190  1  0.25611064  0.50101484  0.86407295  1
  O  O191  1  0.74495037  0.01205819  0.37230111  1
  O  O192  1  0.75737003  0.00631636  0.87182005  1
  O  O193  1  0.74271002  0.51397705  0.35946548  1
  O  O194  1  0.75560192  0.51161831  0.87309198  1
  O  O195  1  0.24609238  0.49532497  0.12855870  1
  O  O196  1  0.24925430  0.49384962  0.63690352  1
  O  O197  1  0.24355587  0.99352396  0.12918503  1
  O  O198  1  0.25033369  1.00061532  0.63660907  1
  O  O199  1  0.73732404  0.50841664  0.12965015  1
  O  O200  1  0.74919153  0.51018555  0.64062149  1
  O  O201  1  0.72475495  1.01251178  0.05733601  1
  O  O202  1  0.74166219  1.00576630  0.63983782  1
  O  O203  1  0.00881999  0.37339391  0.25824397  1
  O  O204  1  0.00913049  0.36579106  0.74818505  1
  O  O205  1  -0.00367130  0.86678057  0.26050871  1
  O  O206  1  0.00351133  0.86671182  0.75144116  1
  O  O207  1  0.50594033  0.37513885  0.26190965  1
  O  O208  1  0.50394178  0.36823193  0.75523628  1
  O  O209  1  0.50523424  0.87079983  0.25531194  1
  O  O210  1  0.50577109  0.86606782  0.75538526  1
  O  O211  1  0.49993347  0.12549110  0.23762574  1
  O  O212  1  0.49209590  0.12662882  0.74812831  1
  O  O213  1  0.49429617  0.63175127  0.24250474  1
  O  O214  1  0.49328170  0.63336874  0.75138951  1
  O  O215  1  0.99267083  0.12568306  0.24313922  1
  O  O216  1  0.99942617  0.13649560  0.74925454  1
  O  O217  1  0.99867175  0.63583099  0.24547932  1
  O  O218  1  1.00007041  0.63986705  0.73830889  1
  O  O219  1  0.36676319  0.25401250  0.01091343  1
  O  O220  1  0.36028954  0.25578065  0.49529094  1
  O  O221  1  0.36512642  0.74934099  0.00556943  1
  O  O222  1  0.36383743  0.74810690  0.50069943  1
  O  O223  1  0.87081608  0.25995835  0.00331733  1
  O  O224  1  0.88547562  0.26513702  0.50431957  1
  O  O225  1  0.87898006  0.75403652  0.01071572  1
  O  O226  1  0.87454574  0.76373163  0.49894286  1
  O  O227  1  0.13661915  0.24139809  0.49833622  1
  O  O228  1  0.13709821  0.25805048  1.00184371  1
  O  O229  1  0.13682547  0.74051994  0.50223147  1
  O  O230  1  0.12927018  0.74933406  0.98937577  1
  O  O231  1  0.62163343  0.23690671  0.49306370  1
  O  O232  1  0.63480407  0.25697689  0.99658294  1
  O  O233  1  0.61059560  0.73577471  0.48355060  1
  O  O234  1  0.63815337  0.75289577  1.00568605  1
  O  O235  1  0.49151407  0.24223870  0.12471341  1
  O  O236  1  0.50273438  0.23415560  0.63759453  1
  O  O237  1  0.49529532  0.74342258  0.12717840  1
  O  O238  1  0.49874021  0.74782909  0.64105807  1
  O  O239  1  0.99401470  0.24238092  0.12561419  1
  O  O240  1  1.00588113  0.24796805  0.64293892  1
  O  O241  1  0.99646851  0.74501052  0.13335097  1
  O  O242  1  1.00134001  0.74456536  0.63537338  1
  O  O243  1  0.00599770  0.26253122  0.37073605  1
  O  O244  1  0.00287055  0.24758638  0.86204400  1
  O  O245  1  -0.00406480  0.75695399  0.36122484  1
  O  O246  1  0.00411182  0.75142331  0.86211323  1
  O  O247  1  0.50699452  0.25666836  0.37398190  1
  O  O248  1  0.50291110  0.25146500  0.87310806  1
  O  O249  1  0.50743171  0.75829139  0.36646085  1
  O  O250  1  0.49234469  0.74833808  0.86318635  1
  O  O251  1  0.24551678  0.12750751  0.49514074  1
  O  O252  1  0.25353081  0.13430308  0.99382144  1
  O  O253  1  0.23817196  0.63294036  0.50201722  1
  O  O254  1  0.24725081  0.63743648  0.99899576  1
  O  O255  1  0.74137641  0.11815182  0.48631449  1
  O  O256  1  0.75346782  0.14346467  0.99511971  1
  O  O257  1  0.73856377  0.61686197  0.49025662  1
  O  O258  1  0.75148537  0.63510140  0.99208699  1
  O  O259  1  0.25646259  0.36928068  0.00711615  1
  O  O260  1  0.25010311  0.36719967  0.50784892  1
  O  O261  1  0.24955024  0.86319566  0.00590623  1
  O  O262  1  0.25075637  0.86361771  0.49772815  1
  O  O263  1  0.75847722  0.36833615  -0.00247937  1
  O  O264  1  0.74077153  0.37430787  0.48968331  1
  O  O265  1  0.76461436  0.85276755  -0.00759910  1
  O  O266  1  0.76334228  0.88086935  0.49697220  1
  O  O267  1  0.13209956  0.49636426  0.24394862  1
  O  O268  1  0.13289723  0.49408134  0.75057862  1
  O  O269  1  0.13449252  1.00327302  0.23745014  1
  O  O270  1  0.13184238  0.98955009  0.75594680  1
  O  O271  1  0.63015062  0.49473906  0.24240915  1
  O  O272  1  0.63085466  0.49055414  0.74919439  1
  O  O273  1  0.62535320  0.98684636  0.24942230  1
  O  O274  1  0.63114271  0.99716179  0.75017900  1
  O  O275  1  0.36209311  0.00156841  0.25083080  1
  O  O276  1  0.36647393  0.00831233  0.75630922  1
  O  O277  1  0.37223804  0.50732527  0.25607805  1
  O  O278  1  0.36961440  0.50514537  0.75437850  1
  O  O279  1  0.87199634  0.01398547  0.23568281  1
  O  O280  1  0.86698094  -0.00189282  0.75622601  1
  O  O281  1  0.86193237  0.50072126  0.23921581  1
  O  O282  1  0.86671034  0.49393711  0.76162776  1
  O  O283  1  0.13049823  0.37558954  0.36213054  1
  O  O284  1  0.13320031  0.37212882  0.86153713  1
  O  O285  1  0.10581632  0.87201378  0.37820376  1
  O  O286  1  0.11785950  0.86463625  0.86693578  1
  O  O287  1  0.61528101  0.36883740  0.36689229  1
  O  O288  1  0.61606637  0.36952994  0.86932820  1
  O  O289  1  0.61824677  0.86880260  0.36841868  1
  O  O290  1  0.63466691  0.88207138  0.86840833  1
  O  O291  1  0.38144361  0.13293244  0.12641076  1
  O  O292  1  0.38269575  0.12025581  0.63699371  1
  O  O293  1  0.38430288  0.62946145  0.13485835  1
  O  O294  1  0.37882160  0.62262662  0.63821433  1
  O  O295  1  0.88441278  0.13504457  0.12997809  1
  O  O296  1  0.88233658  0.12953171  0.62849243  1
  O  O297  1  0.88804462  0.63160947  0.12625096  1
  O  O298  1  0.88884271  0.62947435  0.61787760  1
  O  O299  1  0.25623580  0.25332992  0.12055985  1
  O  O300  1  0.24777499  0.25722873  0.61857765  1
  O  O301  1  0.25054648  0.75558184  0.11870236  1
  O  O302  1  0.25635106  0.75300200  0.61291082  1
  O  O303  1  0.75992242  0.24764565  0.11620495  1
  O  O304  1  0.74646945  0.23256049  0.62681088  1
  O  O305  1  0.76019612  0.73904688  0.11160720  1
  O  O306  1  0.70301194  0.75835498  0.61492398  1
  O  O307  1  0.24740756  0.24075228  0.38169892  1
  O  O308  1  0.24946623  0.24161423  0.88663457  1
  O  O309  1  0.25447136  0.74997375  0.38793823  1
  O  O310  1  0.24119453  0.75031433  0.88035871  1
  O  O311  1  0.73836459  0.24238263  0.37184295  1
  O  O312  1  0.74663107  0.24481389  0.88066340  1
  O  O313  1  0.73896865  0.74395633  0.36892561  1
  O  O314  1  0.75335060  0.73387192  0.88656636  1
  O  O315  1  -0.00686915  0.11464556  0.00946125  1
  O  O316  1  0.00750407  0.11229744  0.49300299  1
  O  O317  1  0.00216371  0.61588077  0.00781833  1
  O  O318  1  0.00801217  0.62883144  0.51018663  1
  O  O319  1  0.49984996  0.11688360  0.01056803  1
  O  O320  1  0.50595582  0.12036400  0.50757710  1
  O  O321  1  0.49323153  0.61645248  0.01094319  1
  O  O322  1  0.50466101  0.61678068  0.49902280  1
  O  O323  1  0.49132897  0.38486916  0.48566510  1
  O  O324  1  0.49268225  0.38074847  0.99609034  1
  O  O325  1  0.50535947  0.88595305  0.49097252  1
  O  O326  1  0.49235422  0.88817109  1.00484552  1
  O  O327  1  1.01647565  0.37777068  0.48210195  1
  O  O328  1  0.99470729  0.38928843  1.00326434  1
  O  O329  1  0.99442877  0.88418715  0.49164667  1
  O  O330  1  0.99533156  0.87905193  0.99264917  1
  O  O331  1  0.48965564  0.49515639  0.38007661  1
  O  O332  1  0.49473544  0.49419585  0.88031948  1
  O  O333  1  0.50299771  0.99508415  0.38248891  1
  O  O334  1  0.48139172  1.01018043  0.88284149  1
  O  O335  1  1.00424648  0.48311870  0.37079310  1
  O  O336  1  0.99258277  0.50901704  0.88334405  1
  O  O337  1  1.00104190  0.98890062  0.37841756  1
  O  O338  1  0.99657395  0.99623518  0.88141925  1
  O  O339  1  0.00833761  0.00373968  0.11977895  1
  O  O340  1  0.00019814  0.00157102  0.60914702  1
  O  O341  1  0.00547627  0.50826087  0.11988036  1
  O  O342  1  0.00103339  0.51587389  0.63133281  1
  O  O343  1  0.49144258  0.00966145  0.11493245  1
  O  O344  1  0.50492450  0.00880780  0.61997710  1
  O  O345  1  0.50748808  0.50766080  0.12150341  1
  O  O346  1  0.49921341  0.49734387  0.60989255  1
  O  O347  1  0.24598587  0.38202362  0.24375552  1
  O  O348  1  0.24737543  0.38070016  0.74458252  1
  O  O349  1  0.25169791  0.88181501  0.24243425  1
  O  O350  1  0.23897433  0.88372714  0.74782237  1
  O  O351  1  0.73911093  0.38486818  0.25650697  1
  O  O352  1  0.73833353  0.38738174  0.76311613  1
  O  O353  1  0.73998793  0.87337689  0.25159602  1
  O  O354  1  0.74365081  0.88010078  0.74843902  1
  O  O355  1  0.25081345  0.11632006  0.25778469  1
  O  O356  1  0.25356094  0.12000883  0.75549261  1
  O  O357  1  0.26155219  0.61834600  0.24423716  1
  O  O358  1  0.25626198  0.61782632  0.74835793  1
  O  O359  1  0.75613620  0.12769641  0.26232909  1
  O  O360  1  0.74957295  0.11423049  0.76324776  1
  O  O361  1  0.75373830  0.61892089  0.25592653  1
  O  O362  1  0.74382243  0.61792629  0.76627535  1
  O  O363  1  0.36327711  0.12317876  0.37352102  1
  O  O364  1  0.36213913  0.11728655  0.86854656  1
  O  O365  1  0.38279656  0.61804671  0.36219830  1
  O  O366  1  0.37089479  0.61744649  0.86387206  1
  O  O367  1  0.86258564  0.12864992  0.36731852  1
  O  O368  1  0.86467049  0.11896069  0.87590227  1
  O  O369  1  0.86241013  0.63262628  0.37483317  1
  O  O370  1  0.86551437  0.61322830  0.88141452  1
  O  O371  1  0.12984531  0.38160397  0.13587999  1
  O  O372  1  0.13597118  0.37865344  0.63524028  1
  O  O373  1  0.13633181  0.88253088  0.12171928  1
  O  O374  1  0.12421489  0.87193539  0.63327364  1
  O  O375  1  0.61718698  0.38483658  0.13865141  1
  O  O376  1  0.62456164  0.37437323  0.63982285  1
  O  O377  1  0.62663731  0.87273245  0.13806591  1
  O  O378  1  0.61716832  0.89331989  0.63992489  1
  O  O379  1  0.12437181  0.26001189  0.25042250  1
  O  O380  1  0.11859227  0.25819396  0.75553322  1
  O  O381  1  0.11134800  0.75037503  0.24667454  1
  O  O382  1  0.12022824  0.75792123  0.75390538  1
  O  O383  1  0.62357457  0.25953716  0.25640009  1
  O  O384  1  0.61650313  0.25453023  0.76246487  1
  O  O385  1  0.61988206  0.75675552  0.25621574  1
  O  O386  1  0.61104589  0.75822282  0.75781354  1
  O  O387  1  0.37592549  0.24929792  0.23778885  1
  O  O388  1  0.37915059  0.23637567  0.75812753  1
  O  O389  1  0.38016310  0.74380561  0.24474492  1
  O  O390  1  0.38191593  0.74297026  0.74980887  1
  O  O391  1  0.87520365  0.24352176  0.24057742  1
  O  O392  1  0.88672945  0.24902334  0.75455527  1
  O  O393  1  0.88172231  0.75110033  0.23740857  1
  O  O394  1  0.88486909  0.75852416  0.75076483  1
  O  O395  1  0.37723634  0.49755862  0.49288713  1
  O  O396  1  0.38066551  0.49509197  0.99531455  1
  O  O397  1  0.38883428  1.00064414  0.49691257  1
  O  O398  1  0.37610048  0.99814033  0.99053988  1
  O  O399  1  0.88408682  0.48973027  0.50223882  1
  O  O400  1  0.88217332  0.49502964  0.99729928  1
  O  O401  1  0.88788829  0.99931359  0.49742423  1
  O  O402  1  0.88892682  0.98943329  0.99739479  1
  O  O403  1  0.11444868  -0.00609513  0.00768201  1
  O  O404  1  0.11367201  0.00637948  0.49431032  1
  O  O405  1  0.11925365  0.50094102  0.00445272  1
  O  O406  1  0.12173975  0.51348926  0.50443587  1
  O  O407  1  0.60315892  0.00281312  -0.01965468  1
  O  O408  1  0.61749343  0.00771719  0.50877056  1
  O  O409  1  0.61659090  0.49104927  0.01074931  1
  O  O410  1  0.61295648  0.51079576  0.49596419  1
  O  O411  1  0.37202185  0.36877482  0.12181330  1
  O  O412  1  0.36059378  0.37878057  0.61784099  1
  O  O413  1  0.36213391  0.86733324  0.12298542  1
  O  O414  1  0.37134740  0.87562201  0.61994836  1
  O  O415  1  0.88195559  0.36354840  0.11483395  1
  O  O416  1  0.86583497  0.36559973  0.62858344  1
  O  O417  1  0.88073654  0.86726188  0.11374518  1
  O  O418  1  0.87320544  0.87896510  0.60572594  1
  O  O419  1  0.13670968  0.12484812  0.38224707  1
  O  O420  1  0.13789138  0.12658630  0.87454188  1
  O  O421  1  0.11637072  0.62406974  0.39246322  1
  O  O422  1  0.12613147  0.63749327  0.87300421  1
  O  O423  1  0.63267213  0.13162692  0.38086927  1
  O  O424  1  0.63914211  0.12757606  0.89088320  1
  O  O425  1  0.63239292  0.63355643  0.37622762  1
  O  O426  1  0.63538395  0.61790750  0.88178477  1
