# generated using pymatgen
data_V85Zn86O256
_symmetry_space_group_name_H-M   'P 1'
_cell_length_a   16.93951487
_cell_length_b   16.92952321
_cell_length_c   16.93380053
_cell_angle_alpha   89.96540657
_cell_angle_beta   90.04894866
_cell_angle_gamma   89.97411355
_symmetry_Int_Tables_number   1
_chemical_formula_structural   V85Zn86O256
_chemical_formula_sum   'V85 Zn86 O256'
_cell_volume   4856.23677248
_cell_formula_units_Z   1
loop_
 _symmetry_equiv_pos_site_id
 _symmetry_equiv_pos_as_xyz
  1  'x, y, z'
loop_
 _atom_site_type_symbol
 _atom_site_label
 _atom_site_symmetry_multiplicity
 _atom_site_fract_x
 _atom_site_fract_y
 _atom_site_fract_z
 _atom_site_occupancy
  V  V0  1  0.12323081  -0.00019708  0.60959628  1
  V  V1  1  0.12259656  0.86923482  0.26037199  1
  V  V2  1  0.37258612  0.49801669  0.37368480  1
  V  V3  1  0.75297994  0.37436379  0.61202932  1
  V  V4  1  -0.00146046  -0.00153239  -0.00252582  1
  V  V5  1  0.24754274  0.11080012  0.86875989  1
  V  V6  1  0.25351281  0.75444069  0.49514480  1
  V  V7  1  -0.00069319  0.87210170  0.87170858  1
  V  V8  1  0.62889572  -0.00148376  0.12098769  1
  V  V9  1  0.24591092  0.13886691  0.37850805  1
  V  V10  1  0.87507004  0.49088756  0.37825345  1
  V  V11  1  0.62522671  0.87243959  0.74761074  1
  V  V12  1  0.49960229  0.36900998  0.36415161  1
  V  V13  1  0.24602972  0.37112838  0.12399541  1
  V  V14  1  0.24983117  0.49793287  0.74732439  1
  V  V15  1  0.74054138  0.13097267  0.87569510  1
  V  V16  1  0.50432547  0.36538858  0.87593197  1
  V  V17  1  0.12393615  0.50008901  0.62410156  1
  V  V18  1  0.00404137  0.24341507  0.25492119  1
  V  V19  1  0.87662124  0.62694547  0.25318444  1
  V  V20  1  0.00502134  0.75049565  0.74203055  1
  V  V21  1  0.37900728  0.24499052  0.62211152  1
  V  V22  1  0.87822270  0.74964011  0.12226979  1
  V  V23  1  0.12217756  0.37526180  0.25283720  1
  V  V24  1  0.12679712  0.61858857  0.00757785  1
  V  V25  1  0.49729298  0.00094566  -0.00395812  1
  V  V26  1  0.87925973  0.25282651  0.61810956  1
  V  V27  1  0.60802635  0.11932835  0.50656434  1
  V  V28  1  0.87434081  0.25216617  0.12586774  1
  V  V29  1  0.37399711  0.87926753  -0.00649401  1
  V  V30  1  0.74699400  0.87363222  0.12192349  1
  V  V31  1  0.50112820  0.75269136  0.24733684  1
  V  V32  1  0.43897743  0.93464186  0.54643837  1
  V  V33  1  0.62436068  0.49826482  0.62282709  1
  V  V34  1  0.12360415  0.13132562  -0.00347551  1
  V  V35  1  0.25193398  0.62492532  0.87450191  1
  V  V36  1  0.75214164  0.23207085  0.49763005  1
  V  V37  1  0.86280509  0.11218795  0.26310445  1
  V  V38  1  0.12129502  0.14062810  0.49541960  1
  V  V39  1  0.62442714  0.62503400  0.49743057  1
  V  V40  1  0.75041753  0.49706736  0.74919492  1
  V  V41  1  0.74235145  0.00260495  0.74827286  1
  V  V42  1  0.23991110  0.62888866  0.37369663  1
  V  V43  1  0.37673809  0.13250437  0.24997787  1
  V  V44  1  0.25235554  0.87990919  0.62197252  1
  V  V45  1  0.24774346  0.36847694  0.61631526  1
  V  V46  1  0.80565586  0.83298470  0.56737151  1
  V  V47  1  0.87238825  0.62890727  0.74514727  1
  V  V48  1  0.75139934  0.74977400  -0.01392126  1
  V  V49  1  0.00236625  0.36798093  0.38111173  1
  V  V50  1  0.00176347  0.25312012  0.76265332  1
  V  V51  1  0.50093322  0.13307861  0.12706413  1
  V  V52  1  0.74468264  0.25384541  -0.00273317  1
  V  V53  1  0.87443265  0.00024491  0.87338201  1
  V  V54  1  0.62637362  0.24259636  0.36862959  1
  V  V55  1  0.62443859  0.62540377  0.00061988  1
  V  V56  1  0.37518456  0.00117623  0.37351329  1
  V  V57  1  0.25139386  0.87613035  0.12522475  1
  V  V58  1  0.25120655  0.75039797  -0.00048295  1
  V  V59  1  0.25041168  0.25109844  -0.01095249  1
  V  V60  1  0.50437541  0.86771879  0.87859891  1
  V  V61  1  0.37651341  0.11872596  0.75442887  1
  V  V62  1  0.75370300  0.62628015  0.37993845  1
  V  V63  1  -0.03121567  0.88222031  0.40730090  1
  V  V64  1  0.12262450  0.37110146  0.76122237  1
  V  V65  1  0.74915846  0.49424821  0.24908265  1
  V  V66  1  0.49686489  0.49468939  0.49828866  1
  V  V67  1  0.12477882  -0.00110872  0.12596692  1
  V  V68  1  0.50582645  0.74483602  0.74865427  1
  V  V69  1  -0.00369355  0.62789030  0.62134700  1
  V  V70  1  0.37575163  0.62553763  0.74666400  1
  V  V71  1  0.74324300  0.62876318  0.87050333  1
  V  V72  1  0.62873223  0.74691084  0.36760457  1
  V  V73  1  0.62562248  0.36467931  0.75100709  1
  V  V74  1  0.49351875  0.87867321  0.36852300  1
  V  V75  1  -0.00154608  0.12257704  0.12884228  1
  V  V76  1  -0.00395915  0.49782724  0.50109995  1
  V  V77  1  0.67697963  0.92877409  0.29827307  1
  V  V78  1  0.00337994  0.61851096  0.12892964  1
  V  V79  1  0.37830252  0.49528974  0.87543362  1
  V  V80  1  0.37514316  0.62583769  0.24894698  1
  V  V81  1  0.24355631  0.50080619  0.24259738  1
  V  V82  1  0.87679551  0.12568734  0.74976845  1
  V  V83  1  0.13304004  0.88711414  0.74930064  1
  V  V84  1  0.12751166  0.74979513  0.87300638  1
  Zn  Zn85  1  0.62106592  0.12922965  -0.00315982  1
  Zn  Zn86  1  0.37647242  0.25157998  0.12546860  1
  Zn  Zn87  1  0.50303122  0.24331368  0.74866800  1
  Zn  Zn88  1  0.88609312  0.37082930  -0.02007862  1
  Zn  Zn89  1  0.88322847  0.49683647  0.87464471  1
  Zn  Zn90  1  0.49977490  0.62454762  0.62256490  1
  Zn  Zn91  1  0.24858418  0.00280790  0.25155815  1
  Zn  Zn92  1  0.61314722  0.00630464  0.62645966  1
  Zn  Zn93  1  0.50342695  0.49887802  0.00074576  1
  Zn  Zn94  1  0.62322070  0.49775068  0.12555696  1
  Zn  Zn95  1  0.62343728  0.36977756  0.24530540  1
  Zn  Zn96  1  0.36816196  0.36719976  0.49611331  1
  Zn  Zn97  1  0.37792437  0.37365702  0.00239354  1
  Zn  Zn98  1  0.50179338  0.62231555  0.12445481  1
  Zn  Zn99  1  0.00137166  0.49152136  -0.00286352  1
  Zn  Zn100  1  0.87511752  0.87143951  -0.00561181  1
  Zn  Zn101  1  0.12079366  0.63176662  0.49478798  1
  Zn  Zn102  1  0.00278764  0.75214417  0.26688136  1
  Zn  Zn103  1  0.75128045  0.37883567  0.11838341  1
  Zn  Zn104  1  0.00153975  0.12358154  0.62126693  1
  Zn  Zn105  1  0.37752785  0.75082520  0.12361834  1
  Zn  Zn106  1  0.37986116  0.75252781  0.62008226  1
  Zn  Zn107  1  0.18697397  0.18899155  0.18869549  1
  Zn  Zn108  1  0.18713144  0.18940967  0.68626880  1
  Zn  Zn109  1  0.18817674  0.69176567  0.18774901  1
  Zn  Zn110  1  0.18913740  0.69092730  0.68134025  1
  Zn  Zn111  1  0.69012222  0.18431642  0.18488742  1
  Zn  Zn112  1  0.68886249  0.18534487  0.68172683  1
  Zn  Zn113  1  0.69137423  0.68436945  0.18588126  1
  Zn  Zn114  1  0.68669523  0.69294714  0.68073639  1
  Zn  Zn115  1  0.31267320  0.31302136  0.31066764  1
  Zn  Zn116  1  0.31247550  0.31008365  0.80784703  1
  Zn  Zn117  1  0.31213369  0.81371018  0.31203077  1
  Zn  Zn118  1  0.31595690  0.81356953  0.81104274  1
  Zn  Zn119  1  0.81436208  0.30604374  0.31408933  1
  Zn  Zn120  1  0.81406443  0.31246522  0.80975563  1
  Zn  Zn121  1  0.81843172  0.81016611  0.31653273  1
  Zn  Zn122  1  0.82765389  0.82864737  0.76865332  1
  Zn  Zn123  1  0.18287407  0.44107517  0.43539972  1
  Zn  Zn124  1  0.18813655  0.43913837  0.93827656  1
  Zn  Zn125  1  0.19403449  0.94007989  0.43815285  1
  Zn  Zn126  1  0.18471117  0.93887153  0.93867053  1
  Zn  Zn127  1  0.68516839  0.43372876  0.43301069  1
  Zn  Zn128  1  0.69078942  0.43737131  0.93497574  1
  Zn  Zn129  1  0.73429228  0.95874584  0.46904784  1
  Zn  Zn130  1  0.68682704  0.93778593  0.93440990  1
  Zn  Zn131  1  0.31258579  0.06410650  0.06100612  1
  Zn  Zn132  1  0.30453964  0.07011886  0.56512359  1
  Zn  Zn133  1  0.31434760  0.56045247  0.06399222  1
  Zn  Zn134  1  0.31150155  0.56202764  0.55991064  1
  Zn  Zn135  1  0.81341882  0.06445351  0.06356720  1
  Zn  Zn136  1  0.81933505  0.05385772  0.57028608  1
  Zn  Zn137  1  0.81669643  0.56080983  0.05985653  1
  Zn  Zn138  1  0.81362513  0.56451037  0.56131048  1
  Zn  Zn139  1  0.43539027  0.43968490  0.18387702  1
  Zn  Zn140  1  0.43747937  0.43254665  0.68649887  1
  Zn  Zn141  1  0.43736579  0.94309335  0.18660511  1
  Zn  Zn142  1  0.43345034  0.93852354  0.71012102  1
  Zn  Zn143  1  0.93656269  0.43646290  0.18781324  1
  Zn  Zn144  1  0.93589867  0.43507351  0.69158425  1
  Zn  Zn145  1  0.93721442  0.93493456  0.18877827  1
  Zn  Zn146  1  0.94042390  0.93811057  0.67282995  1
  Zn  Zn147  1  0.05897894  0.05390270  0.31882128  1
  Zn  Zn148  1  0.06288312  0.06448320  0.81040412  1
  Zn  Zn149  1  0.06091413  0.55973730  0.31063972  1
  Zn  Zn150  1  0.06587691  0.56096103  0.81120724  1
  Zn  Zn151  1  0.55836908  0.06910186  0.31565549  1
  Zn  Zn152  1  0.55747597  0.06100458  0.81735009  1
  Zn  Zn153  1  0.56160479  0.55996952  0.31074131  1
  Zn  Zn154  1  0.56401138  0.55748921  0.81378624  1
  Zn  Zn155  1  0.43679185  0.18911401  0.43782868  1
  Zn  Zn156  1  0.43298859  0.18788203  0.93665944  1
  Zn  Zn157  1  0.43574610  0.68737948  0.43501427  1
  Zn  Zn158  1  0.43840704  0.68840909  0.93582206  1
  Zn  Zn159  1  0.93680911  0.18282598  0.43730101  1
  Zn  Zn160  1  0.93338272  0.18763949  0.93963736  1
  Zn  Zn161  1  0.92918775  0.70118479  0.44702882  1
  Zn  Zn162  1  0.94872305  0.65999851  0.92401333  1
  Zn  Zn163  1  0.06236240  0.31294677  0.06526350  1
  Zn  Zn164  1  0.06099862  0.31352884  0.56744961  1
  Zn  Zn165  1  0.06182214  0.80899043  0.06216579  1
  Zn  Zn166  1  0.06788524  0.81230660  0.55670111  1
  Zn  Zn167  1  0.56660716  0.31603128  0.06204647  1
  Zn  Zn168  1  0.56278672  0.30949991  0.55955838  1
  Zn  Zn169  1  0.56690176  0.80853367  0.06207357  1
  Zn  Zn170  1  0.60953070  0.82819830  0.54507031  1
  O  O171  1  0.12021868  0.11605755  0.12004270  1
  O  O172  1  0.13103288  0.11918859  0.61028888  1
  O  O173  1  0.11758561  0.63241421  0.11926890  1
  O  O174  1  0.11347412  0.61760134  0.62539931  1
  O  O175  1  0.61822744  0.11564644  0.12337856  1
  O  O176  1  0.61764872  0.12782742  0.61271628  1
  O  O177  1  0.62534528  0.62154069  0.11519652  1
  O  O178  1  0.62436584  0.61863926  0.61336036  1
  O  O179  1  0.38111043  0.37713379  0.37746125  1
  O  O180  1  0.38190841  0.38128259  0.87288204  1
  O  O181  1  0.38316723  0.88432643  0.37316436  1
  O  O182  1  0.38537733  0.87358980  0.88340479  1
  O  O183  1  0.88381995  0.38542876  0.37183383  1
  O  O184  1  0.87723853  0.38390105  0.86377905  1
  O  O185  1  0.86969912  0.88439816  0.38357096  1
  O  O186  1  0.88304584  0.88356781  0.86605417  1
  O  O187  1  0.26357949  0.00725069  0.37378673  1
  O  O188  1  0.25027727  0.01225292  0.87827371  1
  O  O189  1  0.25393080  0.50631220  0.36489553  1
  O  O190  1  0.25768975  0.50505862  0.86752498  1
  O  O191  1  0.72903071  -0.01282638  0.35815433  1
  O  O192  1  0.75568895  0.01055593  0.87025759  1
  O  O193  1  0.75912132  0.50362735  0.37276371  1
  O  O194  1  0.74760772  0.50790078  0.85763354  1
  O  O195  1  0.25245693  0.49284899  0.13657686  1
  O  O196  1  0.24439715  0.49480688  0.63019393  1
  O  O197  1  0.24140725  0.99471186  0.12472942  1
  O  O198  1  0.24281717  0.98818166  0.61962424  1
  O  O199  1  0.75309490  0.50041901  0.13735497  1
  O  O200  1  0.74759413  0.49304984  0.62972130  1
  O  O201  1  0.73740069  0.99250466  0.11698879  1
  O  O202  1  0.73708902  1.01480469  0.64711987  1
  O  O203  1  0.00598498  0.36854255  0.25665475  1
  O  O204  1  0.01065435  0.36625455  0.74413502  1
  O  O205  1  0.01749196  0.87183000  0.24191260  1
  O  O206  1  0.01173612  0.86650709  0.75194489  1
  O  O207  1  0.49914359  0.37763309  0.26093620  1
  O  O208  1  0.51017223  0.37434854  0.75594203  1
  O  O209  1  0.49380934  0.86712283  0.25727547  1
  O  O210  1  0.50305323  0.86629979  0.76094138  1
  O  O211  1  0.49005905  0.12050758  0.23933276  1
  O  O212  1  0.48225933  0.12563476  0.75861305  1
  O  O213  1  0.49050646  0.63223934  0.25162445  1
  O  O214  1  0.49396560  0.62832283  0.75139195  1
  O  O215  1  1.00015820  0.12905416  0.24864360  1
  O  O216  1  0.99226487  0.13201292  0.74741390  1
  O  O217  1  0.99622601  0.63227138  0.24746192  1
  O  O218  1  0.99464781  0.63041980  0.73989039  1
  O  O219  1  0.36400982  0.25242514  0.00378365  1
  O  O220  1  0.37508532  0.24827444  0.51572451  1
  O  O221  1  0.37019780  0.76039231  0.00193165  1
  O  O222  1  0.36228771  0.74039367  0.50429323  1
  O  O223  1  0.86750709  0.25018484  0.00982778  1
  O  O224  1  0.86845368  0.24471576  0.50925402  1
  O  O225  1  0.86717875  0.74882808  0.00688067  1
  O  O226  1  0.86188978  0.76870398  0.51379745  1
  O  O227  1  0.12502728  0.23930726  0.50265797  1
  O  O228  1  0.13146782  0.23534971  1.00773475  1
  O  O229  1  0.14466634  0.74548819  0.50544285  1
  O  O230  1  0.13317682  0.74437214  0.99340347  1
  O  O231  1  0.63187470  0.23809318  0.49522551  1
  O  O232  1  0.64034783  0.24725021  1.00259603  1
  O  O233  1  0.61093333  0.73115660  0.48240375  1
  O  O234  1  0.63773190  0.73717216  1.00391809  1
  O  O235  1  0.50010023  0.23610474  0.11737737  1
  O  O236  1  0.48338644  0.25769844  0.62855867  1
  O  O237  1  0.49962237  0.74924245  0.13684830  1
  O  O238  1  0.49722513  0.74504522  0.64029735  1
  O  O239  1  0.99446601  0.24148744  0.13548913  1
  O  O240  1  0.99038834  0.24721217  0.63059311  1
  O  O241  1  0.98665343  0.74730547  0.12628009  1
  O  O242  1  1.00999463  0.74284579  0.63452104  1
  O  O243  1  -0.00654380  0.26135927  0.37032361  1
  O  O244  1  -0.00491500  0.24467550  0.86174196  1
  O  O245  1  -0.01072113  0.77622661  0.38121122  1
  O  O246  1  0.00814946  0.74914692  0.86236784  1
  O  O247  1  0.51306879  0.25695553  0.38135001  1
  O  O248  1  0.49623826  0.26146290  0.87191195  1
  O  O249  1  0.50319608  0.75695140  0.36509118  1
  O  O250  1  0.49587593  0.75648302  0.86335816  1
  O  O251  1  0.24067853  0.12435231  0.48565403  1
  O  O252  1  0.24481671  0.12988689  0.98976434  1
  O  O253  1  0.24760730  0.62739722  0.48837383  1
  O  O254  1  0.24637605  0.63061766  0.99758340  1
  O  O255  1  0.74988953  0.13035369  0.50525275  1
  O  O256  1  0.75055753  0.13239128  0.99087243  1
  O  O257  1  0.74135520  0.61889329  0.48805584  1
  O  O258  1  0.74650636  0.63045605  0.98917938  1
  O  O259  1  0.24673738  0.36792266  0.00778912  1
  O  O260  1  0.24806132  0.38358864  0.51200942  1
  O  O261  1  0.25649577  0.87262263  0.00376662  1
  O  O262  1  0.25130898  0.86737454  0.50740852  1
  O  O263  1  0.75670611  0.36612752  -0.00256387  1
  O  O264  1  0.74446140  0.36827263  0.50964707  1
  O  O265  1  0.75148252  0.86657908  0.00380819  1
  O  O266  1  0.71558198  0.85251936  0.50576008  1
  O  O267  1  0.13233727  0.49030015  0.25185640  1
  O  O268  1  0.12905792  0.49423095  0.74313751  1
  O  O269  1  0.12598464  0.99179674  0.23812732  1
  O  O270  1  0.12586517  0.98972187  0.74498408  1
  O  O271  1  0.63653255  0.49696989  0.25194011  1
  O  O272  1  0.63288294  0.49379958  0.74023353  1
  O  O273  1  0.61921880  0.99529712  0.24249253  1
  O  O274  1  0.62559082  0.99552140  0.75223074  1
  O  O275  1  0.37142888  0.01127701  0.25706628  1
  O  O276  1  0.36589021  0.01934321  0.74701405  1
  O  O277  1  0.36626754  0.50694586  0.25493533  1
  O  O278  1  0.37210818  0.50434890  0.75836421  1
  O  O279  1  0.87818210  0.01419880  0.24255992  1
  O  O280  1  0.86715476  0.01190413  0.75236192  1
  O  O281  1  0.87187575  0.50698455  0.26096399  1
  O  O282  1  0.86683113  0.51252399  0.74529894  1
  O  O283  1  0.11619461  0.37770163  0.36417534  1
  O  O284  1  0.12910065  0.38074163  0.86045216  1
  O  O285  1  0.13552518  0.87893475  0.35869141  1
  O  O286  1  0.12209446  0.87062130  0.86697091  1
  O  O287  1  0.61685652  0.36275097  0.37230876  1
  O  O288  1  0.61755454  0.38113257  0.86262799  1
  O  O289  1  0.61695855  0.86685222  0.36177892  1
  O  O290  1  0.61033324  0.87799600  0.86983297  1
  O  O291  1  0.38229355  0.12345955  0.13253194  1
  O  O292  1  0.36414901  0.13735737  0.63780134  1
  O  O293  1  0.37470606  0.62748163  0.13757454  1
  O  O294  1  0.37703449  0.61991905  0.63801889  1
  O  O295  1  0.88198564  0.13364315  0.13056546  1
  O  O296  1  0.87779489  0.13061203  0.63219817  1
  O  O297  1  0.88135050  0.63288975  0.13191490  1
  O  O298  1  0.88698616  0.62371978  0.62894011  1
  O  O299  1  0.25043077  0.25544170  0.11630150  1
  O  O300  1  0.25990642  0.26019467  0.62931331  1
  O  O301  1  0.25278887  0.76004930  0.11742075  1
  O  O302  1  0.25753865  0.76267483  0.61940030  1
  O  O303  1  0.75834349  0.24927283  0.11621396  1
  O  O304  1  0.75724514  0.25564614  0.61598748  1
  O  O305  1  0.75931747  0.75521126  0.11876839  1
  O  O306  1  0.74959835  0.76902845  0.62807483  1
  O  O307  1  0.25145468  0.23770194  0.37446780  1
  O  O308  1  0.24997830  0.24652823  0.88619464  1
  O  O309  1  0.25636712  0.74056748  0.38079011  1
  O  O310  1  0.24850858  0.74510964  0.88026179  1
  O  O311  1  0.73774102  0.25635707  0.38671170  1
  O  O312  1  0.75775157  0.24034963  0.88265279  1
  O  O313  1  0.74043952  0.73849169  0.36694491  1
  O  O314  1  0.75403929  0.74549046  0.88370233  1
  O  O315  1  0.00725662  0.12031121  0.00472300  1
  O  O316  1  0.01656799  0.12648746  0.49897645  1
  O  O317  1  0.01343632  0.63502933  0.01627858  1
  O  O318  1  -0.00147573  0.62385019  0.50563943  1
  O  O319  1  0.49815305  0.11643812  0.00393510  1
  O  O320  1  0.50929403  0.12181920  0.49767158  1
  O  O321  1  0.51023843  0.62587537  -0.00053924  1
  O  O322  1  0.50477293  0.61101800  0.49636223  1
  O  O323  1  0.50067120  0.38436422  0.49090341  1
  O  O324  1  0.49865332  0.37693946  0.99075125  1
  O  O325  1  0.50530238  0.87495293  0.49240347  1
  O  O326  1  0.49422212  0.87645672  0.99696876  1
  O  O327  1  1.00587433  0.38395669  0.49197061  1
  O  O328  1  0.99883710  0.37820198  1.00595515  1
  O  O329  1  0.99187894  0.87962800  0.50650951  1
  O  O330  1  0.99910163  0.87852491  0.98980294  1
  O  O331  1  0.49340108  0.49177994  0.37943991  1
  O  O332  1  0.49247769  0.48980823  0.87579890  1
  O  O333  1  0.48853482  0.99217410  0.37101683  1
  O  O334  1  0.49944282  0.99100053  0.89007796  1
  O  O335  1  0.99383380  0.49238132  0.38132447  1
  O  O336  1  0.99028581  0.54434474  0.88962046  1
  O  O337  1  1.00421607  0.97191653  0.37382865  1
  O  O338  1  0.99527703  0.99527091  0.87825247  1
  O  O339  1  0.00677002  0.00194073  0.11705387  1
  O  O340  1  0.01639971  0.00611816  0.63042547  1
  O  O341  1  -0.00346257  0.51595544  0.12864329  1
  O  O342  1  0.00159488  0.50532269  0.61765491  1
  O  O343  1  0.50978253  0.00298134  0.11495480  1
  O  O344  1  0.49040012  -0.01074393  0.61513067  1
  O  O345  1  0.50234338  0.50383723  0.11964648  1
  O  O346  1  0.50490803  0.49887559  0.61504039  1
  O  O347  1  0.24253179  0.38089059  0.24683018  1
  O  O348  1  0.24284183  0.38010235  0.74087011  1
  O  O349  1  0.24255648  0.87759804  0.24011755  1
  O  O350  1  0.24390888  0.86937772  0.73916349  1
  O  O351  1  0.75340509  0.38667955  0.25487436  1
  O  O352  1  0.74293534  0.38160786  0.74013073  1
  O  O353  1  0.74530355  0.87237751  0.24294911  1
  O  O354  1  0.73323095  0.89007213  0.76804471  1
  O  O355  1  0.25240310  0.12370832  0.26215186  1
  O  O356  1  0.25171516  0.13091850  0.76455693  1
  O  O357  1  0.25368734  0.61946624  0.25325891  1
  O  O358  1  0.25727171  0.62007889  0.75246783  1
  O  O359  1  0.76415023  0.12625755  0.24883457  1
  O  O360  1  0.75616441  0.12578073  0.75866277  1
  O  O361  1  0.75605077  0.61452647  0.26121718  1
  O  O362  1  0.75428531  0.62160951  0.74900991  1
  O  O363  1  0.36704101  0.12196074  0.37064966  1
  O  O364  1  0.36088690  0.12999371  0.86396221  1
  O  O365  1  0.36679780  0.61952126  0.36297278  1
  O  O366  1  0.37151914  0.61799747  0.86511713  1
  O  O367  1  0.87733219  0.12169977  0.36320238  1
  O  O368  1  0.86900603  0.11859847  0.86711818  1
  O  O369  1  0.86914019  0.62149989  0.37536710  1
  O  O370  1  0.85673328  0.62406418  0.86197907  1
  O  O371  1  0.13666873  0.36981382  0.13893545  1
  O  O372  1  0.13178093  0.38192300  0.63029017  1
  O  O373  1  0.13565938  0.88086966  0.12415575  1
  O  O374  1  0.13412739  0.88233369  0.62940186  1
  O  O375  1  0.63281560  0.37828294  0.12962015  1
  O  O376  1  0.63206374  0.37942395  0.62860763  1
  O  O377  1  0.63804462  0.87955693  0.12153108  1
  O  O378  1  0.61335617  0.88473967  0.64388598  1
  O  O379  1  0.11115417  0.25521934  0.24912046  1
  O  O380  1  0.11399943  0.25831118  0.74442937  1
  O  O381  1  0.12438121  0.76486816  0.24864102  1
  O  O382  1  0.12215277  0.75657276  0.75377366  1
  O  O383  1  0.63174342  0.24712652  0.26507319  1
  O  O384  1  0.62444004  0.26096957  0.74300591  1
  O  O385  1  0.61634440  0.73962824  0.25891904  1
  O  O386  1  0.61749537  0.75761704  0.74958277  1
  O  O387  1  0.37145426  0.23718183  0.24663205  1
  O  O388  1  0.37632656  0.24161294  0.74056377  1
  O  O389  1  0.38193815  0.74280154  0.24865803  1
  O  O390  1  0.38132472  0.73963645  0.74732064  1
  O  O391  1  0.88522789  0.23969070  0.24657149  1
  O  O392  1  0.87903837  0.23970175  0.74018614  1
  O  O393  1  0.87717885  0.74327217  0.24266441  1
  O  O394  1  0.88959687  0.73469761  0.75428617  1
  O  O395  1  0.38182182  0.49659653  0.49250757  1
  O  O396  1  0.37347866  0.49850311  0.98541258  1
  O  O397  1  0.37768147  1.00159459  0.49584203  1
  O  O398  1  0.38184253  0.98743189  1.00644337  1
  O  O399  1  0.88676816  0.50360191  0.49266468  1
  O  O400  1  0.87897599  0.49496220  0.99565672  1
  O  O401  1  0.82793811  0.94750140  0.53410947  1
  O  O402  1  0.88086377  0.99731092  0.99197663  1
  O  O403  1  0.12044415  0.00811558  0.00876157  1
  O  O404  1  0.12956002  0.00696642  0.50668765  1
  O  O405  1  0.12620414  0.51556633  -0.00148668  1
  O  O406  1  0.11156356  0.50671779  0.50384948  1
  O  O407  1  0.61704511  0.00231713  0.00606069  1
  O  O408  1  0.63276331  0.01769174  0.50346305  1
  O  O409  1  0.62907399  0.51355322  -0.00119404  1
  O  O410  1  0.61823443  0.50681365  0.50034033  1
  O  O411  1  0.36043537  0.37269374  0.12534543  1
  O  O412  1  0.36522608  0.36516829  0.62400490  1
  O  O413  1  0.36350053  0.87659486  0.11962297  1
  O  O414  1  0.37709848  0.88115024  0.61701106  1
  O  O415  1  0.87266675  0.35872585  0.13298148  1
  O  O416  1  0.86513460  0.36435107  0.63012247  1
  O  O417  1  0.86357854  0.86870096  0.12315153  1
  O  O418  1  0.86187867  0.86274650  0.65856234  1
  O  O419  1  0.13516559  0.11954168  0.38389088  1
  O  O420  1  0.13575659  0.12024062  0.88319434  1
  O  O421  1  0.13638888  0.62290127  0.37190753  1
  O  O422  1  0.13629706  0.63257853  0.88115913  1
  O  O423  1  0.62124188  0.13612251  0.38543856  1
  O  O424  1  0.63660725  0.12318502  0.87566264  1
  O  O425  1  0.63227663  0.62786551  0.37797020  1
  O  O426  1  0.63661093  0.62292778  0.87769781  1
