# generated using pymatgen
data_V85Zn86O256
_symmetry_space_group_name_H-M   'P 1'
_cell_length_a   16.93695849
_cell_length_b   16.95312425
_cell_length_c   16.94855671
_cell_angle_alpha   89.98452614
_cell_angle_beta   90.06322259
_cell_angle_gamma   89.96637067
_symmetry_Int_Tables_number   1
_chemical_formula_structural   V85Zn86O256
_chemical_formula_sum   'V85 Zn86 O256'
_cell_volume   4866.50903183
_cell_formula_units_Z   1
loop_
 _symmetry_equiv_pos_site_id
 _symmetry_equiv_pos_as_xyz
  1  'x, y, z'
loop_
 _atom_site_type_symbol
 _atom_site_label
 _atom_site_symmetry_multiplicity
 _atom_site_fract_x
 _atom_site_fract_y
 _atom_site_fract_z
 _atom_site_occupancy
  V  V0  1  0.49195639  0.37539701  0.87677691  1
  V  V1  1  0.25853727  0.25401822  0.49769920  1
  V  V2  1  0.25304177  0.62554169  0.37821073  1
  V  V3  1  -0.00940494  0.62466052  0.12731175  1
  V  V4  1  0.62295317  -0.00001774  0.62266974  1
  V  V5  1  0.37032045  0.74740312  0.62693760  1
  V  V6  1  -0.00139819  0.38694667  0.37918791  1
  V  V7  1  0.75065560  0.00317058  0.74966647  1
  V  V8  1  0.24133578  0.87283666  0.12664494  1
  V  V9  1  0.13152512  0.88185125  0.75019934  1
  V  V10  1  0.49874454  0.12340655  0.12662102  1
  V  V11  1  0.49613708  0.37886008  0.38786240  1
  V  V12  1  0.63471353  -0.01114132  0.12694827  1
  V  V13  1  0.12994077  0.49584631  0.12296208  1
  V  V14  1  0.61934725  0.49632233  0.61547246  1
  V  V15  1  0.49743903  0.62228383  0.61630481  1
  V  V16  1  -0.00302783  0.87774705  0.87405662  1
  V  V17  1  -0.00662856  0.49972965  -0.00202420  1
  V  V18  1  0.25606678  0.49793789  0.24524799  1
  V  V19  1  0.76563071  0.11818984  0.36605618  1
  V  V20  1  0.62366189  0.12715287  0.00358341  1
  V  V21  1  0.25338606  0.88262123  0.62711834  1
  V  V22  1  0.12480900  0.37489148  0.74824046  1
  V  V23  1  0.49458256  0.24679539  0.75269736  1
  V  V24  1  0.74898125  0.49743703  0.75165154  1
  V  V25  1  0.12296994  0.74930544  0.87615776  1
  V  V26  1  0.75934909  0.50090716  0.25400894  1
  V  V27  1  0.49802186  0.25228939  0.25181217  1
  V  V28  1  0.38132055  -0.00406783  0.37346545  1
  V  V29  1  0.25127576  0.49814171  0.75257574  1
  V  V30  1  0.49598407  -0.00219872  -0.00270404  1
  V  V31  1  0.12526428  0.25070773  0.37529707  1
  V  V32  1  0.53728795  0.71532327  0.77726801  1
  V  V33  1  0.87652936  -0.00016307  0.87779828  1
  V  V34  1  0.00031201  0.62155952  0.61848142  1
  V  V35  1  0.12132754  0.49736008  0.61870058  1
  V  V36  1  0.75085274  0.87680289  0.62371826  1
  V  V37  1  0.87254365  0.24850563  0.61268590  1
  V  V38  1  0.37002520  0.25267834  0.12454621  1
  V  V39  1  0.87564821  0.39046852  0.49548412  1
  V  V40  1  0.49956048  -0.00849506  0.49763562  1
  V  V41  1  0.62432415  0.25193335  0.87582437  1
  V  V42  1  0.25056850  0.11089378  0.87420951  1
  V  V43  1  0.49868541  0.50580685  -0.00130995  1
  V  V44  1  0.25170571  0.62024581  0.87796014  1
  V  V45  1  -0.01465514  0.91842284  0.36274291  1
  V  V46  1  0.24821569  0.25218941  0.00320695  1
  V  V47  1  0.37142283  0.62324049  0.75442414  1
  V  V48  1  0.49572587  0.76231425  0.25488566  1
  V  V49  1  0.13098785  0.37314182  0.24748569  1
  V  V50  1  0.36913620  0.38119093  0.00236642  1
  V  V51  1  0.64288873  0.87473740  0.25525574  1
  V  V52  1  0.74812667  0.36851915  0.61943237  1
  V  V53  1  0.88580043  0.88776886  0.49991902  1
  V  V54  1  0.12691920  0.75111953  0.37433672  1
  V  V55  1  0.87226561  0.62451653  0.75233955  1
  V  V56  1  0.74708373  0.75076903  0.49688975  1
  V  V57  1  0.24614933  -0.00323348  0.25170681  1
  V  V58  1  0.50168501  0.62989356  0.12696138  1
  V  V59  1  0.37504054  0.25157979  0.62451584  1
  V  V60  1  0.12863773  0.62636019  0.50096986  1
  V  V61  1  0.87363036  0.12740394  0.74774445  1
  V  V62  1  0.25245147  0.37419539  0.62280802  1
  V  V63  1  0.62767298  0.87814422  0.76146888  1
  V  V64  1  0.37879005  0.49747515  0.39046350  1
  V  V65  1  0.62369638  0.50103502  0.12552117  1
  V  V66  1  -0.00054481  0.74463444  0.25688376  1
  V  V67  1  0.12464301  0.12274668  0.50078363  1
  V  V68  1  0.12524497  0.24885969  0.87345935  1
  V  V69  1  0.37004439  0.11095540  0.75349896  1
  V  V70  1  0.37477426  0.12409398  0.25305005  1
  V  V71  1  -0.01322433  0.13207436  0.12691578  1
  V  V72  1  0.12198906  0.00245401  0.12783706  1
  V  V73  1  0.87631512  0.36671907  0.00129609  1
  V  V74  1  -0.01214394  0.25173752  0.24815141  1
  V  V75  1  0.36891034  0.87699792  -0.00341106  1
  V  V76  1  0.11839056  0.12363219  0.00180089  1
  V  V77  1  0.75487644  0.36854537  0.12759796  1
  V  V78  1  -0.00168836  0.25108066  0.74693457  1
  V  V79  1  0.62219960  0.37589161  0.25299546  1
  V  V80  1  0.49407449  0.87614660  0.87272478  1
  V  V81  1  -0.00021932  0.11537202  0.62015794  1
  V  V82  1  0.87870253  0.74972092  0.62080127  1
  V  V83  1  0.36911196  0.86764528  0.49514125  1
  V  V84  1  0.12220911  0.62430340  0.00063165  1
  Zn  Zn85  1  0.13060561  0.00209509  0.62906664  1
  Zn  Zn86  1  0.37204634  0.75039770  0.12506993  1
  Zn  Zn87  1  0.61921332  0.75240346  0.38078626  1
  Zn  Zn88  1  0.63364789  0.24526875  0.38265036  1
  Zn  Zn89  1  0.62178435  0.62376802  0.49657942  1
  Zn  Zn90  1  0.74985055  0.25179656  0.00228519  1
  Zn  Zn91  1  0.87363324  0.50097624  0.87246684  1
  Zn  Zn92  1  0.00257687  0.74951580  0.74609828  1
  Zn  Zn93  1  0.67408416  0.66418944  -0.08258087  1
  Zn  Zn94  1  0.75008341  0.12887765  0.87519791  1
  Zn  Zn95  1  0.49864383  0.12132878  0.62570724  1
  Zn  Zn96  1  0.87358693  0.62685400  0.25842831  1
  Zn  Zn97  1  -0.00200422  0.37672396  0.87267565  1
  Zn  Zn98  1  0.25386820  0.12492430  0.37696395  1
  Zn  Zn99  1  0.83149987  0.82416560  0.09219558  1
  Zn  Zn100  1  0.74029952  0.78312696  -0.01684172  1
  Zn  Zn101  1  -0.04466290  -0.04252951  0.03840527  1
  Zn  Zn102  1  0.24748678  0.74899116  0.00318644  1
  Zn  Zn103  1  0.75049377  0.61774238  0.38156080  1
  Zn  Zn104  1  0.63229187  0.12426459  0.49400382  1
  Zn  Zn105  1  0.37677921  0.62614899  0.25013312  1
  Zn  Zn106  1  0.62394780  0.36941376  0.74653921  1
  Zn  Zn107  1  0.18665441  0.18515625  0.18786775  1
  Zn  Zn108  1  0.18973386  0.18564689  0.68789199  1
  Zn  Zn109  1  0.18464595  0.68357808  0.18960957  1
  Zn  Zn110  1  0.18879156  0.69162403  0.68828919  1
  Zn  Zn111  1  0.68816431  0.18605590  0.19509503  1
  Zn  Zn112  1  0.68507502  0.18659121  0.68470301  1
  Zn  Zn113  1  0.68441700  0.69164755  0.18456368  1
  Zn  Zn114  1  0.69067316  0.68468631  0.68329900  1
  Zn  Zn115  1  0.31441306  0.31479993  0.31415788  1
  Zn  Zn116  1  0.31105775  0.30728955  0.81519112  1
  Zn  Zn117  1  0.30887673  0.81294312  0.31123966  1
  Zn  Zn118  1  0.31205584  0.80848279  0.81333811  1
  Zn  Zn119  1  0.80844855  0.30872132  0.32087247  1
  Zn  Zn120  1  0.81151320  0.31561057  0.81356533  1
  Zn  Zn121  1  0.81658357  0.81226416  0.31774680  1
  Zn  Zn122  1  0.81131972  0.80900376  0.81376335  1
  Zn  Zn123  1  0.19014516  0.43784825  0.43727953  1
  Zn  Zn124  1  0.18482462  0.43632628  0.93627505  1
  Zn  Zn125  1  0.18495196  0.94154109  0.43795382  1
  Zn  Zn126  1  0.17891935  0.93693178  0.94283281  1
  Zn  Zn127  1  0.68724462  0.43159103  0.43694419  1
  Zn  Zn128  1  0.71930168  0.48536920  0.96941527  1
  Zn  Zn129  1  0.69442999  0.94218890  0.43409932  1
  Zn  Zn130  1  0.69507391  0.94016664  0.94385846  1
  Zn  Zn131  1  0.31028274  0.06186434  0.06184787  1
  Zn  Zn132  1  0.31475500  0.06422686  0.56066456  1
  Zn  Zn133  1  0.31453298  0.56371372  0.06417031  1
  Zn  Zn134  1  0.30867776  0.56307942  0.56446577  1
  Zn  Zn135  1  0.80603905  0.06312006  0.06316266  1
  Zn  Zn136  1  0.80790555  0.06602069  0.55298875  1
  Zn  Zn137  1  0.80448549  0.64961469  0.05674095  1
  Zn  Zn138  1  0.80694251  0.56259714  0.56595195  1
  Zn  Zn139  1  0.43616615  0.43669582  0.18576084  1
  Zn  Zn140  1  0.43609079  0.43718940  0.68644511  1
  Zn  Zn141  1  0.43426271  0.93660964  0.18165408  1
  Zn  Zn142  1  0.43892170  0.93313680  0.68765361  1
  Zn  Zn143  1  0.93945337  0.43468691  0.18498229  1
  Zn  Zn144  1  0.93618749  0.43711649  0.68306589  1
  Zn  Zn145  1  0.94717372  0.93998756  0.20488995  1
  Zn  Zn146  1  0.93978255  0.93661955  0.69159076  1
  Zn  Zn147  1  0.05579634  0.06654078  0.31238017  1
  Zn  Zn148  1  0.06202587  0.06239089  0.81047192  1
  Zn  Zn149  1  0.06655999  0.56286470  0.31159814  1
  Zn  Zn150  1  0.06084820  0.56319210  0.80867728  1
  Zn  Zn151  1  0.56745252  0.05779381  0.31307528  1
  Zn  Zn152  1  0.55995735  0.06301682  0.81477105  1
  Zn  Zn153  1  0.56387022  0.56813858  0.31377702  1
  Zn  Zn154  1  0.55823878  0.54279331  0.80458200  1
  Zn  Zn155  1  0.46074734  0.19238429  0.44747565  1
  Zn  Zn156  1  0.43291685  0.18458250  0.93699391  1
  Zn  Zn157  1  0.43589468  0.68947336  0.43561136  1
  Zn  Zn158  1  0.43512916  0.68949500  0.94004586  1
  Zn  Zn159  1  0.93756836  0.18892604  0.43478821  1
  Zn  Zn160  1  0.93695967  0.18711636  0.93496010  1
  Zn  Zn161  1  0.93461849  0.67949196  0.43725881  1
  Zn  Zn162  1  0.93129910  0.69457799  0.93469022  1
  Zn  Zn163  1  0.06230837  0.31329223  0.06437925  1
  Zn  Zn164  1  0.06000508  0.31045831  0.55940993  1
  Zn  Zn165  1  0.04623351  0.81494166  0.07011577  1
  Zn  Zn166  1  0.06453452  0.81335712  0.55599478  1
  Zn  Zn167  1  0.56025156  0.31534571  0.06436009  1
  Zn  Zn168  1  0.56028181  0.30849609  0.56132557  1
  Zn  Zn169  1  0.57006567  0.80528493  0.05800494  1
  Zn  Zn170  1  0.55704203  0.81060915  0.57150135  1
  O  O171  1  0.11840177  0.12169566  0.11784249  1
  O  O172  1  0.11646116  0.12829677  0.61974457  1
  O  O173  1  0.12064316  0.61144881  0.11951464  1
  O  O174  1  0.12198797  0.61968809  0.61973681  1
  O  O175  1  0.61667402  0.11874083  0.12084206  1
  O  O176  1  0.62281685  0.11151530  0.62140410  1
  O  O177  1  0.61057628  0.61391478  0.13221439  1
  O  O178  1  0.61380516  0.61491566  0.62569039  1
  O  O179  1  0.37946613  0.39056229  0.37187913  1
  O  O180  1  0.38395518  0.36695683  0.88476298  1
  O  O181  1  0.36709951  0.88091490  0.38422915  1
  O  O182  1  0.38181186  0.87302377  0.88159649  1
  O  O183  1  0.88174933  0.37379635  0.38876933  1
  O  O184  1  0.87799803  0.37963048  0.88368394  1
  O  O185  1  0.88115141  0.87784984  0.39031604  1
  O  O186  1  0.88576023  0.88654278  0.86247704  1
  O  O187  1  0.25760834  0.00238222  0.36637297  1
  O  O188  1  0.24245398  0.01215473  0.88241567  1
  O  O189  1  0.26052260  0.50498144  0.36915571  1
  O  O190  1  0.24174364  0.51231108  0.86897199  1
  O  O191  1  0.75359656  0.01500835  0.37464251  1
  O  O192  1  0.75720652  0.00488723  0.86553703  1
  O  O193  1  0.74037672  0.49517704  0.35656331  1
  O  O194  1  0.74934229  0.48958485  0.85451359  1
  O  O195  1  0.24277312  0.50291110  0.13291631  1
  O  O196  1  0.24195571  0.49309115  0.63091289  1
  O  O197  1  0.24264429  0.99526319  0.13135359  1
  O  O198  1  0.25590647  0.98636401  0.62698234  1
  O  O199  1  0.73521287  0.48552998  0.14024212  1
  O  O200  1  0.74340115  0.48671678  0.63069785  1
  O  O201  1  0.73224924  1.00663596  0.12911144  1
  O  O202  1  0.74405822  0.99551365  0.62965040  1
  O  O203  1  0.01164882  0.36893338  0.25511814  1
  O  O204  1  0.00507287  0.36693537  0.74718201  1
  O  O205  1  0.01276878  0.86182964  0.27976573  1
  O  O206  1  0.01170251  0.87106361  0.75590381  1
  O  O207  1  0.50460890  0.36969072  0.25348464  1
  O  O208  1  0.49678033  0.36652292  0.75942468  1
  O  O209  1  0.50082477  0.86340643  0.24317127  1
  O  O210  1  0.50743868  0.87887298  0.76434868  1
  O  O211  1  0.49386112  0.13238702  0.24599200  1
  O  O212  1  0.49051896  0.13117384  0.75039079  1
  O  O213  1  0.49799652  0.63666152  0.24238077  1
  O  O214  1  0.48678588  0.61912700  0.74136025  1
  O  O215  1  1.00441634  0.14455851  0.24348731  1
  O  O216  1  0.99568522  0.13305418  0.74063522  1
  O  O217  1  0.99974620  0.62713489  0.24503945  1
  O  O218  1  0.99547868  0.62687537  0.73477594  1
  O  O219  1  0.36691080  0.25549002  0.00472863  1
  O  O220  1  0.37070817  0.24347696  0.51095719  1
  O  O221  1  0.37104005  0.76351064  0.00337315  1
  O  O222  1  0.38154385  0.75753313  0.51084724  1
  O  O223  1  0.87164957  0.26238385  -0.00547630  1
  O  O224  1  0.88164796  0.25838092  0.51169846  1
  O  O225  1  0.86483415  0.73920156  0.00847644  1
  O  O226  1  0.87053350  0.75618834  0.50950980  1
  O  O227  1  0.13295268  0.24498582  0.49300196  1
  O  O228  1  0.13123599  0.24647077  0.99592574  1
  O  O229  1  0.12385551  0.73427456  0.49218235  1
  O  O230  1  0.12247398  0.74444024  0.98860154  1
  O  O231  1  0.57671102  0.22929286  0.48489376  1
  O  O232  1  0.61976977  0.24267365  0.99434778  1
  O  O233  1  0.63236614  0.75487703  0.50360269  1
  O  O234  1  0.63013476  0.74551921  0.98956104  1
  O  O235  1  0.49223443  0.24551346  0.13469715  1
  O  O236  1  0.49220960  0.24813472  0.63888656  1
  O  O237  1  0.49939251  0.74423701  0.13281817  1
  O  O238  1  0.49172681  0.73770088  0.64148110  1
  O  O239  1  1.00612705  0.24767195  0.14026836  1
  O  O240  1  0.99301293  0.24456646  0.63283560  1
  O  O241  1  1.01730437  0.73307265  0.14244814  1
  O  O242  1  0.99451216  0.74336086  0.62286943  1
  O  O243  1  0.00825394  0.25828006  0.36509559  1
  O  O244  1  0.00519253  0.24951828  0.86040255  1
  O  O245  1  0.01810022  0.73652601  0.37328326  1
  O  O246  1  0.00634115  0.75694333  0.86931881  1
  O  O247  1  0.48233158  0.26305951  0.35767871  1
  O  O248  1  0.49981721  0.25146239  0.86683348  1
  O  O249  1  0.50023213  0.74797735  0.35885532  1
  O  O250  1  0.49314719  0.75866771  0.86493386  1
  O  O251  1  0.24602745  0.13917973  0.49954003  1
  O  O252  1  0.24013128  0.13154397  0.99492844  1
  O  O253  1  0.24252892  0.62118517  0.49103154  1
  O  O254  1  0.24275644  0.62449593  0.99372981  1
  O  O255  1  0.74687476  0.12648233  0.48539419  1
  O  O256  1  0.73423456  0.12896166  0.99898163  1
  O  O257  1  0.74462036  0.63690040  0.50622566  1
  O  O258  1  0.73820067  0.59476715  0.98449757  1
  O  O259  1  0.25795789  0.36630452  -0.00691417  1
  O  O260  1  0.24677477  0.36197845  0.50564301  1
  O  O261  1  0.25372023  0.87410215  0.00580068  1
  O  O262  1  0.26187181  0.87748921  0.51030098  1
  O  O263  1  0.75986510  0.38222424  0.00987232  1
  O  O264  1  0.76361826  0.37567925  0.50537261  1
  O  O265  1  0.76365314  0.88900707  0.01508209  1
  O  O266  1  0.76195392  0.87191415  0.50625106  1
  O  O267  1  0.13520733  0.49322461  0.24355175  1
  O  O268  1  0.13174575  0.49488431  0.74082587  1
  O  O269  1  0.13342118  1.01073630  0.23702453  1
  O  O270  1  0.12518313  0.98671998  0.74834041  1
  O  O271  1  0.62116670  0.48874941  0.24376423  1
  O  O272  1  0.63182404  0.48890191  0.73509453  1
  O  O273  1  0.61531090  0.98329433  0.23730661  1
  O  O274  1  0.62975767  0.99655322  0.74452901  1
  O  O275  1  0.36962156  0.00264026  0.25507974  1
  O  O276  1  0.38004529  0.01223812  0.74677967  1
  O  O277  1  0.36371965  0.49932143  0.25180064  1
  O  O278  1  0.36383207  0.51117693  0.74380432  1
  O  O279  1  0.94411713  -0.00601182  0.30354755  1
  O  O280  1  0.86966144  0.00763004  0.75417157  1
  O  O281  1  0.86059441  0.49375675  0.24788860  1
  O  O282  1  0.86782577  0.50625499  0.74539539  1
  O  O283  1  0.12074482  0.36684457  0.37134119  1
  O  O284  1  0.12246718  0.36652249  0.86606999  1
  O  O285  1  0.14441730  0.84759734  0.38481178  1
  O  O286  1  0.12364685  0.86783946  0.86681062  1
  O  O287  1  0.61428607  0.37015103  0.36916003  1
  O  O288  1  0.60750348  0.35789905  0.87442838  1
  O  O289  1  0.62997088  0.87561730  0.35857600  1
  O  O290  1  0.62020545  0.88491960  0.86540796  1
  O  O291  1  0.37981789  0.13072001  0.13007714  1
  O  O292  1  0.37238256  0.13534580  0.63543488  1
  O  O293  1  0.38655321  0.62834406  0.12700804  1
  O  O294  1  0.37743149  0.62960026  0.62985514  1
  O  O295  1  0.88762163  0.12304685  0.11758741  1
  O  O296  1  0.88062389  0.13172495  0.62681305  1
  O  O297  1  0.88911902  0.61541663  0.13401956  1
  O  O298  1  0.88359864  0.63034454  0.62700547  1
  O  O299  1  0.25263575  0.24424474  0.11113733  1
  O  O300  1  0.25631909  0.25468593  0.61857707  1
  O  O301  1  0.24609352  0.75838891  0.12548356  1
  O  O302  1  0.26414047  0.75613328  0.62807614  1
  O  O303  1  0.73875971  0.26494429  0.12272613  1
  O  O304  1  0.75696886  0.25963967  0.62798834  1
  O  O305  1  0.75761885  0.73928786  0.11705659  1
  O  O306  1  0.75843728  0.75813936  0.61739535  1
  O  O307  1  0.24526170  0.24970711  0.38186503  1
  O  O308  1  0.24296917  0.24190747  0.88606408  1
  O  O309  1  0.24591684  0.73158441  0.36698289  1
  O  O310  1  0.24125011  0.73720509  0.87756538  1
  O  O311  1  0.74636006  0.23643527  0.37469257  1
  O  O312  1  0.73791178  0.25037476  0.87796973  1
  O  O313  1  0.74833463  0.75426260  0.39050172  1
  O  O314  1  0.74969666  0.74389860  0.87512084  1
  O  O315  1  0.01189439  0.13761872  0.00833172  1
  O  O316  1  0.01097968  0.13465595  0.50877996  1
  O  O317  1  0.00451999  0.61741532  0.00736181  1
  O  O318  1  0.00809422  0.62407704  0.51200107  1
  O  O319  1  0.50515994  0.11807122  0.00406645  1
  O  O320  1  0.48994260  0.09875370  0.50789265  1
  O  O321  1  0.49279477  0.61201757  0.00452734  1
  O  O322  1  0.49962780  0.63009454  0.51288178  1
  O  O323  1  0.49936394  0.37699680  0.48684607  1
  O  O324  1  0.48924936  0.38049434  0.99505560  1
  O  O325  1  0.48481620  0.88273389  0.50932438  1
  O  O326  1  0.49333574  0.87972730  0.99144610  1
  O  O327  1  0.98806218  0.37273425  0.49305079  1
  O  O328  1  0.99421268  0.38022253  0.99975129  1
  O  O329  1  0.99052743  0.87415626  0.48626621  1
  O  O330  1  1.01424600  0.87791796  0.97839051  1
  O  O331  1  0.48522879  0.49536617  0.36870603  1
  O  O332  1  0.50260858  0.48705507  0.88555167  1
  O  O333  1  0.48817391  0.99620466  0.37980953  1
  O  O334  1  0.50342999  0.99377692  0.88959246  1
  O  O335  1  1.00806595  0.48548932  0.37131266  1
  O  O336  1  1.00339758  0.49787505  0.88451200  1
  O  O337  1  1.06366467  0.97711904  0.39112143  1
  O  O338  1  0.99037947  0.99306150  0.86718255  1
  O  O339  1  0.00739193  0.01468841  0.12947533  1
  O  O340  1  0.00381394  0.01295238  0.62984402  1
  O  O341  1  0.00887692  0.50499552  0.11921230  1
  O  O342  1  0.01314920  0.50588195  0.62888105  1
  O  O343  1  0.50486700  0.00377535  0.11454508  1
  O  O344  1  0.50826489  -0.00282892  0.62052565  1
  O  O345  1  0.50276247  0.50673188  0.11991817  1
  O  O346  1  0.50684267  0.50677589  0.62842937  1
  O  O347  1  0.23843155  0.38151490  0.25533790  1
  O  O348  1  0.24487621  0.37808211  0.74587810  1
  O  O349  1  0.25112613  0.88803899  0.24157684  1
  O  O350  1  0.24256171  0.86780958  0.74210819  1
  O  O351  1  0.74132457  0.37886513  0.24765265  1
  O  O352  1  0.74908505  0.37827506  0.73704193  1
  O  O353  1  0.74211778  0.86886561  0.24715011  1
  O  O354  1  0.74437532  0.88301941  0.74346393  1
  O  O355  1  0.25753768  0.11437284  0.25005246  1
  O  O356  1  0.25667164  0.12869259  0.76180072  1
  O  O357  1  0.25259611  0.61355731  0.25728315  1
  O  O358  1  0.25254517  0.61891000  0.75705249  1
  O  O359  1  0.75177690  0.12617320  0.26256240  1
  O  O360  1  0.75582927  0.12061472  0.74975525  1
  O  O361  1  0.74842075  0.60724203  0.24555291  1
  O  O362  1  0.76146141  0.61198080  0.73620388  1
  O  O363  1  0.37586498  0.11503414  0.36722292  1
  O  O364  1  0.36279239  0.12679679  0.86739084  1
  O  O365  1  0.37077259  0.61375609  0.37368685  1
  O  O366  1  0.36415562  0.62782248  0.86792197  1
  O  O367  1  0.86747978  0.12810372  0.37478014  1
  O  O368  1  0.87428039  0.12053415  0.86406574  1
  O  O369  1  0.86410234  0.62570278  0.37209839  1
  O  O370  1  0.88751699  0.62082223  0.85465566  1
  O  O371  1  0.12226526  0.38630449  0.13358725  1
  O  O372  1  0.12910748  0.38089973  0.62709238  1
  O  O373  1  0.13277232  0.88618941  0.11831479  1
  O  O374  1  0.13443997  0.87382142  0.62991994  1
  O  O375  1  0.62583582  0.38006116  0.13535892  1
  O  O376  1  0.63138186  0.37513972  0.62157069  1
  O  O377  1  0.62098435  0.88474804  0.13102264  1
  O  O378  1  0.62801546  0.88657379  0.63448151  1
  O  O379  1  0.12611557  0.25771993  0.25805334  1
  O  O380  1  0.11741944  0.25458239  0.75127880  1
  O  O381  1  0.11944143  0.73903761  0.26723506  1
  O  O382  1  0.12478573  0.75615405  0.76137536  1
  O  O383  1  0.61217689  0.26047295  0.25069783  1
  O  O384  1  0.61393413  0.24783744  0.75678349  1
  O  O385  1  0.61553864  0.76410082  0.24879619  1
  O  O386  1  0.62372256  0.76650501  0.73552888  1
  O  O387  1  0.37492284  0.24555809  0.24174358  1
  O  O388  1  0.37928812  0.24182194  0.74590239  1
  O  O389  1  0.38473574  0.75069535  0.24697272  1
  O  O390  1  0.37271238  0.73388884  0.74472735  1
  O  O391  1  0.89066273  0.26451182  0.25033179  1
  O  O392  1  0.88157666  0.24732356  0.74154931  1
  O  O393  1  0.89453196  0.75230114  0.25748713  1
  O  O394  1  0.87590610  0.74319832  0.73468967  1
  O  O395  1  0.37111067  0.50001062  0.48880592  1
  O  O396  1  0.38081612  0.48790818  1.00518998  1
  O  O397  1  0.37648686  0.99064149  0.49109045  1
  O  O398  1  0.38215207  0.98844266  1.00561315  1
  O  O399  1  0.87536995  0.48857000  0.50751692  1
  O  O400  1  0.88956785  0.49118873  0.99688536  1
  O  O401  1  0.88041378  0.98549834  0.51255794  1
  O  O402  1  0.87510477  1.01484263  0.98253713  1
  O  O403  1  0.12524803  0.01234823  0.01329501  1
  O  O404  1  0.14326784  0.02097384  0.51175600  1
  O  O405  1  0.11736119  0.50096077  0.00714207  1
  O  O406  1  0.13148804  0.50816194  0.51004424  1
  O  O407  1  0.61773024  0.00643004  0.01079542  1
  O  O408  1  0.61603008  -0.00663732  0.50701144  1
  O  O409  1  0.60996655  0.48739084  0.01783845  1
  O  O410  1  0.63117113  0.50032044  0.51191924  1
  O  O411  1  0.37723246  0.36464047  0.11468214  1
  O  O412  1  0.36857076  0.36054296  0.63166232  1
  O  O413  1  0.35857158  0.87491844  0.11679817  1
  O  O414  1  0.37024363  0.86519346  0.62346598  1
  O  O415  1  0.86641821  0.37842281  0.11607240  1
  O  O416  1  0.86927780  0.36859203  0.61506429  1
  O  O417  1  0.92877312  0.87619972  0.11663630  1
  O  O418  1  0.87636262  0.86754523  0.61789984  1
  O  O419  1  0.12622214  0.13797824  0.38144900  1
  O  O420  1  0.12747092  0.12980178  0.88197535  1
  O  O421  1  0.13500098  0.62404585  0.38389648  1
  O  O422  1  0.12823245  0.63156053  0.87907344  1
  O  O423  1  0.62826250  0.12570875  0.37454554  1
  O  O424  1  0.62152362  0.13500433  0.88456181  1
  O  O425  1  0.63110965  0.63175174  0.37956694  1
  O  O426  1  0.60224942  0.64407694  0.82974053  1
