# generated using pymatgen
data_V85Zn86O256
_symmetry_space_group_name_H-M   'P 1'
_cell_length_a   16.94332869
_cell_length_b   16.93429581
_cell_length_c   16.94196385
_cell_angle_alpha   90.02962602
_cell_angle_beta   90.08078721
_cell_angle_gamma   90.02270839
_symmetry_Int_Tables_number   1
_chemical_formula_structural   V85Zn86O256
_chemical_formula_sum   'V85 Zn86 O256'
_cell_volume   4861.03898747
_cell_formula_units_Z   1
loop_
 _symmetry_equiv_pos_site_id
 _symmetry_equiv_pos_as_xyz
  1  'x, y, z'
loop_
 _atom_site_type_symbol
 _atom_site_label
 _atom_site_symmetry_multiplicity
 _atom_site_fract_x
 _atom_site_fract_y
 _atom_site_fract_z
 _atom_site_occupancy
  V  V0  1  0.12463009  0.37682218  0.75022798  1
  V  V1  1  0.62610419  0.37814764  0.25394876  1
  V  V2  1  0.26200464  -0.00191111  0.25451403  1
  V  V3  1  0.37348870  0.37363681  0.00358588  1
  V  V4  1  0.37531115  0.62433382  0.74746140  1
  V  V5  1  0.74558256  0.87970994  0.11525106  1
  V  V6  1  0.24208072  0.25460845  0.49209922  1
  V  V7  1  0.25145202  0.87486956  0.12474487  1
  V  V8  1  0.61740406  0.12698952  0.51626280  1
  V  V9  1  0.49115528  0.24892996  0.73640094  1
  V  V10  1  0.49902235  0.74922303  0.74354461  1
  V  V11  1  0.87836716  0.38106471  0.50127719  1
  V  V12  1  0.61277214  -0.01416424  0.62987841  1
  V  V13  1  0.75240462  0.64667688  0.37738912  1
  V  V14  1  0.24836275  0.50073289  0.74989120  1
  V  V15  1  0.48348314  0.00879962  0.49977252  1
  V  V16  1  0.25183324  0.62491809  0.38382872  1
  V  V17  1  0.12578421  -0.00145672  0.12382591  1
  V  V18  1  0.87749854  0.24198823  0.62505960  1
  V  V19  1  0.37489336  0.49995902  0.87558114  1
  V  V20  1  0.75282483  0.50184964  0.25892840  1
  V  V21  1  0.00271237  0.00213389  0.50019095  1
  V  V22  1  0.62671489  0.73984009  0.87493661  1
  V  V23  1  -0.01588153  -0.00450429  -0.00046193  1
  V  V24  1  0.22920782  -0.01094388  0.75130060  1
  V  V25  1  0.01493874  0.12271602  0.62587930  1
  V  V26  1  0.37851550  -0.00113048  0.86970405  1
  V  V27  1  0.75305848  0.37285246  0.62592543  1
  V  V28  1  0.00431497  0.75151144  0.74752096  1
  V  V29  1  0.24924992  0.12785722  0.37266293  1
  V  V30  1  0.63694982  0.63672051  0.50231887  1
  V  V31  1  0.37463415  0.25051015  0.12680193  1
  V  V32  1  0.37369691  0.62221543  0.24853822  1
  V  V33  1  0.73017351  -0.00287632  0.24473008  1
  V  V34  1  0.24911878  0.25397023  0.00314459  1
  V  V35  1  0.50624350  0.11677005  0.12579279  1
  V  V36  1  0.25199646  0.12291317  0.87500988  1
  V  V37  1  0.87470302  0.00218246  0.36629085  1
  V  V38  1  0.24979354  0.49204355  0.24891724  1
  V  V39  1  0.62644618  0.49967789  0.12585081  1
  V  V40  1  -0.00086171  0.50256547  0.00797274  1
  V  V41  1  0.23189183  0.87264388  0.62300220  1
  V  V42  1  -0.00153319  0.87485856  0.37447270  1
  V  V43  1  0.12161246  0.12277729  -0.00032540  1
  V  V44  1  0.25086458  0.74811776  0.00048457  1
  V  V45  1  0.50289929  0.37914469  0.37908628  1
  V  V46  1  0.37738750  0.87383537  -0.00114743  1
  V  V47  1  0.50057506  0.49723591  -0.00046636  1
  V  V48  1  0.37976075  0.37350798  0.50243827  1
  V  V49  1  0.00234911  0.74446069  0.24299776  1
  V  V50  1  0.12816750  0.50234443  0.12803097  1
  V  V51  1  0.00044767  0.37718730  0.87797640  1
  V  V52  1  0.87162369  0.50750409  0.87664232  1
  V  V53  1  -0.00016238  0.12788144  0.13302973  1
  V  V54  1  0.62617101  0.24436830  0.37584801  1
  V  V55  1  0.00785661  0.36830157  0.38158317  1
  V  V56  1  0.87689988  0.25186145  0.13111842  1
  V  V57  1  0.75323095  0.10901436  0.87025619  1
  V  V58  1  0.12950763  0.74866669  0.38112971  1
  V  V59  1  0.87947282  0.62472201  0.24349042  1
  V  V60  1  0.12160269  0.62636576  0.00261221  1
  V  V61  1  0.38815875  0.50068954  0.37757655  1
  V  V62  1  0.75948401  0.74228025  -0.00487211  1
  V  V63  1  0.49780123  0.62133831  0.61325346  1
  V  V64  1  0.00342106  0.24983642  0.75231965  1
  V  V65  1  0.11924338  0.36303511  0.24668939  1
  V  V66  1  0.62701697  0.36830035  0.75446579  1
  V  V67  1  0.50306348  0.36362747  0.87754789  1
  V  V68  1  -0.01431787  0.87852906  0.87413085  1
  V  V69  1  0.12009226  0.50079648  0.61462111  1
  V  V70  1  0.12608597  0.75788637  0.87325795  1
  V  V71  1  0.36928139  0.75383124  0.61373703  1
  V  V72  1  -0.00310559  0.62370388  0.61752278  1
  V  V73  1  0.38068041  0.75153611  0.13190084  1
  V  V74  1  0.86663369  0.75913200  0.62117911  1
  V  V75  1  0.75136988  0.37391289  0.12776920  1
  V  V76  1  0.50184905  0.24909284  0.24978821  1
  V  V77  1  0.74751170  0.50824644  0.75402763  1
  V  V78  1  0.50354746  0.87299371  0.87196987  1
  V  V79  1  0.25368472  0.37377510  0.62413761  1
  V  V80  1  0.50194043  0.62731467  0.12392721  1
  V  V81  1  0.12673095  0.87361566  0.24946711  1
  V  V82  1  0.62259753  0.49637559  0.61748477  1
  V  V83  1  0.62682954  0.11718611  -0.00235546  1
  V  V84  1  0.74519327  0.25250761  -0.00963523  1
  Zn  Zn85  1  0.24828715  0.62558440  0.87340990  1
  Zn  Zn86  1  0.88418886  0.50463391  0.38236717  1
  Zn  Zn87  1  0.75272395  0.24359971  0.50024233  1
  Zn  Zn88  1  0.88005426  0.11726456  0.75738411  1
  Zn  Zn89  1  0.12378104  0.62495795  0.49900557  1
  Zn  Zn90  1  0.63038262  0.62003176  -0.00536036  1
  Zn  Zn91  1  0.74782374  0.12274931  0.37284744  1
  Zn  Zn92  1  0.38115225  0.12152293  0.25576335  1
  Zn  Zn93  1  0.87358970  0.62733583  0.75012808  1
  Zn  Zn94  1  0.50606600  -0.00415627  0.00246339  1
  Zn  Zn95  1  0.62902881  0.87093716  0.74392480  1
  Zn  Zn96  1  0.58111959  0.79788771  0.30446986  1
  Zn  Zn97  1  0.87532787  0.37558490  0.00235331  1
  Zn  Zn98  1  0.88031427  0.75458503  0.12002035  1
  Zn  Zn99  1  0.77651267  -0.02739587  0.72463361  1
  Zn  Zn100  1  0.85988994  0.86793222  0.49393583  1
  Zn  Zn101  1  0.36252468  0.88374845  0.49768382  1
  Zn  Zn102  1  0.48211820  0.88589125  0.36975350  1
  Zn  Zn103  1  0.87445356  0.12871666  0.25197124  1
  Zn  Zn104  1  0.12446284  0.24951885  0.87630762  1
  Zn  Zn105  1  0.38836324  0.11679447  0.73132902  1
  Zn  Zn106  1  0.12053213  0.13132115  0.48837369  1
  Zn  Zn107  1  0.19171143  0.18367251  0.18589885  1
  Zn  Zn108  1  0.21447682  0.17491065  0.67582113  1
  Zn  Zn109  1  0.18972135  0.68412752  0.19052567  1
  Zn  Zn110  1  0.18561127  0.68798221  0.68655586  1
  Zn  Zn111  1  0.68860864  0.18529184  0.18639241  1
  Zn  Zn112  1  0.68876569  0.18940509  0.69282376  1
  Zn  Zn113  1  0.69174057  0.69181194  0.18094715  1
  Zn  Zn114  1  0.68567613  0.68980682  0.68579017  1
  Zn  Zn115  1  0.31256170  0.31215674  0.31290318  1
  Zn  Zn116  1  0.31284645  0.31240872  0.81521154  1
  Zn  Zn117  1  0.31752280  0.81138648  0.31545185  1
  Zn  Zn118  1  0.31360856  0.81113812  0.80858821  1
  Zn  Zn119  1  0.81538132  0.31262542  0.31740637  1
  Zn  Zn120  1  0.81824350  0.31572579  0.81176804  1
  Zn  Zn121  1  0.81425433  0.81924069  0.30065191  1
  Zn  Zn122  1  0.81212198  0.80833712  0.80913180  1
  Zn  Zn123  1  0.18852310  0.43759650  0.43209287  1
  Zn  Zn124  1  0.18692819  0.43791438  0.93834264  1
  Zn  Zn125  1  0.18722172  0.94160694  0.43522690  1
  Zn  Zn126  1  0.18628080  0.93676064  0.93853646  1
  Zn  Zn127  1  0.69236615  0.43725865  0.44004091  1
  Zn  Zn128  1  0.68751832  0.43572628  0.93709959  1
  Zn  Zn129  1  0.68213337  0.91821676  0.42767629  1
  Zn  Zn130  1  0.68944733  0.93180403  0.93514785  1
  Zn  Zn131  1  0.31686462  0.06244471  0.06212118  1
  Zn  Zn132  1  0.29970703  0.06606289  0.56857474  1
  Zn  Zn133  1  0.30931191  0.56154266  0.06330264  1
  Zn  Zn134  1  0.31391904  0.55676508  0.56078662  1
  Zn  Zn135  1  0.80971627  0.06597461  0.06593348  1
  Zn  Zn136  1  0.78079222  0.02178180  0.53578733  1
  Zn  Zn137  1  0.81344927  0.56375654  0.06583718  1
  Zn  Zn138  1  0.81258265  0.56315945  0.56690676  1
  Zn  Zn139  1  0.43868227  0.43622340  0.18828586  1
  Zn  Zn140  1  0.43947654  0.43652859  0.68764930  1
  Zn  Zn141  1  0.44814767  0.93175936  0.19173764  1
  Zn  Zn142  1  0.43742362  0.93639520  0.68183303  1
  Zn  Zn143  1  0.94033249  0.43670210  0.19151281  1
  Zn  Zn144  1  0.93668985  0.43888510  0.68823333  1
  Zn  Zn145  1  0.93408043  0.93405240  0.18336261  1
  Zn  Zn146  1  0.94876228  0.93803206  0.68746585  1
  Zn  Zn147  1  0.06878978  0.06130589  0.31203673  1
  Zn  Zn148  1  0.05774655  0.06122773  0.81627899  1
  Zn  Zn149  1  0.06107871  0.55759945  0.31739140  1
  Zn  Zn150  1  0.06151639  0.56680102  0.81225260  1
  Zn  Zn151  1  0.56069409  0.05655301  0.31875768  1
  Zn  Zn152  1  0.56669998  0.06714754  0.81386631  1
  Zn  Zn153  1  0.57984227  0.60038785  0.29904501  1
  Zn  Zn154  1  0.55947222  0.55865475  0.80759216  1
  Zn  Zn155  1  0.43296589  0.19011689  0.43904539  1
  Zn  Zn156  1  0.43747531  0.18376834  0.93754641  1
  Zn  Zn157  1  0.44011751  0.69218704  0.43224073  1
  Zn  Zn158  1  0.43855431  0.68664508  0.93788834  1
  Zn  Zn159  1  0.93637799  0.18917812  0.43726865  1
  Zn  Zn160  1  0.93288000  0.18816218  0.94300046  1
  Zn  Zn161  1  0.93689852  0.68959202  0.43715491  1
  Zn  Zn162  1  0.94142871  0.68675760  0.93597318  1
  Zn  Zn163  1  0.06389515  0.31345351  0.06629797  1
  Zn  Zn164  1  0.06374997  0.31307381  0.56363549  1
  Zn  Zn165  1  0.06100512  0.81490092  0.05935866  1
  Zn  Zn166  1  0.05639472  0.81178079  0.55819545  1
  Zn  Zn167  1  0.56574534  0.30780721  0.06391516  1
  Zn  Zn168  1  0.56298808  0.31225318  0.56182409  1
  Zn  Zn169  1  0.56803173  0.81128112  0.06149731  1
  Zn  Zn170  1  0.54583591  0.80451044  0.52398088  1
  O  O171  1  0.11979249  0.12098917  0.11559780  1
  O  O172  1  0.11694586  0.13333959  0.62319270  1
  O  O173  1  0.12879810  0.61271685  0.11886890  1
  O  O174  1  0.11888720  0.61795134  0.62179659  1
  O  O175  1  0.61544975  0.13211283  0.11365307  1
  O  O176  1  0.61971964  0.13734108  0.61575765  1
  O  O177  1  0.61638292  0.61664474  0.11929898  1
  O  O178  1  0.62123399  0.61635139  0.61905836  1
  O  O179  1  0.38262929  0.38282054  0.37902545  1
  O  O180  1  0.38226988  0.38059148  0.88320530  1
  O  O181  1  0.36777117  0.87778295  0.38539050  1
  O  O182  1  0.38551290  0.87769712  0.87743666  1
  O  O183  1  0.88243005  0.37752573  0.38555059  1
  O  O184  1  0.88729234  0.38582965  0.87822823  1
  O  O185  1  0.88399438  0.88079362  0.37277738  1
  O  O186  1  0.88812247  0.86786203  0.87674741  1
  O  O187  1  0.24664974  0.01189388  0.36467328  1
  O  O188  1  0.25689164  -0.00073798  0.86855968  1
  O  O189  1  0.25918686  0.50685973  0.36760311  1
  O  O190  1  0.25604179  0.50006252  0.86800048  1
  O  O191  1  0.75614921  0.00046808  0.35578817  1
  O  O192  1  0.75007138  0.00884374  0.87381374  1
  O  O193  1  0.75460935  0.50216484  0.36501920  1
  O  O194  1  0.75992539  0.49290900  0.86806848  1
  O  O195  1  0.24210435  0.49985185  0.13508136  1
  O  O196  1  0.24172012  0.49334494  0.63069983  1
  O  O197  1  0.24577985  0.99516068  0.12893246  1
  O  O198  1  0.24394940  0.98673690  0.64357676  1
  O  O199  1  0.74711186  0.49356275  0.13447304  1
  O  O200  1  0.74418649  0.49245625  0.63565991  1
  O  O201  1  0.75192862  0.99017010  0.13085905  1
  O  O202  1  0.71796056  1.01405549  0.63369951  1
  O  O203  1  0.01373241  0.37430738  0.25604336  1
  O  O204  1  0.00382485  0.37117629  0.75924824  1
  O  O205  1  0.00664141  0.86932295  0.25776640  1
  O  O206  1  0.00228773  0.86682275  0.76512428  1
  O  O207  1  0.50813555  0.37091720  0.25767095  1
  O  O208  1  0.50585239  0.36833503  0.75799567  1
  O  O209  1  0.49129064  0.85589945  0.25563598  1
  O  O210  1  0.49801908  0.86442923  0.75637873  1
  O  O211  1  0.50058545  0.12964465  0.24295744  1
  O  O212  1  0.49968637  0.14428981  0.75636680  1
  O  O213  1  0.48676962  0.61267928  0.23088077  1
  O  O214  1  0.49475126  0.62953974  0.73774180  1
  O  O215  1  1.00287355  0.12085718  0.23517864  1
  O  O216  1  1.00282163  0.13366666  0.74594134  1
  O  O217  1  0.99298547  0.63346242  0.25875141  1
  O  O218  1  0.99909624  0.63342101  0.74032987  1
  O  O219  1  0.36841799  0.25336021  0.00482679  1
  O  O220  1  0.36245259  0.26657257  0.49436164  1
  O  O221  1  0.36914476  0.75318335  0.00733716  1
  O  O222  1  0.36916949  0.74574859  0.51276567  1
  O  O223  1  0.86211024  0.25265712  0.01119377  1
  O  O224  1  0.87373976  0.25857700  0.50955485  1
  O  O225  1  0.86392834  0.74374678  -0.00115965  1
  O  O226  1  0.87882235  0.75271425  0.51487267  1
  O  O227  1  0.13740285  0.25426470  0.49849138  1
  O  O228  1  0.13287949  0.24267667  1.00105407  1
  O  O229  1  0.12145546  0.74838037  0.48450894  1
  O  O230  1  0.12945133  0.74210192  0.99701324  1
  O  O231  1  0.62562164  0.24270334  0.49324557  1
  O  O232  1  0.64002682  0.24245365  1.00288881  1
  O  O233  1  0.63916048  0.73454256  0.51833204  1
  O  O234  1  0.63414439  0.74421056  0.99046285  1
  O  O235  1  0.49557510  0.24196735  0.13106137  1
  O  O236  1  0.49483550  0.25820374  0.63767707  1
  O  O237  1  0.49109886  0.73911937  0.11469160  1
  O  O238  1  0.48967841  0.74231265  0.62418588  1
  O  O239  1  0.99010251  0.24015733  0.11612404  1
  O  O240  1  0.99787244  0.24797183  0.63479496  1
  O  O241  1  1.00155480  0.75571473  0.13864218  1
  O  O242  1  0.99747114  0.74306379  0.63226770  1
  O  O243  1  -0.00748907  0.26816496  0.37192530  1
  O  O244  1  -0.00093434  0.25866662  0.87227067  1
  O  O245  1  0.00690247  0.75753005  0.36681240  1
  O  O246  1  0.00588050  0.75769643  0.87003954  1
  O  O247  1  0.50790364  0.25659328  0.36871086  1
  O  O248  1  0.49730739  0.26163741  0.87507286  1
  O  O249  1  0.51575472  0.76980467  0.41257212  1
  O  O250  1  0.50442505  0.75492495  0.86807978  1
  O  O251  1  0.24401386  0.13430450  0.48772511  1
  O  O252  1  0.24366304  0.12876454  0.99173492  1
  O  O253  1  0.24907496  0.61939625  0.48708056  1
  O  O254  1  0.23905850  0.62892693  0.99792805  1
  O  O255  1  0.73002100  0.12183040  0.49504573  1
  O  O256  1  0.74564564  0.13381483  0.99282572  1
  O  O257  1  0.74500740  0.62158340  0.49357518  1
  O  O258  1  0.74875420  0.63729931  1.00320245  1
  O  O259  1  0.25343560  0.36076898  -0.00551885  1
  O  O260  1  0.25523752  0.37346046  0.50369381  1
  O  O261  1  0.25650404  0.86879139  0.00552524  1
  O  O262  1  0.24407935  0.88656933  0.51927839  1
  O  O263  1  0.75004785  0.36620847  0.00710668  1
  O  O264  1  0.75904251  0.36997534  0.50876749  1
  O  O265  1  0.74883476  0.86391293  0.00753849  1
  O  O266  1  0.75689406  0.91256156  0.50452490  1
  O  O267  1  0.13139054  0.49643090  0.24345605  1
  O  O268  1  0.13205282  0.49656391  0.74596570  1
  O  O269  1  0.13464791  0.99204505  0.24179409  1
  O  O270  1  0.13122894  0.99031106  0.76020024  1
  O  O271  1  0.63516167  0.50079177  0.24559374  1
  O  O272  1  0.63050327  0.48991074  0.74392747  1
  O  O273  1  0.63259336  1.00868374  0.24213534  1
  O  O274  1  0.60663096  0.99362925  0.73618378  1
  O  O275  1  0.36384810  0.00132664  0.23993494  1
  O  O276  1  0.37118329  0.00051511  0.76037310  1
  O  O277  1  0.36697561  0.50052422  0.25551893  1
  O  O278  1  0.36919602  0.50459087  0.75444927  1
  O  O279  1  0.87744380  0.00236164  0.25848124  1
  O  O280  1  0.87980199  0.00507642  0.74443312  1
  O  O281  1  0.86918596  0.50735089  0.25076759  1
  O  O282  1  0.86503716  0.49958127  0.75824247  1
  O  O283  1  0.11615874  0.37677523  0.36385350  1
  O  O284  1  0.11444544  0.37518714  0.87066660  1
  O  O285  1  0.12133721  0.86767209  0.36815052  1
  O  O286  1  0.11930942  0.86050547  0.88345669  1
  O  O287  1  0.62163165  0.36920455  0.37328548  1
  O  O288  1  0.61471599  0.38072763  0.86614359  1
  O  O289  1  0.60310449  0.89546705  0.36025165  1
  O  O290  1  0.61225572  0.86405182  0.87678034  1
  O  O291  1  0.38515131  0.13644696  0.12343537  1
  O  O292  1  0.32196204  0.14103800  0.64620056  1
  O  O293  1  0.38004247  0.63116213  0.12648724  1
  O  O294  1  0.38123780  0.62647561  0.62699465  1
  O  O295  1  0.88371547  0.13324791  0.12571055  1
  O  O296  1  0.88948962  0.14005212  0.62840594  1
  O  O297  1  0.87352032  0.62973465  0.13986675  1
  O  O298  1  0.88263025  0.63226317  0.62835104  1
  O  O299  1  0.26121734  0.24236849  0.11408920  1
  O  O300  1  0.24005335  0.27138483  0.61562706  1
  O  O301  1  0.25688209  0.75357465  0.11946287  1
  O  O302  1  0.25489887  0.76425864  0.63480095  1
  O  O303  1  0.75462069  0.25682375  0.11779030  1
  O  O304  1  0.76104141  0.25476949  0.62727659  1
  O  O305  1  0.75390015  0.75512540  0.11097086  1
  O  O306  1  0.76868676  0.74761387  0.63354037  1
  O  O307  1  0.24926797  0.24348266  0.37957862  1
  O  O308  1  0.24882700  0.23914515  0.88198279  1
  O  O309  1  0.24075425  0.73612284  0.36405092  1
  O  O310  1  0.24395559  0.74936788  0.88094364  1
  O  O311  1  0.73945696  0.24764505  0.37688488  1
  O  O312  1  0.75480003  0.25601139  0.88952060  1
  O  O313  1  0.75495585  0.74633807  0.37120503  1
  O  O314  1  0.74219180  0.75144555  0.88693387  1
  O  O315  1  0.00646573  0.11723103  0.00471532  1
  O  O316  1  0.00242031  0.12245805  0.50761371  1
  O  O317  1  0.01288545  0.61814975  -0.00164470  1
  O  O318  1  0.00181460  0.62748054  0.51274356  1
  O  O319  1  0.51022954  0.12439511  0.00511430  1
  O  O320  1  0.50796217  0.12631474  0.49974159  1
  O  O321  1  0.49835394  0.61413786  0.00861238  1
  O  O322  1  0.51472303  0.62504579  0.50995488  1
  O  O323  1  0.49307863  0.37197300  0.49156000  1
  O  O324  1  0.49773063  0.37835031  0.99502092  1
  O  O325  1  0.48630889  0.90191741  0.50645539  1
  O  O326  1  0.49522069  0.87438424  0.99218833  1
  O  O327  1  0.99598527  0.37205368  0.49030332  1
  O  O328  1  1.00101591  0.38329411  0.99376600  1
  O  O329  1  0.99834487  0.88170498  0.48597024  1
  O  O330  1  1.00182302  0.88296436  0.98881553  1
  O  O331  1  0.49026682  0.50001142  0.36717982  1
  O  O332  1  0.49390380  0.49169982  0.88098327  1
  O  O333  1  0.49046732  1.01152906  0.39519684  1
  O  O334  1  0.49432761  0.99192851  0.87560659  1
  O  O335  1  0.99679672  0.48051179  0.37036894  1
  O  O336  1  0.99710650  0.49503989  0.88538422  1
  O  O337  1  0.99526637  0.99252137  0.37361079  1
  O  O338  1  1.00231066  0.98593597  0.88343979  1
  O  O339  1  0.00598248  0.00380535  0.11741098  1
  O  O340  1  0.00023297  0.01082680  0.61317511  1
  O  O341  1  0.00610469  0.49698743  0.11339035  1
  O  O342  1  0.00945229  0.50956334  0.63311818  1
  O  O343  1  0.49282803  0.01275052  0.12157714  1
  O  O344  1  0.50311994  0.00973270  0.61925503  1
  O  O345  1  0.50474569  0.50243371  0.11690691  1
  O  O346  1  0.51084994  0.50839137  0.63107689  1
  O  O347  1  0.23773913  0.38560124  0.25885663  1
  O  O348  1  0.24671740  0.38005378  0.74360268  1
  O  O349  1  0.24632858  0.88086507  0.24375766  1
  O  O350  1  0.24970096  0.88423069  0.74645757  1
  O  O351  1  0.74582464  0.38312659  0.24849665  1
  O  O352  1  0.74310118  0.37907284  0.74635106  1
  O  O353  1  0.74734173  0.88968002  0.23956534  1
  O  O354  1  0.74043697  0.87342890  0.75675889  1
  O  O355  1  0.25345480  0.11648534  0.25522533  1
  O  O356  1  0.23361226  0.10764310  0.77053388  1
  O  O357  1  0.25616163  0.61166408  0.25682619  1
  O  O358  1  0.25650129  0.61746429  0.74976733  1
  O  O359  1  0.75294616  0.10991076  0.24534418  1
  O  O360  1  0.75120909  0.13004829  0.76708377  1
  O  O361  1  0.76055562  0.61902203  0.25929199  1
  O  O362  1  0.74830696  0.61115934  0.74832334  1
  O  O363  1  0.35761683  0.13360795  0.37093986  1
  O  O364  1  0.36646793  0.11498739  0.87410194  1
  O  O365  1  0.37251985  0.62063353  0.37074407  1
  O  O366  1  0.37423758  0.61788623  0.86788350  1
  O  O367  1  0.87116323  0.11900299  0.37075950  1
  O  O368  1  0.85747532  0.13055978  0.87745690  1
  O  O369  1  0.86745124  0.62370164  0.37061152  1
  O  O370  1  0.88246405  0.61121479  0.87079216  1
  O  O371  1  0.12074638  0.38699665  0.13722013  1
  O  O372  1  0.12844208  0.38511348  0.63221331  1
  O  O373  1  0.13254883  0.87800737  0.12882124  1
  O  O374  1  0.13307100  0.86496813  0.62721824  1
  O  O375  1  0.63034578  0.37984365  0.13377010  1
  O  O376  1  0.63051072  0.38029009  0.63111437  1
  O  O377  1  0.64440337  0.86626634  0.12613453  1
  O  O378  1  0.61087478  0.88580534  0.62000412  1
  O  O379  1  0.13081747  0.26541792  0.23833973  1
  O  O380  1  0.11428778  0.25819758  0.75390761  1
  O  O381  1  0.11992333  0.75290653  0.25663641  1
  O  O382  1  0.11390890  0.74330295  0.76006781  1
  O  O383  1  0.62190714  0.25604818  0.25746326  1
  O  O384  1  0.61440258  0.26335535  0.74692642  1
  O  O385  1  0.62015497  0.70486503  0.26298667  1
  O  O386  1  0.61544406  0.74889046  0.75524028  1
  O  O387  1  0.38189133  0.25043385  0.24151276  1
  O  O388  1  0.38988623  0.25436106  0.75477873  1
  O  O389  1  0.36537396  0.73917640  0.23605426  1
  O  O390  1  0.38033912  0.74110310  0.74175803  1
  O  O391  1  0.86715043  0.24914934  0.23572188  1
  O  O392  1  0.88917823  0.25119229  0.74505666  1
  O  O393  1  0.88587165  0.74241544  0.24993459  1
  O  O394  1  0.88807516  0.74701249  0.74298749  1
  O  O395  1  0.37192651  0.48775116  0.48843093  1
  O  O396  1  0.37866822  0.49215634  0.99751382  1
  O  O397  1  0.38093199  1.01270391  0.51168847  1
  O  O398  1  0.37571426  0.99212107  0.98708795  1
  O  O399  1  0.87198641  0.48531205  0.50460094  1
  O  O400  1  0.88271426  0.50028223  0.99605273  1
  O  O401  1  0.88798572  1.00318923  0.48138016  1
  O  O402  1  0.88555035  1.00427943  1.00451241  1
  O  O403  1  0.12095114  0.00732361  0.00575865  1
  O  O404  1  0.10730177  0.00661063  0.48785917  1
  O  O405  1  0.12074280  0.50548382  0.00717382  1
  O  O406  1  0.12884620  0.49951597  0.51184685  1
  O  O407  1  0.62643473  0.01206104  -0.00360194  1
  O  O408  1  0.60823709  0.01616494  0.51362265  1
  O  O409  1  0.61948868  0.49979369  0.00627424  1
  O  O410  1  0.63282733  0.50411263  0.51486098  1
  O  O411  1  0.38243411  0.36067872  0.11820634  1
  O  O412  1  0.36563095  0.38581714  0.61521471  1
  O  O413  1  0.37167409  0.86656241  0.11882382  1
  O  O414  1  0.36340391  0.86683200  0.62262952  1
  O  O415  1  0.87030623  0.37019331  0.12419653  1
  O  O416  1  0.87458602  0.36661354  0.62088550  1
  O  O417  1  0.85683937  0.86866521  0.13103879  1
  O  O418  1  0.88521708  0.86131497  0.62298750  1
  O  O419  1  0.14052098  0.12940064  0.36907063  1
  O  O420  1  0.12764438  0.12532549  0.88861801  1
  O  O421  1  0.13357450  0.62935287  0.37572264  1
  O  O422  1  0.12581285  0.63510863  0.88450904  1
  O  O423  1  0.62257725  0.13620170  0.37989515  1
  O  O424  1  0.64028492  0.12612766  0.88316949  1
  O  O425  1  0.63873802  0.61752985  0.39652940  1
  O  O426  1  0.61560447  0.63575726  0.87437033  1
