# generated using pymatgen
data_V85Zn86O256
_symmetry_space_group_name_H-M   'P 1'
_cell_length_a   16.94323596
_cell_length_b   16.95764368
_cell_length_c   16.95620957
_cell_angle_alpha   89.99993078
_cell_angle_beta   89.94592645
_cell_angle_gamma   89.96071230
_symmetry_Int_Tables_number   1
_chemical_formula_structural   V85Zn86O256
_chemical_formula_sum   'V85 Zn86 O256'
_cell_volume   4871.81002328
_cell_formula_units_Z   1
loop_
 _symmetry_equiv_pos_site_id
 _symmetry_equiv_pos_as_xyz
  1  'x, y, z'
loop_
 _atom_site_type_symbol
 _atom_site_label
 _atom_site_symmetry_multiplicity
 _atom_site_fract_x
 _atom_site_fract_y
 _atom_site_fract_z
 _atom_site_occupancy
  V  V0  1  0.38206408  0.50117732  0.37814594  1
  V  V1  1  0.88917551  0.12101823  0.74805595  1
  V  V2  1  0.38659802  0.13368188  0.73902766  1
  V  V3  1  -0.00203118  0.50296804  0.50124232  1
  V  V4  1  0.00071928  0.37388667  0.87150929  1
  V  V5  1  0.87413254  0.49894349  0.87383148  1
  V  V6  1  0.24794055  0.75081715  -0.00538662  1
  V  V7  1  0.24440046  0.00118110  0.24682464  1
  V  V8  1  0.00265238  0.01165916  0.50268728  1
  V  V9  1  0.12371883  0.63369985  0.49619645  1
  V  V10  1  0.87332929  0.37314956  0.50480468  1
  V  V11  1  0.51087947  0.35421489  0.85765170  1
  V  V12  1  0.50046353  0.74544437  0.74351853  1
  V  V13  1  0.74789787  0.75403829  0.00704422  1
  V  V14  1  0.25267290  0.49495970  0.74809362  1
  V  V15  1  0.26269458  0.36769775  0.61074058  1
  V  V16  1  0.12207884  0.12355791  0.01143567  1
  V  V17  1  0.74978289  0.62595201  0.88268836  1
  V  V18  1  0.75126059  0.36854789  0.12471191  1
  V  V19  1  0.87765138  0.63371290  0.75376075  1
  V  V20  1  0.88544541  0.23390946  0.61563220  1
  V  V21  1  0.62874734  -0.00424047  0.12282746  1
  V  V22  1  0.06724544  0.80783263  0.81255674  1
  V  V23  1  0.24803791  0.62579115  0.87156564  1
  V  V24  1  0.37544937  0.75160732  0.12219188  1
  V  V25  1  0.87227308  0.49836738  0.37637438  1
  V  V26  1  0.87758372  -0.00083378  0.37816745  1
  V  V27  1  0.12649791  0.62787303  -0.00396894  1
  V  V28  1  0.37708944  0.62476488  0.74340334  1
  V  V29  1  0.24006766  0.87993127  0.12154909  1
  V  V30  1  0.50213142  0.74932977  0.24855496  1
  V  V31  1  0.37490929  0.00020138  0.87415453  1
  V  V32  1  0.12392567  0.49840472  0.62334596  1
  V  V33  1  0.12449878  0.37550262  0.24965202  1
  V  V34  1  0.70075615  0.17145934  0.82271880  1
  V  V35  1  0.50401087  0.49669557  -0.00593098  1
  V  V36  1  0.11976414  0.00601519  0.63574751  1
  V  V37  1  0.87376054  0.75786023  0.12797609  1
  V  V38  1  0.25312200  0.37683635  0.12212319  1
  V  V39  1  0.00539584  0.00045683  0.01413850  1
  V  V40  1  0.25077258  0.76037114  0.49600366  1
  V  V41  1  0.01312918  0.87292198  0.38012224  1
  V  V42  1  0.75116347  0.62859330  0.38715744  1
  V  V43  1  0.38095573  0.25067821  0.12572139  1
  V  V44  1  0.00037332  0.62568143  0.12539144  1
  V  V45  1  0.37556566  0.62659570  0.24665029  1
  V  V46  1  0.62820396  0.87402308  0.24675174  1
  V  V47  1  0.63245104  0.13299434  0.00342739  1
  V  V48  1  0.00215836  0.49935415  -0.00086511  1
  V  V49  1  0.74868884  0.25251205  0.49499855  1
  V  V50  1  0.87492963  0.87367855  0.49926965  1
  V  V51  1  0.13036092  0.24878740  0.38155898  1
  V  V52  1  0.75027033  0.88070495  0.62153553  1
  V  V53  1  0.37713387  0.75527017  0.61801799  1
  V  V54  1  0.62778493  0.87144219  0.74922872  1
  V  V55  1  0.75068184  0.49991556  0.25096391  1
  V  V56  1  0.62494885  0.74465698  0.88132926  1
  V  V57  1  0.88029350  0.87430399  -0.00640146  1
  V  V58  1  0.37389169  -0.01074080  0.38320311  1
  V  V59  1  0.00277065  0.24441328  0.24231042  1
  V  V60  1  0.25326117  0.25018100  -0.00114849  1
  V  V61  1  0.62410857  0.37344046  0.26887312  1
  V  V62  1  0.62631702  0.48520029  0.62913918  1
  V  V63  1  0.24276382  0.87393810  0.63401794  1
  V  V64  1  0.24541152  0.63189987  0.37309458  1
  V  V65  1  0.37440762  0.87606649  -0.00006470  1
  V  V66  1  0.49928995  0.86965551  0.87729630  1
  V  V67  1  0.12440408  0.24854146  0.87248523  1
  V  V68  1  0.88034959  0.00263852  0.87595317  1
  V  V69  1  0.73962128  0.12495682  0.38197866  1
  V  V70  1  0.50697801  0.25160347  0.26035781  1
  V  V71  1  0.00181366  0.62968872  0.63229494  1
  V  V72  1  0.61555343  0.62789159  0.51277574  1
  V  V73  1  0.75130701  -0.00416107  0.24967873  1
  V  V74  1  0.62850893  0.50119485  0.12066833  1
  V  V75  1  0.87440134  0.75293264  0.62399013  1
  V  V76  1  0.00970747  0.75107511  0.25487949  1
  V  V77  1  0.87825139  0.12333037  0.24504598  1
  V  V78  1  0.25033559  0.50291269  0.24898524  1
  V  V79  1  0.25217089  0.12574973  0.87239965  1
  V  V80  1  0.62976078  0.75048225  0.37899781  1
  V  V81  1  0.37808399  0.12112711  0.25066697  1
  V  V82  1  0.87474906  0.62720982  0.25217153  1
  V  V83  1  0.50820060  -0.00731128  0.50769291  1
  V  V84  1  0.50620919  0.62502050  0.11710592  1
  Zn  Zn85  1  0.87854010  0.24228055  0.12099638  1
  Zn  Zn86  1  0.49253980  0.50200315  0.51197029  1
  Zn  Zn87  1  0.74079287  0.49860233  0.74960201  1
  Zn  Zn88  1  0.38150377  0.37305772  -0.00466547  1
  Zn  Zn89  1  0.12558136  0.37298749  0.74571754  1
  Zn  Zn90  1  0.25126078  0.12671227  0.37896540  1
  Zn  Zn91  1  0.00240517  0.24856524  0.74222182  1
  Zn  Zn92  1  0.24666504  -0.00404632  0.75377123  1
  Zn  Zn93  1  0.57701129  0.17185002  0.53893264  1
  Zn  Zn94  1  0.44770715  0.33385549  0.41720224  1
  Zn  Zn95  1  0.13560336  0.13226655  0.50978277  1
  Zn  Zn96  1  -0.00012533  0.37469085  0.37419550  1
  Zn  Zn97  1  0.50346689  -0.00011176  0.00196627  1
  Zn  Zn98  1  0.12370652  0.87946543  0.24808947  1
  Zn  Zn99  1  0.75374866  -0.00734747  0.76026890  1
  Zn  Zn100  1  0.37956782  0.49605246  0.87429408  1
  Zn  Zn101  1  0.75701453  0.24774279  -0.00708382  1
  Zn  Zn102  1  0.61710806  0.00693325  0.63327840  1
  Zn  Zn103  1  0.87592341  0.37023600  0.00231221  1
  Zn  Zn104  1  0.49690175  0.86986013  0.37645489  1
  Zn  Zn105  1  0.12672871  0.50029116  0.12418362  1
  Zn  Zn106  1  0.50328420  0.12313749  0.12427370  1
  Zn  Zn107  1  0.19306526  0.18977303  0.19088665  1
  Zn  Zn108  1  0.19436355  0.18747152  0.68923572  1
  Zn  Zn109  1  0.18705980  0.68959840  0.18176319  1
  Zn  Zn110  1  0.18911755  0.68728297  0.68553052  1
  Zn  Zn111  1  0.68916418  0.18589022  0.19093983  1
  Zn  Zn112  1  0.56697452  0.19814181  0.69712877  1
  Zn  Zn113  1  0.68965967  0.68551266  0.18970564  1
  Zn  Zn114  1  0.69647167  0.69062456  0.69052350  1
  Zn  Zn115  1  0.31008350  0.31222515  0.30899347  1
  Zn  Zn116  1  0.32146948  0.31458615  0.80988415  1
  Zn  Zn117  1  0.30875618  0.81283670  0.30767162  1
  Zn  Zn118  1  0.30935820  0.81017965  0.81205745  1
  Zn  Zn119  1  0.81305383  0.31168164  0.31270901  1
  Zn  Zn120  1  0.77528465  0.29769618  0.76753965  1
  Zn  Zn121  1  0.81506340  0.81315870  0.31512845  1
  Zn  Zn122  1  0.81620830  0.81227750  0.81471722  1
  Zn  Zn123  1  0.18891085  0.44201541  0.43530852  1
  Zn  Zn124  1  0.18871153  0.43785509  0.93539548  1
  Zn  Zn125  1  0.18770366  0.94455609  0.44124839  1
  Zn  Zn126  1  0.18211340  0.93823611  0.93488714  1
  Zn  Zn127  1  0.61886076  0.36788467  0.48910758  1
  Zn  Zn128  1  0.68665275  0.43296649  0.93789162  1
  Zn  Zn129  1  0.68890624  0.93648736  0.43737354  1
  Zn  Zn130  1  0.69239841  0.93385399  0.93964647  1
  Zn  Zn131  1  0.31212049  0.06344972  0.06194566  1
  Zn  Zn132  1  0.30634104  0.06013698  0.56308853  1
  Zn  Zn133  1  0.31710724  0.56064370  0.05988042  1
  Zn  Zn134  1  0.30983213  0.56564461  0.56179716  1
  Zn  Zn135  1  0.81033121  0.05839331  0.06303473  1
  Zn  Zn136  1  0.75119223  0.11293137  0.61045687  1
  Zn  Zn137  1  0.81430407  0.56455622  0.06232668  1
  Zn  Zn138  1  0.80864830  0.56238148  0.56399884  1
  Zn  Zn139  1  0.44126602  0.43714026  0.19004009  1
  Zn  Zn140  1  0.44683701  0.44081029  0.69048315  1
  Zn  Zn141  1  0.43859609  0.93678967  0.18799172  1
  Zn  Zn142  1  0.43255939  0.93288913  0.68888626  1
  Zn  Zn143  1  0.93805489  0.43692044  0.18667300  1
  Zn  Zn144  1  0.90310210  0.41529039  0.70884798  1
  Zn  Zn145  1  0.93793793  0.93524989  0.18832131  1
  Zn  Zn146  1  0.94487562  0.93377198  0.69100421  1
  Zn  Zn147  1  0.06267029  0.06422939  0.31370923  1
  Zn  Zn148  1  0.05950717  0.05755615  0.82114280  1
  Zn  Zn149  1  0.06197719  0.56292117  0.31362036  1
  Zn  Zn150  1  0.06472978  0.56479966  0.81005055  1
  Zn  Zn151  1  0.55802132  0.06042795  0.31546332  1
  Zn  Zn152  1  0.55729363  0.05410802  0.81580916  1
  Zn  Zn153  1  0.56652510  0.56443896  0.31065706  1
  Zn  Zn154  1  0.56540581  0.56315604  0.80774395  1
  Zn  Zn155  1  0.41495153  0.16604394  0.45566960  1
  Zn  Zn156  1  0.44327696  0.18439283  0.93821868  1
  Zn  Zn157  1  0.43700727  0.68734460  0.43516220  1
  Zn  Zn158  1  0.43496847  0.68331987  0.93528115  1
  Zn  Zn159  1  0.94073860  0.18706876  0.42603410  1
  Zn  Zn160  1  0.93683351  0.18440251  0.93695367  1
  Zn  Zn161  1  0.93837103  0.69151496  0.43956109  1
  Zn  Zn162  1  0.94042375  0.69124981  0.93721016  1
  Zn  Zn163  1  0.06533187  0.31200253  0.06162076  1
  Zn  Zn164  1  0.05997173  0.31798086  0.56153382  1
  Zn  Zn165  1  0.06042003  0.81108676  0.05732115  1
  Zn  Zn166  1  0.06268295  0.81509014  0.56931299  1
  Zn  Zn167  1  0.56614249  0.31535694  0.06565288  1
  Zn  Zn168  1  0.44048973  0.30801535  0.57255630  1
  Zn  Zn169  1  0.56470307  0.81419750  0.06365280  1
  Zn  Zn170  1  0.56136119  0.81593783  0.55974194  1
  O  O171  1  0.13450340  0.13350886  0.10982232  1
  O  O172  1  0.13211528  0.11077460  0.62688345  1
  O  O173  1  0.11873727  0.62174089  0.11611320  1
  O  O174  1  0.12017369  0.61823677  0.61818525  1
  O  O175  1  0.62632531  0.11611745  0.11723753  1
  O  O176  1  0.63701849  0.11968817  0.62635772  1
  O  O177  1  0.61732486  0.61495939  0.13187666  1
  O  O178  1  0.62667382  0.64802215  0.61015334  1
  O  O179  1  0.36899820  0.39745149  0.36066914  1
  O  O180  1  0.39421960  0.37675793  0.87544363  1
  O  O181  1  0.37569174  0.88646528  0.36544118  1
  O  O182  1  0.37675666  0.88021330  0.88032012  1
  O  O183  1  0.87748160  0.38422304  0.38075119  1
  O  O184  1  0.89250579  0.38682570  0.88361430  1
  O  O185  1  0.88329731  0.87960646  0.38209866  1
  O  O186  1  0.87869385  0.87450833  0.88951376  1
  O  O187  1  0.26083739  -0.00325931  0.36630047  1
  O  O188  1  0.25625286  0.00857856  0.87542731  1
  O  O189  1  0.25663081  0.51365225  0.36843800  1
  O  O190  1  0.25480826  0.50434799  0.86515088  1
  O  O191  1  0.75663295  0.00763019  0.37161287  1
  O  O192  1  0.77176223  -0.01258161  0.87788571  1
  O  O193  1  0.76423345  0.51179801  0.36950961  1
  O  O194  1  0.75909247  0.50877199  0.88028582  1
  O  O195  1  0.25114753  0.49493532  0.13094555  1
  O  O196  1  0.24410371  0.49620233  0.63041801  1
  O  O197  1  0.25709568  0.99060023  0.13273052  1
  O  O198  1  0.23918344  0.98978805  0.62863640  1
  O  O199  1  0.74470901  0.49770941  0.12977587  1
  O  O200  1  0.72993279  0.52008198  0.63110368  1
  O  O201  1  0.73896847  1.00057625  0.13622554  1
  O  O202  1  0.74653842  0.98579171  0.63562554  1
  O  O203  1  0.01281538  0.37266523  0.25014143  1
  O  O204  1  0.00036484  0.37083162  0.75821933  1
  O  O205  1  0.00261254  0.86877071  0.25853547  1
  O  O206  1  0.00353333  0.86530211  0.75712218  1
  O  O207  1  0.51188156  0.36630139  0.24711574  1
  O  O208  1  0.50135197  0.36659795  0.75800960  1
  O  O209  1  0.51020220  0.86605180  0.24978769  1
  O  O210  1  0.50499465  0.86252838  0.75682803  1
  O  O211  1  0.49468506  0.13052070  0.24583976  1
  O  O212  1  0.49294028  0.12438056  0.75333982  1
  O  O213  1  0.49661910  0.63023086  0.23836142  1
  O  O214  1  0.49188103  0.63770540  0.75445550  1
  O  O215  1  0.99262542  0.13234441  0.25261087  1
  O  O216  1  0.99240977  0.12753888  0.75289729  1
  O  O217  1  0.99474011  0.63298597  0.24764115  1
  O  O218  1  0.99754515  0.62557584  0.73790899  1
  O  O219  1  0.37197273  0.24839923  0.00893395  1
  O  O220  1  0.38177095  0.26538463  0.48279466  1
  O  O221  1  0.36897632  0.75478407  0.00351145  1
  O  O222  1  0.36464376  0.74215582  0.50746236  1
  O  O223  1  0.87553986  0.25099746  0.00516207  1
  O  O224  1  0.87744091  0.25471341  0.49628704  1
  O  O225  1  0.87302707  0.75609794  0.00829626  1
  O  O226  1  0.87873073  0.76406716  0.50741229  1
  O  O227  1  0.11664487  0.25181056  0.48420297  1
  O  O228  1  0.13066484  0.24451626  0.98969210  1
  O  O229  1  0.13206446  0.73927135  0.50664649  1
  O  O230  1  0.13141534  0.73501831  1.00545226  1
  O  O231  1  0.64579398  0.25190912  0.48799409  1
  O  O232  1  0.63043778  0.23596414  1.00741490  1
  O  O233  1  0.62026755  0.74579787  0.48481904  1
  O  O234  1  0.63479341  0.75431750  0.99370875  1
  O  O235  1  0.49004214  0.24962650  0.12975554  1
  O  O236  1  0.51909967  0.24112569  0.60933879  1
  O  O237  1  0.49786210  0.74240123  0.12799613  1
  O  O238  1  0.49050277  0.75693490  0.63243908  1
  O  O239  1  0.99979169  0.25659077  0.13794300  1
  O  O240  1  0.99067254  0.24844733  0.62183856  1
  O  O241  1  0.99332607  0.74475874  0.13147047  1
  O  O242  1  0.98822806  0.74152718  0.61893400  1
  O  O243  1  0.01184950  0.25439349  0.36064501  1
  O  O244  1  0.00887805  0.25813519  0.87538600  1
  O  O245  1  -0.00440552  0.75973097  0.36607252  1
  O  O246  1  0.01334613  0.74783390  0.87611465  1
  O  O247  1  0.49997637  0.24534001  0.36053393  1
  O  O248  1  0.50606659  0.25539941  0.87516777  1
  O  O249  1  0.50797227  0.74883696  0.36495210  1
  O  O250  1  0.50718333  0.75073485  0.87064529  1
  O  O251  1  0.24895757  0.12196873  0.49214216  1
  O  O252  1  0.24629310  0.13031932  0.98977121  1
  O  O253  1  0.24187808  0.63380358  0.49170785  1
  O  O254  1  0.24545639  0.62657319  0.99183750  1
  O  O255  1  0.75557215  0.13050595  0.48570432  1
  O  O256  1  0.73786710  0.12459729  1.00181914  1
  O  O257  1  0.74254942  0.62742827  0.48990692  1
  O  O258  1  0.75787439  0.63698639  0.98986008  1
  O  O259  1  0.25417561  0.36889591  0.00462518  1
  O  O260  1  0.24851911  0.38349973  0.51332823  1
  O  O261  1  0.25512657  0.87275411  0.00432547  1
  O  O262  1  0.24426881  0.86317251  0.50483283  1
  O  O263  1  0.75192533  0.37010353  0.00932082  1
  O  O264  1  0.75917233  0.35641424  0.48589073  1
  O  O265  1  0.76123074  0.86078298  0.00135313  1
  O  O266  1  0.76149738  0.88055171  0.50840850  1
  O  O267  1  0.13076639  0.49294882  0.24934257  1
  O  O268  1  0.13456749  0.50005623  0.73984765  1
  O  O269  1  0.14005162  1.00175159  0.25376981  1
  O  O270  1  0.12401263  1.00394375  0.73969234  1
  O  O271  1  0.63053625  0.49352117  0.24242846  1
  O  O272  1  0.62551898  0.49989726  0.73707395  1
  O  O273  1  0.63094861  0.99208328  0.24654137  1
  O  O274  1  0.62368992  0.98130569  0.75364706  1
  O  O275  1  0.36903393  0.00529020  0.25361575  1
  O  O276  1  0.37545161  0.00387589  0.76383097  1
  O  O277  1  0.36973082  0.50973676  0.25264872  1
  O  O278  1  0.37051066  0.50941609  0.74970068  1
  O  O279  1  0.86884635  0.00198549  0.25565500  1
  O  O280  1  0.88017465  0.00377734  0.75843961  1
  O  O281  1  0.87318647  0.50632852  0.25782048  1
  O  O282  1  0.88884984  0.51991628  0.76742711  1
  O  O283  1  0.12531065  0.36945255  0.36668346  1
  O  O284  1  0.11703571  0.36840328  0.87303720  1
  O  O285  1  0.11573784  0.87828154  0.37417064  1
  O  O286  1  0.13063280  0.86612687  0.86855810  1
  O  O287  1  0.63019830  0.38235111  0.36728870  1
  O  O288  1  0.60830194  0.38077742  0.87587375  1
  O  O289  1  0.62634406  0.86698319  0.36425836  1
  O  O290  1  0.62230850  0.86224669  0.87039268  1
  O  O291  1  0.37739894  0.13091148  0.13438881  1
  O  O292  1  0.37141076  0.11371828  0.64249669  1
  O  O293  1  0.38214595  0.63161252  0.12874121  1
  O  O294  1  0.36641052  0.63651269  0.63687945  1
  O  O295  1  0.86715575  0.12221667  0.14114078  1
  O  O296  1  0.86733577  0.12475894  0.63375182  1
  O  O297  1  0.88213777  0.63348697  0.13105798  1
  O  O298  1  0.88065354  0.63189278  0.63173671  1
  O  O299  1  0.26296016  0.25610689  0.12161475  1
  O  O300  1  0.24355209  0.27082172  0.62735628  1
  O  O301  1  0.25645760  0.75791121  0.11663904  1
  O  O302  1  0.25469877  0.75589762  0.61649527  1
  O  O303  1  0.75444792  0.25879414  0.12837798  1
  O  O304  1  0.76769727  0.24048105  0.59878949  1
  O  O305  1  0.76030906  0.74198591  0.11837309  1
  O  O306  1  0.76629644  0.76204126  0.62937599  1
  O  O307  1  0.23357583  0.25042789  0.36623222  1
  O  O308  1  0.24598754  0.24553024  0.87868330  1
  O  O309  1  0.25448544  0.74057755  0.38034656  1
  O  O310  1  0.25555736  0.73753556  0.88201520  1
  O  O311  1  0.76178401  0.23249588  0.37999630  1
  O  O312  1  0.75921598  0.23926459  0.87196311  1
  O  O313  1  0.74219756  0.74039496  0.36733101  1
  O  O314  1  0.74423923  0.74512873  0.88354129  1
  O  O315  1  0.00910850  0.11268508  -0.00143110  1
  O  O316  1  0.00338826  0.11311824  0.49292031  1
  O  O317  1  0.00819107  0.61661655  0.00196392  1
  O  O318  1  0.00619786  0.62347561  0.50716706  1
  O  O319  1  0.51653828  0.11974570  0.00217643  1
  O  O320  1  0.50106320  0.10037078  0.48920141  1
  O  O321  1  0.49621222  0.61998439  0.01228165  1
  O  O322  1  0.51263595  0.62536811  0.49676347  1
  O  O323  1  0.50625747  0.38774948  0.49681913  1
  O  O324  1  0.50171967  0.38454321  0.99943149  1
  O  O325  1  0.49792612  0.88590861  0.49283108  1
  O  O326  1  0.49163190  0.87349874  0.99506357  1
  O  O327  1  0.99226234  0.38616837  0.49438211  1
  O  O328  1  1.00470768  0.38820662  0.99619469  1
  O  O329  1  0.99735352  0.87937121  0.49393113  1
  O  O330  1  0.99448917  0.88781189  1.00554953  1
  O  O331  1  0.48336921  0.51086359  0.37053054  1
  O  O332  1  0.50307962  0.51009120  0.88929775  1
  O  O333  1  0.48781328  0.99239697  0.37698089  1
  O  O334  1  0.49149890  0.98727543  0.88073591  1
  O  O335  1  0.98678459  0.50429680  0.38123354  1
  O  O336  1  0.99962956  0.49614641  0.88141271  1
  O  O337  1  0.99787418  0.99208695  0.38182696  1
  O  O338  1  0.98869800  0.99819968  0.89014342  1
  O  O339  1  -0.00283378  0.00019007  0.11355987  1
  O  O340  1  0.01320493  -0.00481711  0.61850821  1
  O  O341  1  0.00089198  0.50680130  0.11597759  1
  O  O342  1  0.00936262  0.51105735  0.61779374  1
  O  O343  1  0.51484529  -0.00094478  0.12491858  1
  O  O344  1  0.49857237  -0.01058235  0.61244198  1
  O  O345  1  0.50795999  0.50598779  0.11799590  1
  O  O346  1  0.51771187  0.50371720  0.62667367  1
  O  O347  1  0.24014183  0.38048515  0.24260951  1
  O  O348  1  0.25154733  0.38657393  0.74530333  1
  O  O349  1  0.24664109  0.88168422  0.23896734  1
  O  O350  1  0.25303279  0.87601861  0.73845659  1
  O  O351  1  0.74569944  0.38146098  0.24613417  1
  O  O352  1  0.79586708  0.40102409  0.74797638  1
  O  O353  1  0.74561573  0.88795183  0.25705234  1
  O  O354  1  0.74257451  0.87071216  0.74596716  1
  O  O355  1  0.26006969  0.11771720  0.25204743  1
  O  O356  1  0.25876869  0.12166497  0.76275487  1
  O  O357  1  0.25264570  0.62475048  0.25484937  1
  O  O358  1  0.25533793  0.61598922  0.75423108  1
  O  O359  1  0.75526546  0.11412917  0.26007394  1
  O  O360  1  0.75884008  0.11372730  0.75919996  1
  O  O361  1  0.75717602  0.61836954  0.25824281  1
  O  O362  1  0.76045296  0.62493270  0.76468791  1
  O  O363  1  0.37395267  0.10925592  0.36180744  1
  O  O364  1  0.37056892  0.11698900  0.87255902  1
  O  O365  1  0.36662224  0.62051889  0.36525988  1
  O  O366  1  0.36540310  0.62291386  0.86261899  1
  O  O367  1  0.87130462  0.11472211  0.36404977  1
  O  O368  1  0.87947359  0.11475329  0.86442649  1
  O  O369  1  0.86901137  0.62302663  0.37348101  1
  O  O370  1  0.87052545  0.62415780  0.87145844  1
  O  O371  1  0.13467353  0.37693027  0.13101023  1
  O  O372  1  0.12908984  0.38840952  0.62468663  1
  O  O373  1  0.13716439  0.87124501  0.12304624  1
  O  O374  1  0.13302298  0.88765608  0.62240050  1
  O  O375  1  0.63711547  0.38321359  0.13222289  1
  O  O376  1  0.63789292  0.38978160  0.60928230  1
  O  O377  1  0.62658006  0.87877993  0.13825888  1
  O  O378  1  0.63418035  0.86946181  0.63390649  1
  O  O379  1  0.12138005  0.25768980  0.25444072  1
  O  O380  1  0.12520049  0.25057052  0.76153666  1
  O  O381  1  0.11254617  0.75197152  0.24529241  1
  O  O382  1  0.12255746  0.74874352  0.74966336  1
  O  O383  1  0.61824304  0.25987890  0.24501402  1
  O  O384  1  0.65804220  0.23863428  0.75879487  1
  O  O385  1  0.62336312  0.75590222  0.25617616  1
  O  O386  1  0.61933841  0.75511871  0.75692427  1
  O  O387  1  0.38114600  0.24212018  0.24455628  1
  O  O388  1  0.37246141  0.23214987  0.74931143  1
  O  O389  1  0.38065517  0.74565158  0.24195599  1
  O  O390  1  0.38228978  0.74466805  0.74321225  1
  O  O391  1  0.88516473  0.24105686  0.25006168  1
  O  O392  1  0.87356026  0.23759447  0.73245583  1
  O  O393  1  0.88263094  0.74730711  0.24379024  1
  O  O394  1  0.87519497  0.74004845  0.74464019  1
  O  O395  1  0.37542276  0.51268002  0.48259602  1
  O  O396  1  0.38799893  0.49632066  0.99749543  1
  O  O397  1  0.37861037  0.99869834  0.48584393  1
  O  O398  1  0.37655830  0.99565658  0.99020557  1
  O  O399  1  0.87455828  0.49315428  0.49575124  1
  O  O400  1  0.88578425  0.50403558  0.98957923  1
  O  O401  1  0.88888426  0.98636191  0.49428634  1
  O  O402  1  0.88342125  0.99329337  0.99965498  1
  O  O403  1  0.11355965  0.00714724  -0.00152953  1
  O  O404  1  0.11762424  0.00353063  0.51059428  1
  O  O405  1  0.12050709  0.51018599  0.00037066  1
  O  O406  1  0.12182578  0.51220587  0.50490855  1
  O  O407  1  0.62839092  0.00198935  0.00885887  1
  O  O408  1  0.61223864  -0.00876842  0.50407393  1
  O  O409  1  0.62118584  0.49811819  0.01392487  1
  O  O410  1  0.62419521  0.52189094  0.51451948  1
  O  O411  1  0.36987919  0.36718491  0.12613434  1
  O  O412  1  0.36733070  0.38088798  0.62710496  1
  O  O413  1  0.36942954  0.86983266  0.11792263  1
  O  O414  1  0.36374084  0.86194205  0.62663664  1
  O  O415  1  0.86225672  0.37819762  0.12436807  1
  O  O416  1  0.88030805  0.36251128  0.60712708  1
  O  O417  1  0.87876890  0.86237849  0.11830868  1
  O  O418  1  0.87250037  0.87078164  0.61971690  1
  O  O419  1  0.12646598  0.14074432  0.37317458  1
  O  O420  1  0.13352226  0.13138639  0.88072949  1
  O  O421  1  0.13304364  0.62257603  0.38336857  1
  O  O422  1  0.13947666  0.61783870  0.88115357  1
  O  O423  1  0.64092450  0.11888096  0.37093469  1
  O  O424  1  0.63096311  0.11935573  0.88212338  1
  O  O425  1  0.63307813  0.63112899  0.38082781  1
  O  O426  1  0.63437608  0.63695824  0.87127235  1
