# generated using pymatgen
data_V85Zn86O256
_symmetry_space_group_name_H-M   'P 1'
_cell_length_a   16.94081968
_cell_length_b   16.93600870
_cell_length_c   16.94535136
_cell_angle_alpha   89.95641437
_cell_angle_beta   90.00261178
_cell_angle_gamma   90.03426619
_symmetry_Int_Tables_number   1
_chemical_formula_structural   V85Zn86O256
_chemical_formula_sum   'V85 Zn86 O256'
_cell_volume   4861.78626518
_cell_formula_units_Z   1
loop_
 _symmetry_equiv_pos_site_id
 _symmetry_equiv_pos_as_xyz
  1  'x, y, z'
loop_
 _atom_site_type_symbol
 _atom_site_label
 _atom_site_symmetry_multiplicity
 _atom_site_fract_x
 _atom_site_fract_y
 _atom_site_fract_z
 _atom_site_occupancy
  V  V0  1  0.12061344  0.11995546  0.50622116  1
  V  V1  1  0.12321453  0.74539166  0.37422488  1
  V  V2  1  0.61716213  0.24068245  0.37686070  1
  V  V3  1  0.37398489  0.87250112  0.49960010  1
  V  V4  1  0.12257934  0.12621326  -0.01106662  1
  V  V5  1  0.89156447  0.00244513  0.87946113  1
  V  V6  1  -0.00344156  0.24781584  0.74830918  1
  V  V7  1  0.87220213  0.61920644  0.26089232  1
  V  V8  1  0.75783886  -0.00062371  0.75191191  1
  V  V9  1  0.62440407  0.75662144  0.87670860  1
  V  V10  1  0.49774919  0.74559415  0.75698691  1
  V  V11  1  0.37953768  0.13021497  0.24936181  1
  V  V12  1  0.89100767  0.88131309  -0.00053785  1
  V  V13  1  0.74737074  0.23773543  0.50057917  1
  V  V14  1  0.62263186  0.12149980  -0.00546892  1
  V  V15  1  0.24888954  -0.00284305  0.24496706  1
  V  V16  1  0.63062498  0.74730861  0.37292644  1
  V  V17  1  0.12276775  0.50840487  0.61623951  1
  V  V18  1  0.24660883  0.74754753  0.50178790  1
  V  V19  1  0.62517893  0.25160354  0.87466224  1
  V  V20  1  0.12456788  0.50191817  0.12241824  1
  V  V21  1  0.37417346  0.50019331  0.37479086  1
  V  V22  1  0.37506170  0.37511173  -0.00220089  1
  V  V23  1  0.75536561  0.87124083  0.62788793  1
  V  V24  1  0.11736100  0.74937753  0.88421769  1
  V  V25  1  0.87882000  0.37964725  -0.00030930  1
  V  V26  1  0.38083667  0.25194169  0.12612127  1
  V  V27  1  0.24820915  0.87233973  0.11202394  1
  V  V28  1  0.00710785  0.37646359  0.87302436  1
  V  V29  1  0.88452257  0.12788305  0.25434901  1
  V  V30  1  0.50240212  0.87349382  0.37476300  1
  V  V31  1  0.50456672  0.01321178  0.50247555  1
  V  V32  1  0.37379724  -0.00092139  0.37134356  1
  V  V33  1  0.00188993  0.62371843  0.11981425  1
  V  V34  1  0.37033427  0.74807979  0.11661256  1
  V  V35  1  0.24762229  0.51369434  0.74873584  1
  V  V36  1  0.87411064  0.74752278  0.12624632  1
  V  V37  1  0.37645860  0.23854100  0.62513560  1
  V  V38  1  0.62260198  0.37441770  0.74994365  1
  V  V39  1  0.75023313  0.37092531  0.62361973  1
  V  V40  1  0.11648317  0.00211753  0.12112299  1
  V  V41  1  0.75124299  0.87825943  0.12126682  1
  V  V42  1  0.75099115  0.37523222  0.12747247  1
  V  V43  1  0.62559924  0.62440844  0.00162472  1
  V  V44  1  0.75091227  0.62483996  0.87601812  1
  V  V45  1  0.37443086  0.37500106  0.50027733  1
  V  V46  1  0.62016303  0.00078593  0.12185514  1
  V  V47  1  0.75241047  0.49952719  0.75000407  1
  V  V48  1  0.76124962  0.12551014  0.87084363  1
  V  V49  1  0.37184654  0.74905998  0.63508655  1
  V  V50  1  0.75229348  0.25099813  0.00060958  1
  V  V51  1  0.75461385  0.74847624  0.50310264  1
  V  V52  1  -0.00083928  0.87584287  0.37413300  1
  V  V53  1  0.24802956  0.37433946  0.12640303  1
  V  V54  1  0.23885754  0.12959121  0.36929594  1
  V  V55  1  -0.00701049  0.62797585  0.61783864  1
  V  V56  1  0.24883423  0.37852559  0.62649185  1
  V  V57  1  0.37364274  0.50822998  0.86796586  1
  V  V58  1  0.37458440  0.62592075  0.25040707  1
  V  V59  1  0.23921531  0.25315254  0.49612259  1
  V  V60  1  0.62316956  0.49974476  0.62421461  1
  V  V61  1  0.24760152  0.63722526  0.88843360  1
  V  V62  1  0.62624708  0.49924833  0.12673954  1
  V  V63  1  0.24795720  0.24693786  -0.01124137  1
  V  V64  1  0.49940894  0.49960393  0.49962966  1
  V  V65  1  0.12189842  0.35935130  0.25506082  1
  V  V66  1  0.61810762  0.36819645  0.25115967  1
  V  V67  1  0.49485711  0.24002198  0.74652795  1
  V  V68  1  0.13036586  0.37211444  0.75054068  1
  V  V69  1  0.39370590  0.88918258  0.00398418  1
  V  V70  1  -0.00446508  0.75105291  0.74949698  1
  V  V71  1  0.75050594  0.50020600  0.26525732  1
  V  V72  1  0.24409148  0.62330554  0.37747986  1
  V  V73  1  0.45686710  0.93017623  0.82886493  1
  V  V74  1  0.62871177  0.62513975  0.49488772  1
  V  V75  1  0.00060203  -0.00341456  0.50963510  1
  V  V76  1  0.87351389  0.38078748  0.49622440  1
  V  V77  1  0.49685720  0.62678939  0.62769087  1
  V  V78  1  0.88505465  0.25161190  0.13012865  1
  V  V79  1  0.75133225  0.00304615  0.25122791  1
  V  V80  1  -0.00667310  0.36734923  0.37007182  1
  V  V81  1  0.49922247  0.62455272  0.12440409  1
  V  V82  1  0.12738379  0.87697480  0.74459680  1
  V  V83  1  0.49284018  0.37535267  0.87230773  1
  V  V84  1  0.50100683  0.12622939  0.12393188  1
  Zn  Zn85  1  0.74803250  0.11990356  0.38021723  1
  Zn  Zn86  1  0.00230264  0.12740821  0.12363650  1
  Zn  Zn87  1  0.87919741  0.50251086  0.87417666  1
  Zn  Zn88  1  0.87145705  0.63005110  0.74612379  1
  Zn  Zn89  1  0.12467060  0.87274333  0.24718164  1
  Zn  Zn90  1  0.63014022  0.00760909  0.61577306  1
  Zn  Zn91  1  0.49927813  0.50086588  -0.00252472  1
  Zn  Zn92  1  0.62643727  0.87449278  0.24938601  1
  Zn  Zn93  1  0.62665180  0.87424042  0.74782094  1
  Zn  Zn94  1  0.87593790  0.87154534  0.50190567  1
  Zn  Zn95  1  0.75222504  0.75217590  -0.00158974  1
  Zn  Zn96  1  -0.00057011  0.74759896  0.25215738  1
  Zn  Zn97  1  -0.00046329  0.50414228  0.48951885  1
  Zn  Zn98  1  0.01002512  0.50584031  -0.00668418  1
  Zn  Zn99  1  0.23174945  0.89717275  0.61883999  1
  Zn  Zn100  1  0.24654779  0.49802366  0.25158215  1
  Zn  Zn101  1  0.87519315  0.00065366  0.37747525  1
  Zn  Zn102  1  0.50085255  0.75095063  0.24987628  1
  Zn  Zn103  1  -0.00226202  0.11699280  0.63489606  1
  Zn  Zn104  1  0.87477990  0.24295734  0.62626351  1
  Zn  Zn105  1  0.49663855  0.37022154  0.37071348  1
  Zn  Zn106  1  0.29515374  0.04963518  0.82276099  1
  Zn  Zn107  1  0.19089362  0.18603657  0.18003743  1
  Zn  Zn108  1  0.18525817  0.18424719  0.68647423  1
  Zn  Zn109  1  0.18771758  0.68676905  0.18821084  1
  Zn  Zn110  1  0.18208394  0.69117523  0.68898854  1
  Zn  Zn111  1  0.69118680  0.18740577  0.18881380  1
  Zn  Zn112  1  0.68706096  0.18212235  0.68726594  1
  Zn  Zn113  1  0.69114137  0.68666848  0.19032507  1
  Zn  Zn114  1  0.68433748  0.68785509  0.68721724  1
  Zn  Zn115  1  0.31053552  0.31132019  0.31176789  1
  Zn  Zn116  1  0.30942596  0.20993557  0.81155764  1
  Zn  Zn117  1  0.31134062  0.81052126  0.30867377  1
  Zn  Zn118  1  0.28706554  0.85013845  0.83865647  1
  Zn  Zn119  1  0.80818642  0.30962011  0.31462475  1
  Zn  Zn120  1  0.81649846  0.31459373  0.81431328  1
  Zn  Zn121  1  0.81244672  0.81172375  0.31221543  1
  Zn  Zn122  1  0.81656807  0.81502478  0.81702281  1
  Zn  Zn123  1  0.18243409  0.43672217  0.43393620  1
  Zn  Zn124  1  0.19073619  0.43832359  0.93588189  1
  Zn  Zn125  1  0.18472958  0.93672357  0.43482605  1
  Zn  Zn126  1  0.17352805  0.93642178  0.93777590  1
  Zn  Zn127  1  0.68364070  0.43020843  0.43854476  1
  Zn  Zn128  1  0.68727895  0.43794579  0.93836489  1
  Zn  Zn129  1  0.68652803  0.93540946  0.43903140  1
  Zn  Zn130  1  0.69162305  0.94223265  0.93594190  1
  Zn  Zn131  1  0.30946348  0.06403640  0.05664535  1
  Zn  Zn132  1  0.30749165  0.06591893  0.55199395  1
  Zn  Zn133  1  0.31084152  0.55957978  0.05934647  1
  Zn  Zn134  1  0.31180903  0.56578941  0.56180003  1
  Zn  Zn135  1  0.81410216  0.06467657  0.06179248  1
  Zn  Zn136  1  0.82182924  0.06018602  0.56839655  1
  Zn  Zn137  1  0.81206040  0.56100500  0.06541530  1
  Zn  Zn138  1  0.81199756  0.56199352  0.56108262  1
  Zn  Zn139  1  0.43774373  0.43970564  0.18763018  1
  Zn  Zn140  1  0.43309706  0.43589191  0.68900580  1
  Zn  Zn141  1  0.43819684  0.93770889  0.18634101  1
  Zn  Zn142  1  0.39473139  0.97091498  0.65837758  1
  Zn  Zn143  1  0.94037517  0.43890561  0.19082887  1
  Zn  Zn144  1  0.93751798  0.43793789  0.68461988  1
  Zn  Zn145  1  0.93742124  0.93701245  0.19139103  1
  Zn  Zn146  1  0.93528910  0.93300528  0.68994743  1
  Zn  Zn147  1  0.06205881  0.06014825  0.31337292  1
  Zn  Zn148  1  0.07320549  0.06285522  0.81155278  1
  Zn  Zn149  1  0.05986505  0.55517429  0.30794603  1
  Zn  Zn150  1  0.06417644  0.56603276  0.80783155  1
  Zn  Zn151  1  0.56145357  0.06041812  0.31032630  1
  Zn  Zn152  1  0.57754496  0.07231219  0.78266220  1
  Zn  Zn153  1  0.56190635  0.56023981  0.31290900  1
  Zn  Zn154  1  0.56403083  0.56492991  0.81216337  1
  Zn  Zn155  1  0.43181076  0.18883187  0.43460735  1
  Zn  Zn156  1  0.43882295  0.17767745  0.93289954  1
  Zn  Zn157  1  0.43878086  0.68844426  0.43771437  1
  Zn  Zn158  1  0.43382267  0.68831634  0.93835535  1
  Zn  Zn159  1  0.93593615  0.19001657  0.43968227  1
  Zn  Zn160  1  0.94366939  0.19405025  0.93558479  1
  Zn  Zn161  1  0.93749745  0.68678507  0.43797733  1
  Zn  Zn162  1  0.93525064  0.68952996  0.93838568  1
  Zn  Zn163  1  0.06508015  0.31324826  0.05997884  1
  Zn  Zn164  1  0.06068255  0.31668309  0.56251520  1
  Zn  Zn165  1  0.06227525  0.80948669  0.06682169  1
  Zn  Zn166  1  0.06120783  0.80736276  0.56139086  1
  Zn  Zn167  1  0.56215088  0.31239807  0.06017544  1
  Zn  Zn168  1  0.56073078  0.30819154  0.55980069  1
  Zn  Zn169  1  0.56485664  0.80802840  0.06611380  1
  Zn  Zn170  1  0.56591962  0.81788633  0.56539948  1
  O  O171  1  0.12397835  0.11743409  0.11834562  1
  O  O172  1  0.11847713  0.12863407  0.60998444  1
  O  O173  1  0.11551737  0.61601211  0.13271164  1
  O  O174  1  0.11089626  0.61809420  0.62907449  1
  O  O175  1  0.62245173  0.12031058  0.11853602  1
  O  O176  1  0.61089263  0.10333031  0.67162814  1
  O  O177  1  0.62119685  0.62105890  0.12117169  1
  O  O178  1  0.61430476  0.61952234  0.61803720  1
  O  O179  1  0.37461284  0.37819198  0.38448229  1
  O  O180  1  0.38689858  0.38518621  0.87763448  1
  O  O181  1  0.37973213  0.87561017  0.38143799  1
  O  O182  1  0.39320850  0.86817032  0.89222659  1
  O  O183  1  0.88450322  0.37125124  0.37841884  1
  O  O184  1  0.88306830  0.37978531  0.88437609  1
  O  O185  1  0.88837153  0.87191668  0.37614111  1
  O  O186  1  0.87313808  0.88291410  0.89352342  1
  O  O187  1  0.25424020  0.00586994  0.36536327  1
  O  O188  1  0.25623299  -0.04276308  0.86829413  1
  O  O189  1  0.25425096  0.50760654  0.37429328  1
  O  O190  1  0.25440837  0.51139773  0.86862154  1
  O  O191  1  0.75058472  -0.00041738  0.36601680  1
  O  O192  1  0.76528437  0.01005532  0.87663135  1
  O  O193  1  0.74309478  0.49531975  0.36447572  1
  O  O194  1  0.74880500  0.50652378  0.86633243  1
  O  O195  1  0.24729656  0.48803038  0.12649917  1
  O  O196  1  0.24349077  0.50255707  0.63012161  1
  O  O197  1  0.24368087  0.99334562  0.12933707  1
  O  O198  1  0.28644050  0.99299401  0.63069135  1
  O  O199  1  0.74274358  0.49259781  0.13203593  1
  O  O200  1  0.74294123  0.49246007  0.63112668  1
  O  O201  1  0.74329122  0.99551163  0.13027646  1
  O  O202  1  0.75149559  0.99419698  0.63608652  1
  O  O203  1  0.00931442  0.37323714  0.25822512  1
  O  O204  1  0.00768313  0.37352816  0.75500819  1
  O  O205  1  0.00320325  0.87017050  0.25847662  1
  O  O206  1  0.00583810  0.85673131  0.74302430  1
  O  O207  1  0.51392967  0.37884850  0.24975889  1
  O  O208  1  0.50418140  0.37162819  0.75624146  1
  O  O209  1  0.49957126  0.87457935  0.26271858  1
  O  O210  1  0.50492376  0.86631082  0.76013517  1
  O  O211  1  0.48606829  0.12032819  0.24351873  1
  O  O212  1  0.48674432  0.14315931  0.76574521  1
  O  O213  1  0.48772311  0.62331754  0.24484032  1
  O  O214  1  0.50396721  0.63295045  0.73961589  1
  O  O215  1  0.98812760  0.12178788  0.24830270  1
  O  O216  1  1.01574482  0.14532380  0.75224856  1
  O  O217  1  0.98705374  0.62238154  0.24009574  1
  O  O218  1  0.99556560  0.63248128  0.74011765  1
  O  O219  1  0.36538221  0.25605666  0.00752385  1
  O  O220  1  0.36851271  0.25791306  0.50643709  1
  O  O221  1  0.37983015  0.75883016  0.01310151  1
  O  O222  1  0.36548145  0.75496483  0.50140194  1
  O  O223  1  0.87241940  0.26225971  0.00681811  1
  O  O224  1  0.86304755  0.26102212  0.50141892  1
  O  O225  1  0.87368977  0.76200411  0.00789810  1
  O  O226  1  0.85787323  0.74693316  0.49469222  1
  O  O227  1  0.13541082  0.24668127  0.50313168  1
  O  O228  1  0.13951561  0.24241100  1.00721606  1
  O  O229  1  0.13821971  0.75252429  0.48931124  1
  O  O230  1  0.11584004  0.75168681  0.98384448  1
  O  O231  1  0.63096709  0.25269619  0.48683255  1
  O  O232  1  0.63252345  0.24612015  0.99318345  1
  O  O233  1  0.62953668  0.74236883  0.49350662  1
  O  O234  1  0.62792097  0.74040741  0.99564504  1
  O  O235  1  0.48762685  0.24602108  0.12031428  1
  O  O236  1  0.48608798  0.25635011  0.63053789  1
  O  O237  1  0.49258000  0.74123724  0.12975754  1
  O  O238  1  0.49763230  0.74409376  0.63234714  1
  O  O239  1  0.98768722  0.25386103  0.12446329  1
  O  O240  1  0.99884549  0.25685882  0.63960190  1
  O  O241  1  0.99033009  0.74343777  0.12991619  1
  O  O242  1  1.00134840  0.73576145  0.63237350  1
  O  O243  1  0.00279610  0.26725346  0.38208575  1
  O  O244  1  0.00028394  0.26624828  0.86306812  1
  O  O245  1  0.00881198  0.75329656  0.37601442  1
  O  O246  1  0.00968201  0.73738007  0.86425017  1
  O  O247  1  0.51223031  0.25083570  0.37905338  1
  O  O248  1  0.50307178  0.26073028  0.86986530  1
  O  O249  1  0.50977786  0.75627861  0.37392316  1
  O  O250  1  0.50840009  0.73742063  0.86481940  1
  O  O251  1  0.24119932  0.13244179  0.48917150  1
  O  O252  1  0.24082988  0.14030830  1.00594456  1
  O  O253  1  0.25550259  0.63259646  0.48511947  1
  O  O254  1  0.24931668  0.62557930  0.98693006  1
  O  O255  1  0.75158287  0.13449578  0.50333390  1
  O  O256  1  0.74232472  0.13217746  0.99429367  1
  O  O257  1  0.73603746  0.63015829  0.50705735  1
  O  O258  1  0.74454336  0.62556994  0.99327360  1
  O  O259  1  0.25442177  0.36850854  0.00901872  1
  O  O260  1  0.25428875  0.36947547  0.50221687  1
  O  O261  1  0.25995892  0.87560357  0.01095282  1
  O  O262  1  0.25647074  0.86782156  0.50062957  1
  O  O263  1  0.75806424  0.37101798  0.00486662  1
  O  O264  1  0.75228816  0.36665328  0.50763872  1
  O  O265  1  0.75627045  0.87566538  0.01296136  1
  O  O266  1  0.74931382  0.86581423  0.50727226  1
  O  O267  1  0.12767840  0.48779647  0.23771866  1
  O  O268  1  0.13067158  0.49626349  0.73921623  1
  O  O269  1  0.13615599  1.00031229  0.24251259  1
  O  O270  1  0.11836214  0.97651888  0.75405842  1
  O  O271  1  0.63140683  0.49389035  0.24520989  1
  O  O272  1  0.63378652  0.49474324  0.74505228  1
  O  O273  1  0.63369345  0.99869904  0.24133580  1
  O  O274  1  0.65340370  0.98587223  0.77250206  1
  O  O275  1  0.36541194  0.00660531  0.25073929  1
  O  O276  1  0.39378641  -0.01359293  0.77150152  1
  O  O277  1  0.37119197  0.50700134  0.25628326  1
  O  O278  1  0.36534463  0.49778180  0.76094332  1
  O  O279  1  0.86860749  0.00850090  0.25194186  1
  O  O280  1  0.86798609  -0.00948905  0.76510279  1
  O  O281  1  0.86605361  0.51064083  0.24498649  1
  O  O282  1  0.86092409  0.49896566  0.75052852  1
  O  O283  1  0.12144822  0.37191589  0.36007316  1
  O  O284  1  0.11830930  0.38449609  0.86418263  1
  O  O285  1  0.11551244  0.86565593  0.37279624  1
  O  O286  1  0.12183046  0.85571184  0.86441245  1
  O  O287  1  0.62128777  0.36295911  0.36730693  1
  O  O288  1  0.61495965  0.37198303  0.87164776  1
  O  O289  1  0.61731760  0.86724747  0.37253425  1
  O  O290  1  0.63255520  0.85826691  0.88232635  1
  O  O291  1  0.37821587  0.13264816  0.12889781  1
  O  O292  1  0.37530512  0.14070211  0.61580063  1
  O  O293  1  0.37553621  0.62963503  0.12972552  1
  O  O294  1  0.38904415  0.63398084  0.61606785  1
  O  O295  1  0.87845372  0.13456402  0.12977593  1
  O  O296  1  0.88609862  0.13058489  0.62478595  1
  O  O297  1  0.87791233  0.63328840  0.13037570  1
  O  O298  1  0.88807385  0.61873675  0.62763197  1
  O  O299  1  0.25993708  0.26066755  0.11934048  1
  O  O300  1  0.25964965  0.25640762  0.61552213  1
  O  O301  1  0.25800202  0.75929602  0.13116011  1
  O  O302  1  0.25839197  0.74028451  0.61464459  1
  O  O303  1  0.75759202  0.25676263  0.11865678  1
  O  O304  1  0.74591589  0.25565235  0.62020478  1
  O  O305  1  0.75991387  0.75816473  0.12506153  1
  O  O306  1  0.74102278  0.75709817  0.61574220  1
  O  O307  1  0.25573381  0.24070129  0.38422434  1
  O  O308  1  0.24937220  0.26890164  0.89242447  1
  O  O309  1  0.24411206  0.74353546  0.37963164  1
  O  O310  1  0.23946383  0.74229026  0.87349017  1
  O  O311  1  0.73859592  0.24702241  0.38507498  1
  O  O312  1  0.74841588  0.24535946  0.87984887  1
  O  O313  1  0.73667583  0.75594263  0.38236584  1
  O  O314  1  0.74364835  0.74085719  0.87584150  1
  O  O315  1  0.01862254  0.13782158  0.00350714  1
  O  O316  1  0.00760580  0.11510373  0.49459723  1
  O  O317  1  -0.00872941  0.62262690  0.01494479  1
  O  O318  1  -0.00330734  0.62254406  0.51205041  1
  O  O319  1  0.51611706  0.13173615  0.00525237  1
  O  O320  1  0.49419183  0.11140263  0.49215400  1
  O  O321  1  0.50625310  0.62313584  0.00654298  1
  O  O322  1  0.50898902  0.62037508  0.50559954  1
  O  O323  1  0.49031653  0.38144090  0.49909527  1
  O  O324  1  0.49378317  0.37787956  0.99120822  1
  O  O325  1  0.49385611  0.87601336  0.48784136  1
  O  O326  1  0.49239149  0.87865838  1.01234544  1
  O  O327  1  0.99022393  0.37730119  0.49181256  1
  O  O328  1  0.99561310  0.37657721  0.99118954  1
  O  O329  1  0.99982959  0.87880846  0.49372372  1
  O  O330  1  0.98930320  0.87621101  1.00627311  1
  O  O331  1  0.49219978  0.49665012  0.38190090  1
  O  O332  1  0.49180827  0.49744046  0.87282261  1
  O  O333  1  0.49459859  0.99209577  0.37942112  1
  O  O334  1  0.52020989  0.99517249  0.86696421  1
  O  O335  1  1.00935773  0.47991565  0.37713150  1
  O  O336  1  0.99913181  0.49397928  0.87498553  1
  O  O337  1  1.00046436  0.98924268  0.38201779  1
  O  O338  1  0.99070460  1.00888000  0.87290744  1
  O  O339  1  0.01397284  0.00000612  0.13027742  1
  O  O340  1  -0.00226803  -0.00363180  0.61358378  1
  O  O341  1  0.00785644  0.50597247  0.12310755  1
  O  O342  1  0.00602715  0.51008066  0.62280936  1
  O  O343  1  0.51398372  0.00677136  0.13042186  1
  O  O344  1  0.49367630  -0.00493867  0.60353052  1
  O  O345  1  0.50709328  0.50681651  0.12264594  1
  O  O346  1  0.50264357  0.50664251  0.62132411  1
  O  O347  1  0.23987131  0.37458368  0.24421953  1
  O  O348  1  0.24112917  0.39156580  0.74063696  1
  O  O349  1  0.25066047  0.88447081  0.24149092  1
  O  O350  1  0.23048551  0.85598055  0.73744868  1
  O  O351  1  0.74123336  0.38152939  0.24643078  1
  O  O352  1  0.74431539  0.37919191  0.74409507  1
  O  O353  1  0.75347313  0.88561623  0.23872156  1
  O  O354  1  0.75255641  0.87613387  0.74363470  1
  O  O355  1  0.25716698  0.11926607  0.25262800  1
  O  O356  1  0.24807197  0.13101601  0.75777060  1
  O  O357  1  0.26030357  0.62367813  0.25889022  1
  O  O358  1  0.24631319  0.61690615  0.75558244  1
  O  O359  1  0.75872107  0.11279488  0.24802217  1
  O  O360  1  0.75551265  0.11916564  0.76508819  1
  O  O361  1  0.76253485  0.61510511  0.24667218  1
  O  O362  1  0.74920991  0.61736263  0.75582304  1
  O  O363  1  0.36506317  0.12106231  0.36534054  1
  O  O364  1  0.35574646  0.13139038  0.88134600  1
  O  O365  1  0.37001364  0.62235976  0.36710496  1
  O  O366  1  0.36096506  0.62115527  0.87667840  1
  O  O367  1  0.86988803  0.12554375  0.36719441  1
  O  O368  1  0.87003501  0.11895227  0.88886594  1
  O  O369  1  0.87897851  0.62530051  0.35946973  1
  O  O370  1  0.86168625  0.62225820  0.87517177  1
  O  O371  1  0.13135084  0.37733848  0.13366011  1
  O  O372  1  0.13037071  0.38565583  0.62970482  1
  O  O373  1  0.13263258  0.88094163  0.12450393  1
  O  O374  1  0.12227869  0.86755217  0.63643769  1
  O  O375  1  0.63004305  0.37706269  0.13176148  1
  O  O376  1  0.63251753  0.37913359  0.62771530  1
  O  O377  1  0.63336270  0.88212504  0.12642392  1
  O  O378  1  0.63630039  0.88481758  0.62785866  1
  O  O379  1  0.12799411  0.26104682  0.24267202  1
  O  O380  1  0.11872826  0.26809930  0.74223567  1
  O  O381  1  0.12456000  0.75137315  0.26224386  1
  O  O382  1  0.11151790  0.75138972  0.75757446  1
  O  O383  1  0.63209202  0.25703542  0.26232365  1
  O  O384  1  0.61582572  0.25760822  0.75586829  1
  O  O385  1  0.62397292  0.75155643  0.25800467  1
  O  O386  1  0.61566990  0.75167848  0.75858177  1
  O  O387  1  0.36993479  0.24188025  0.24001590  1
  O  O388  1  0.37967172  0.26010456  0.73194113  1
  O  O389  1  0.37714441  0.74118128  0.24102442  1
  O  O390  1  0.38431858  0.75586559  0.73672226  1
  O  O391  1  0.86514130  0.24042200  0.24109249  1
  O  O392  1  0.89253202  0.25783893  0.74951619  1
  O  O393  1  0.87333212  0.73782404  0.24339164  1
  O  O394  1  0.89028866  0.74837892  0.75884535  1
  O  O395  1  0.37783528  0.49379560  0.49468553  1
  O  O396  1  0.37410330  0.49341081  0.98669285  1
  O  O397  1  0.38198283  0.99119688  0.48699743  1
  O  O398  1  0.37957014  0.98837908  1.00796639  1
  O  O399  1  0.87170414  0.48486344  0.50119554  1
  O  O400  1  0.87640608  0.48773018  1.00174765  1
  O  O401  1  0.88531648  0.99454180  0.49502806  1
  O  O402  1  0.87506082  0.98870651  0.99865866  1
  O  O403  1  0.13058603  0.01550796  0.00741632  1
  O  O404  1  0.11776102  0.00879356  0.49547744  1
  O  O405  1  0.12676472  0.49166338  0.01647778  1
  O  O406  1  0.12461869  0.49612737  0.51297633  1
  O  O407  1  0.63363837  0.01081107  0.00927344  1
  O  O408  1  0.60979890  0.00069191  0.49755020  1
  O  O409  1  0.62420512  0.50713680  0.00757667  1
  O  O410  1  0.62017822  0.50554108  0.50407678  1
  O  O411  1  0.36922602  0.37030665  0.12220842  1
  O  O412  1  0.36770744  0.37524791  0.61237420  1
  O  O413  1  0.37129602  0.86891606  0.11837157  1
  O  O414  1  0.38182249  0.86101743  0.60684326  1
  O  O415  1  0.87139916  0.37057112  0.12162729  1
  O  O416  1  0.86216003  0.37205470  0.61908265  1
  O  O417  1  0.87111813  0.86987068  0.11909538  1
  O  O418  1  0.86066926  0.87514347  0.62131274  1
  O  O419  1  0.13553854  0.12302981  0.37902196  1
  O  O420  1  0.12951379  0.12438904  0.88995174  1
  O  O421  1  0.13349181  0.62994288  0.36726316  1
  O  O422  1  0.13747935  0.63459697  0.87096596  1
  O  O423  1  0.62739828  0.13739504  0.36690933  1
  O  O424  1  0.63532334  0.13333566  0.87988770  1
  O  O425  1  0.61888283  0.63263388  0.38401716  1
  O  O426  1  0.63451384  0.63031942  0.88098990  1
