# generated using pymatgen
data_V85Zn86O256
_symmetry_space_group_name_H-M   'P 1'
_cell_length_a   16.95619223
_cell_length_b   16.95501088
_cell_length_c   16.94869459
_cell_angle_alpha   90.01774328
_cell_angle_beta   89.95601064
_cell_angle_gamma   89.92718600
_symmetry_Int_Tables_number   1
_chemical_formula_structural   V85Zn86O256
_chemical_formula_sum   'V85 Zn86 O256'
_cell_volume   4872.61567897
_cell_formula_units_Z   1
loop_
 _symmetry_equiv_pos_site_id
 _symmetry_equiv_pos_as_xyz
  1  'x, y, z'
loop_
 _atom_site_type_symbol
 _atom_site_label
 _atom_site_symmetry_multiplicity
 _atom_site_fract_x
 _atom_site_fract_y
 _atom_site_fract_z
 _atom_site_occupancy
  V  V0  1  0.38174069  0.75042454  0.13340120  1
  V  V1  1  0.87088361  0.50222202  0.35612738  1
  V  V2  1  0.62499569  -0.00852847  0.62853465  1
  V  V3  1  0.24909058  0.24364318  0.49043438  1
  V  V4  1  0.50054412  0.86126846  0.36894543  1
  V  V5  1  0.25231032  0.12788336  0.87291541  1
  V  V6  1  0.48797840  0.13046242  0.13712610  1
  V  V7  1  0.00018490  0.00029687  0.00079175  1
  V  V8  1  0.24944001  0.73974975  0.49386938  1
  V  V9  1  0.87685468  0.37005056  0.00448643  1
  V  V10  1  0.25311090  0.62642212  0.87584407  1
  V  V11  1  -0.00195325  0.75272070  0.24570987  1
  V  V12  1  0.74932459  0.63230071  0.35985818  1
  V  V13  1  0.12694710  0.75021735  0.87312223  1
  V  V14  1  0.51624370  0.49641267  0.50549923  1
  V  V15  1  0.37738434  0.62433653  0.75125409  1
  V  V16  1  0.12434137  0.37474892  0.75183884  1
  V  V17  1  0.63310025  0.37637818  0.25183536  1
  V  V18  1  0.25375036  0.00403305  0.74678061  1
  V  V19  1  0.12681883  0.87521117  0.74690633  1
  V  V20  1  0.12558103  0.62667766  0.00219316  1
  V  V21  1  0.11399874  0.62560994  0.50039276  1
  V  V22  1  0.37277739  0.01120959  0.37016687  1
  V  V23  1  0.74775804  0.87210564  0.11702923  1
  V  V24  1  0.50214282  0.87338768  0.87170228  1
  V  V25  1  0.73775255  0.37706791  0.62805159  1
  V  V26  1  0.12604529  0.25069466  0.87992501  1
  V  V27  1  0.50032788  0.37192565  0.37962772  1
  V  V28  1  0.74622678  -0.00132174  0.75564571  1
  V  V29  1  -0.00288376  0.62536660  0.13072229  1
  V  V30  1  0.24690010  0.87455505  0.13697896  1
  V  V31  1  0.00448259  0.74427002  0.73986517  1
  V  V32  1  0.49676515  0.00532888  0.00187299  1
  V  V33  1  0.87162585  0.50221691  0.87398117  1
  V  V34  1  0.74898203  0.25006141  0.50165882  1
  V  V35  1  0.62278317  0.24939970  0.37084633  1
  V  V36  1  0.12813895  0.74426413  0.36505502  1
  V  V37  1  0.44481231  0.30825978  0.19711797  1
  V  V38  1  0.36432451  0.50706456  0.38647427  1
  V  V39  1  0.62656613  0.12836138  -0.00351607  1
  V  V40  1  0.75393747  0.24608600  -0.00475111  1
  V  V41  1  0.62281781  0.00482492  0.13137623  1
  V  V42  1  0.74781950  0.12216581  0.37248514  1
  V  V43  1  0.86834838  0.12460777  0.75498419  1
  V  V44  1  0.00360998  0.87364155  0.36777121  1
  V  V45  1  0.87217279  0.24976460  0.62508194  1
  V  V46  1  0.87907235  0.62091740  0.74366901  1
  V  V47  1  0.37762676  0.37276297  0.50963429  1
  V  V48  1  0.88064770  0.37930590  0.49794170  1
  V  V49  1  0.50798413  0.61794813  0.62616210  1
  V  V50  1  0.50328386  0.49767242  0.00050786  1
  V  V51  1  0.50614708  0.75249261  0.75180078  1
  V  V52  1  0.62241364  0.12095005  0.50188468  1
  V  V53  1  0.50109166  0.24095438  0.74995432  1
  V  V54  1  0.37553435  0.74776031  0.62410885  1
  V  V55  1  0.11528274  0.50336672  0.62430755  1
  V  V56  1  0.37365297  0.87318326  0.49425039  1
  V  V57  1  0.63149821  0.63869663  -0.00661276  1
  V  V58  1  0.63582074  0.63918284  0.49809835  1
  V  V59  1  0.87433429  0.13011678  0.24175034  1
  V  V60  1  -0.00191732  -0.00319432  0.49749810  1
  V  V61  1  0.87142555  -0.00518815  0.37346117  1
  V  V62  1  0.63312405  0.50143492  0.12557191  1
  V  V63  1  0.24953281  0.37180820  0.62733569  1
  V  V64  1  0.24734457  0.01714912  0.25474120  1
  V  V65  1  0.75384557  0.37005679  0.12878824  1
  V  V66  1  0.24996891  0.87350551  0.62117686  1
  V  V67  1  0.12422133  -0.00052253  0.62185595  1
  V  V68  1  0.00003499  0.37447232  0.87522793  1
  V  V69  1  0.74891625  0.86844381  0.62127401  1
  V  V70  1  0.62073548  0.85791503  0.25088354  1
  V  V71  1  0.73823506  0.49779227  0.74801823  1
  V  V72  1  0.37571399  0.49048415  0.87989447  1
  V  V73  1  -0.00144495  0.12511247  0.62245829  1
  V  V74  1  0.49939854  -0.00401802  0.49673017  1
  V  V75  1  0.00211179  0.87901439  0.87301880  1
  V  V76  1  0.37188995  0.87547466  0.00069584  1
  V  V77  1  0.12303469  -0.00068422  0.13080188  1
  V  V78  1  0.25076636  0.49964322  0.75092475  1
  V  V79  1  0.37441564  0.00601410  0.87114344  1
  V  V80  1  -0.00034441  0.50219899  -0.00113794  1
  V  V81  1  0.87202907  0.74832840  0.11669058  1
  V  V82  1  0.26453305  0.26075903  0.00982942  1
  V  V83  1  0.51558484  0.37556713  0.86878317  1
  V  V84  1  0.87442532  0.74584818  0.61611837  1
  Zn  Zn85  1  -0.00388942  0.26150309  0.24309372  1
  Zn  Zn86  1  0.86840356  0.86466795  0.49272542  1
  Zn  Zn87  1  0.12661576  0.12577822  0.00226849  1
  Zn  Zn88  1  0.49471767  0.11674126  0.63263567  1
  Zn  Zn89  1  0.75162454  0.64814465  0.87627764  1
  Zn  Zn90  1  0.87119733  0.00510050  0.87684450  1
  Zn  Zn91  1  -0.00220662  0.49958288  0.49515009  1
  Zn  Zn92  1  0.37637261  0.63621261  0.26821307  1
  Zn  Zn93  1  0.25026010  0.75379096  0.00137563  1
  Zn  Zn94  1  0.13235515  0.12128235  0.49420870  1
  Zn  Zn95  1  0.12037121  0.37862351  0.25237002  1
  Zn  Zn96  1  -0.00122798  0.24798690  0.75078888  1
  Zn  Zn97  1  0.63409027  0.24751087  0.86723933  1
  Zn  Zn98  1  -0.00298954  0.12865287  0.12348839  1
  Zn  Zn99  1  0.67037418  0.81439868  0.81162760  1
  Zn  Zn100  1  0.13421266  0.49125735  0.12401848  1
  Zn  Zn101  1  0.50817668  0.63573105  0.13066161  1
  Zn  Zn102  1  0.10337286  0.25052725  0.36999960  1
  Zn  Zn103  1  0.86812543  0.87405877  -0.00611175  1
  Zn  Zn104  1  0.36921243  0.23309832  0.63637270  1
  Zn  Zn105  1  0.24697196  0.50727061  0.23913047  1
  Zn  Zn106  1  0.74682409  -0.00431620  0.24971859  1
  Zn  Zn107  1  0.18294509  0.19300654  0.18598744  1
  Zn  Zn108  1  0.18470204  0.18663842  0.68902728  1
  Zn  Zn109  1  0.19380753  0.67883033  0.18948798  1
  Zn  Zn110  1  0.18914298  0.68442437  0.68383708  1
  Zn  Zn111  1  0.68708218  0.19091443  0.18560345  1
  Zn  Zn112  1  0.68303962  0.18507479  0.68828304  1
  Zn  Zn113  1  0.69046425  0.68703377  0.18153854  1
  Zn  Zn114  1  0.69163328  0.67978648  0.68383888  1
  Zn  Zn115  1  0.30304294  0.32592844  0.31502461  1
  Zn  Zn116  1  0.31673957  0.31176867  0.81623987  1
  Zn  Zn117  1  0.31082055  0.81488950  0.31254205  1
  Zn  Zn118  1  0.31599946  0.81407074  0.81146135  1
  Zn  Zn119  1  0.81883612  0.31237106  0.31665796  1
  Zn  Zn120  1  0.81226415  0.31438402  0.81312267  1
  Zn  Zn121  1  0.81178244  0.80788481  0.30387374  1
  Zn  Zn122  1  0.82855994  0.81645599  0.80264891  1
  Zn  Zn123  1  0.18325587  0.43055491  0.43588848  1
  Zn  Zn124  1  0.18952066  0.43716618  0.94594773  1
  Zn  Zn125  1  0.18559849  0.93405375  0.43175165  1
  Zn  Zn126  1  0.18692011  0.93969461  0.94009340  1
  Zn  Zn127  1  0.69532523  0.43997257  0.43606279  1
  Zn  Zn128  1  0.69127370  0.44066379  0.94033438  1
  Zn  Zn129  1  0.68589284  0.93016090  0.43684401  1
  Zn  Zn130  1  0.68402751  0.94357081  0.94148363  1
  Zn  Zn131  1  0.30801303  0.06683200  0.06278729  1
  Zn  Zn132  1  0.31703975  0.06137567  0.56161250  1
  Zn  Zn133  1  0.31618664  0.56503551  0.06184125  1
  Zn  Zn134  1  0.31287155  0.55915613  0.56248358  1
  Zn  Zn135  1  0.80861473  0.05678205  0.05954343  1
  Zn  Zn136  1  0.81097503  0.05861481  0.56315920  1
  Zn  Zn137  1  0.81109485  0.56327236  0.06246473  1
  Zn  Zn138  1  0.80930341  0.56093076  0.56401750  1
  Zn  Zn139  1  0.44981269  0.48124317  0.20343706  1
  Zn  Zn140  1  0.44119884  0.43574924  0.69254385  1
  Zn  Zn141  1  0.43526599  0.94060514  0.18987314  1
  Zn  Zn142  1  0.43626562  0.93698581  0.68615645  1
  Zn  Zn143  1  0.94426574  0.43700488  0.18303627  1
  Zn  Zn144  1  0.93453233  0.43305293  0.68593864  1
  Zn  Zn145  1  0.93389735  0.93775760  0.18808372  1
  Zn  Zn146  1  0.93426060  0.93624171  0.68594252  1
  Zn  Zn147  1  0.06326957  0.07059547  0.31400737  1
  Zn  Zn148  1  0.06394239  0.06499511  0.81000221  1
  Zn  Zn149  1  0.05842918  0.55796325  0.31348645  1
  Zn  Zn150  1  0.06268578  0.56281941  0.81312243  1
  Zn  Zn151  1  0.55786786  0.05914227  0.31299069  1
  Zn  Zn152  1  0.56476357  0.06033693  0.81439408  1
  Zn  Zn153  1  0.56428443  0.56281627  0.31502946  1
  Zn  Zn154  1  0.56409165  0.56749458  0.81777359  1
  Zn  Zn155  1  0.43519603  0.18995083  0.44232445  1
  Zn  Zn156  1  0.44074992  0.18943855  0.93728635  1
  Zn  Zn157  1  0.44486799  0.68612225  0.44459442  1
  Zn  Zn158  1  0.44192290  0.68641887  0.94064054  1
  Zn  Zn159  1  0.93655289  0.18508077  0.43524346  1
  Zn  Zn160  1  0.93925277  0.18741355  0.93945859  1
  Zn  Zn161  1  0.93541722  0.68077082  0.42987691  1
  Zn  Zn162  1  0.93785967  0.69009803  0.93407409  1
  Zn  Zn163  1  0.06175263  0.30711799  0.07336402  1
  Zn  Zn164  1  0.06345268  0.31152910  0.56122882  1
  Zn  Zn165  1  0.06438992  0.81543182  0.06171691  1
  Zn  Zn166  1  0.06095147  0.81333316  0.55574515  1
  Zn  Zn167  1  0.56515114  0.31555484  0.05660281  1
  Zn  Zn168  1  0.56296578  0.30588805  0.56706275  1
  Zn  Zn169  1  0.56021077  0.81804129  0.06132713  1
  Zn  Zn170  1  0.56115678  0.81145081  0.56310595  1
  O  O171  1  0.12275692  0.11006334  0.12206495  1
  O  O172  1  0.11522690  0.11861406  0.62137436  1
  O  O173  1  0.11649767  0.63192012  0.11010184  1
  O  O174  1  0.13047131  0.61361080  0.61628374  1
  O  O175  1  0.61717248  0.12080736  0.11915838  1
  O  O176  1  0.62110852  0.11197558  0.61625803  1
  O  O177  1  0.62615335  0.61718137  0.11651269  1
  O  O178  1  0.61907518  0.62640124  0.61196139  1
  O  O179  1  0.38334789  0.37996626  0.39521325  1
  O  O180  1  0.38584100  0.38820318  0.87226813  1
  O  O181  1  0.38198056  0.87999679  0.37842251  1
  O  O182  1  0.38043920  0.88466940  0.88213586  1
  O  O183  1  0.86382875  0.39056706  0.38777483  1
  O  O184  1  0.88119757  0.38302074  0.88170918  1
  O  O185  1  0.87812010  0.87911180  0.37298881  1
  O  O186  1  0.89277771  0.88123207  0.87236916  1
  O  O187  1  0.25528229  -0.00449826  0.36208821  1
  O  O188  1  0.25531797  0.00605205  0.86909617  1
  O  O189  1  0.26651575  0.50375855  0.40437259  1
  O  O190  1  0.25927491  0.50493831  0.87358190  1
  O  O191  1  0.75393474  0.00436843  0.37484957  1
  O  O192  1  0.74971768  -0.00724834  0.86061142  1
  O  O193  1  0.76291061  0.51195855  0.37994812  1
  O  O194  1  0.76235713  0.49680101  0.86475774  1
  O  O195  1  0.24767805  0.50674121  0.12074640  1
  O  O196  1  0.24366904  0.48840208  0.62919780  1
  O  O197  1  0.24500743  0.99613781  0.13529160  1
  O  O198  1  0.24438545  0.99280737  0.62722858  1
  O  O199  1  0.73989289  0.48827746  0.11751471  1
  O  O200  1  0.75295518  0.49264676  0.64051504  1
  O  O201  1  0.73865729  0.99150391  0.12724120  1
  O  O202  1  0.74318191  0.99167707  0.63213938  1
  O  O203  1  0.00240182  0.37702328  0.25139371  1
  O  O204  1  0.00543416  0.37282581  0.75758584  1
  O  O205  1  -0.00179203  0.86957008  0.25966788  1
  O  O206  1  0.00793217  0.87016710  0.75395700  1
  O  O207  1  0.50715119  0.37254438  0.26181562  1
  O  O208  1  0.50389402  0.37043072  0.76336827  1
  O  O209  1  0.51246774  0.88037641  0.25448676  1
  O  O210  1  0.49309332  0.86507557  0.75839043  1
  O  O211  1  0.50280632  0.12549872  0.23614994  1
  O  O212  1  0.50128515  0.13725564  0.75580638  1
  O  O213  1  0.48422385  0.59568685  0.23896956  1
  O  O214  1  0.49783216  0.62961807  0.74405615  1
  O  O215  1  0.97903467  0.11508028  0.24693477  1
  O  O216  1  0.99240715  0.12311831  0.73653658  1
  O  O217  1  1.00042031  0.63325533  0.23443782  1
  O  O218  1  0.99384851  0.63388435  0.75278619  1
  O  O219  1  0.36355940  0.24806207  -0.00585223  1
  O  O220  1  0.36721483  0.25683336  0.51094361  1
  O  O221  1  0.37590784  0.76542725  0.00250972  1
  O  O222  1  0.36773289  0.75276311  0.50332836  1
  O  O223  1  0.86919181  0.26055830  -0.00563507  1
  O  O224  1  0.86650638  0.25640939  0.50531485  1
  O  O225  1  0.88484130  0.75800870  0.01112284  1
  O  O226  1  0.88438431  0.74541496  0.51321816  1
  O  O227  1  0.14217791  0.25127503  0.50458161  1
  O  O228  1  0.13125192  0.24840853  0.98783603  1
  O  O229  1  0.13150992  0.74249591  0.49470416  1
  O  O230  1  0.12505913  0.74456982  0.99012870  1
  O  O231  1  0.62946702  0.23879912  0.49513593  1
  O  O232  1  0.63381388  0.24346308  0.99706458  1
  O  O233  1  0.62163516  0.73735508  0.49786618  1
  O  O234  1  0.62025857  0.73702712  1.00665314  1
  O  O235  1  0.49920960  0.24562598  0.12732974  1
  O  O236  1  0.49935459  0.24611278  0.63985327  1
  O  O237  1  0.48605101  0.75552229  0.12340198  1
  O  O238  1  0.49363941  0.74016501  0.62941585  1
  O  O239  1  0.99132312  0.24094633  0.12693686  1
  O  O240  1  0.99369333  0.24068823  0.62610500  1
  O  O241  1  0.99712549  0.74745941  0.12852847  1
  O  O242  1  0.99687956  0.75669464  0.63551690  1
  O  O243  1  -0.01439420  0.24671141  0.36061064  1
  O  O244  1  0.00908294  0.25555935  0.87407856  1
  O  O245  1  0.00178789  0.75375989  0.36411209  1
  O  O246  1  0.00638367  0.75853524  0.86257342  1
  O  O247  1  0.50673672  0.26380880  0.38711783  1
  O  O248  1  0.50421870  0.26176796  0.86925688  1
  O  O249  1  0.49441551  0.76155369  0.37486401  1
  O  O250  1  0.49325796  0.76028806  0.86504625  1
  O  O251  1  0.25105996  0.14061116  0.50852686  1
  O  O252  1  0.24766633  0.12829171  0.98509125  1
  O  O253  1  0.24382320  0.63717770  0.50732415  1
  O  O254  1  0.24196186  0.63154400  0.99133510  1
  O  O255  1  0.73986583  0.12572420  0.49399927  1
  O  O256  1  0.74211973  0.13478058  1.00723920  1
  O  O257  1  0.73786616  0.62472046  0.50059800  1
  O  O258  1  0.73680114  0.62239382  0.99546500  1
  O  O259  1  0.25281955  0.36031678  -0.00379052  1
  O  O260  1  0.25906191  0.36648226  0.51124807  1
  O  O261  1  0.25822834  0.87702367  0.00795273  1
  O  O262  1  0.25381271  0.86451416  0.50265299  1
  O  O263  1  0.75833275  0.36905765  0.00526722  1
  O  O264  1  0.75713184  0.37035049  0.50885822  1
  O  O265  1  0.74706358  0.87947966  0.01245975  1
  O  O266  1  0.75169214  0.87652730  0.51421864  1
  O  O267  1  0.12512766  0.50887913  0.24192335  1
  O  O268  1  0.13159540  0.49606769  0.74436304  1
  O  O269  1  0.13673399  1.00277000  0.24550396  1
  O  O270  1  0.13292055  0.99470771  0.74230508  1
  O  O271  1  0.62114589  0.48577072  0.24080273  1
  O  O272  1  0.64024256  0.50535989  0.75563432  1
  O  O273  1  0.62409611  0.99744681  0.23900663  1
  O  O274  1  0.63153677  1.00432871  0.73942374  1
  O  O275  1  0.36002853  -0.00400880  0.25747568  1
  O  O276  1  0.36468054  -0.00827171  0.75941016  1
  O  O277  1  0.36787741  0.48966456  0.28298167  1
  O  O278  1  0.37029660  0.50553727  0.75819149  1
  O  O279  1  0.86799819  0.00324567  0.26175863  1
  O  O280  1  0.86500232  0.00696627  0.74884624  1
  O  O281  1  0.87157137  0.49639402  0.25834311  1
  O  O282  1  0.87423054  0.50633997  0.75554162  1
  O  O283  1  0.12245453  0.36460808  0.37519896  1
  O  O284  1  0.12030021  0.37061348  0.87156338  1
  O  O285  1  0.11339042  0.85849950  0.37950652  1
  O  O286  1  0.11931786  0.87140525  0.86816509  1
  O  O287  1  0.62166338  0.37302063  0.36982230  1
  O  O288  1  0.61738578  0.37563497  0.87595307  1
  O  O289  1  0.61818550  0.87696362  0.35866003  1
  O  O290  1  0.60723566  0.88423815  0.87773151  1
  O  O291  1  0.39004076  0.12087150  0.12296782  1
  O  O292  1  0.38183427  0.12024075  0.62849706  1
  O  O293  1  0.38072788  0.64798976  0.11183945  1
  O  O294  1  0.38313965  0.62824967  0.63054295  1
  O  O295  1  0.86802699  0.11311386  0.14086451  1
  O  O296  1  0.87886992  0.12949851  0.63113604  1
  O  O297  1  0.88461803  0.63451749  0.11560017  1
  O  O298  1  0.87148682  0.62932517  0.63619526  1
  O  O299  1  0.25042315  0.24009511  0.10726046  1
  O  O300  1  0.25125063  0.26231062  0.62978768  1
  O  O301  1  0.25944511  0.76003266  0.12220474  1
  O  O302  1  0.25623556  0.75533445  0.61807350  1
  O  O303  1  0.74650031  0.26319261  0.11311031  1
  O  O304  1  0.75270312  0.25512003  0.62100891  1
  O  O305  1  0.76079189  0.75770343  0.12716290  1
  O  O306  1  0.76144337  0.75634526  0.63244063  1
  O  O307  1  0.25879467  0.24994634  0.39234280  1
  O  O308  1  0.24545414  0.24308330  0.87703387  1
  O  O309  1  0.24045516  0.75476719  0.38201470  1
  O  O310  1  0.24460662  0.74590036  0.87394853  1
  O  O311  1  0.74440115  0.24035900  0.38231690  1
  O  O312  1  0.74925143  0.25520424  0.88844749  1
  O  O313  1  0.75701513  0.73289960  0.37116982  1
  O  O314  1  0.75323905  0.76041118  0.86318657  1
  O  O315  1  0.00083685  0.11108345  -0.00023519  1
  O  O316  1  -0.00721618  0.11601483  0.51225336  1
  O  O317  1  0.00754308  0.62185828  0.00090750  1
  O  O318  1  0.01126094  0.62679167  0.50265950  1
  O  O319  1  0.50632526  0.12295122  0.00947178  1
  O  O320  1  0.51231414  0.11716475  0.49786865  1
  O  O321  1  0.51416450  0.61692310  0.00043909  1
  O  O322  1  0.51215864  0.61645659  0.50809039  1
  O  O323  1  0.49688341  0.37876685  0.50195746  1
  O  O324  1  0.50566075  0.38557231  0.98485102  1
  O  O325  1  0.49504273  0.87769444  0.49113744  1
  O  O326  1  0.49162125  0.88521965  0.99383618  1
  O  O327  1  0.98368424  0.37378915  0.50542103  1
  O  O328  1  0.99280765  0.38213229  0.99413277  1
  O  O329  1  0.99369100  0.87917675  0.48668977  1
  O  O330  1  1.00266296  0.88534620  0.98939106  1
  O  O331  1  0.49859160  0.48668861  0.38844062  1
  O  O332  1  0.49780614  0.49165603  0.87704528  1
  O  O333  1  0.49208841  0.99062160  0.37913114  1
  O  O334  1  0.49025784  0.99587419  0.87866727  1
  O  O335  1  0.97615354  0.51288882  0.37979187  1
  O  O336  1  0.99028595  0.49688799  0.87952580  1
  O  O337  1  0.99186848  0.99084958  0.37612333  1
  O  O338  1  1.00397554  0.99346546  0.88006923  1
  O  O339  1  0.00622057  -0.00232352  0.11802427  1
  O  O340  1  0.00326950  0.00368882  0.61896944  1
  O  O341  1  -0.00272453  0.51259503  0.11172235  1
  O  O342  1  0.01322852  0.49389101  0.62505892  1
  O  O343  1  0.50367689  0.01001314  0.12199046  1
  O  O344  1  0.50869371  -0.00520677  0.61725861  1
  O  O345  1  0.51732704  0.49758615  0.11160600  1
  O  O346  1  0.49817985  0.51072441  0.62256457  1
  O  O347  1  0.23558948  0.39632040  0.26842435  1
  O  O348  1  0.24613082  0.38093982  0.74709809  1
  O  O349  1  0.25021374  0.88105529  0.23882451  1
  O  O350  1  0.24473181  0.87988154  0.74257582  1
  O  O351  1  0.74578772  0.36956249  0.24127967  1
  O  O352  1  0.75573291  0.38847484  0.74338837  1
  O  O353  1  0.73500611  0.87408536  0.24117824  1
  O  O354  1  0.74834914  0.88179188  0.73854546  1
  O  O355  1  0.25092614  0.11459111  0.24659988  1
  O  O356  1  0.24563547  0.11804762  0.76200888  1
  O  O357  1  0.26579223  0.62120105  0.24972371  1
  O  O358  1  0.25583806  0.61854242  0.75551375  1
  O  O359  1  0.75245955  0.12088243  0.25761840  1
  O  O360  1  0.75767539  0.11407021  0.74278461  1
  O  O361  1  0.74003437  0.62226890  0.26116103  1
  O  O362  1  0.75884580  0.61246794  0.75319076  1
  O  O363  1  0.38196949  0.10993791  0.38076088  1
  O  O364  1  0.37009256  0.11271132  0.87809843  1
  O  O365  1  0.38363602  0.61004277  0.38592852  1
  O  O366  1  0.37259674  0.61921306  0.86934941  1
  O  O367  1  0.86055823  0.11506736  0.36920778  1
  O  O368  1  0.88222728  0.12420284  0.85845068  1
  O  O369  1  0.85985792  0.61476988  0.37585303  1
  O  O370  1  0.87334505  0.61902149  0.86495047  1
  O  O371  1  0.12117332  0.37934048  0.12944968  1
  O  O372  1  0.13194433  0.38029008  0.63141369  1
  O  O373  1  0.13511003  0.88770630  0.11894640  1
  O  O374  1  0.12989854  0.87905411  0.62720455  1
  O  O375  1  0.63319811  0.37930539  0.13160282  1
  O  O376  1  0.63857841  0.37242990  0.62069300  1
  O  O377  1  0.62631842  0.88260353  0.13307031  1
  O  O378  1  0.63087303  0.88328681  0.62086665  1
  O  O379  1  0.11774789  0.25137158  0.25156118  1
  O  O380  1  0.12363637  0.25687982  0.76168053  1
  O  O381  1  0.11394067  0.74368564  0.25498935  1
  O  O382  1  0.12137257  0.75329204  0.75190218  1
  O  O383  1  0.62835060  0.26296727  0.25736441  1
  O  O384  1  0.61190274  0.24755714  0.75293899  1
  O  O385  1  0.61954443  0.75992830  0.24133547  1
  O  O386  1  0.61065835  0.74561642  0.74121198  1
  O  O387  1  0.37921300  0.26183060  0.25548530  1
  O  O388  1  0.39455386  0.25856224  0.75140110  1
  O  O389  1  0.37579699  0.75368095  0.23715841  1
  O  O390  1  0.38353033  0.74376772  0.74363978  1
  O  O391  1  0.86482317  0.23162751  0.24956703  1
  O  O392  1  0.87418088  0.24260136  0.74272675  1
  O  O393  1  0.88975013  0.75459604  0.23441572  1
  O  O394  1  0.88745387  0.74061105  0.73848633  1
  O  O395  1  0.38917482  0.49260168  0.50153394  1
  O  O396  1  0.39187831  0.51170445  0.98956723  1
  O  O397  1  0.37746122  0.98977205  0.49066036  1
  O  O398  1  0.37695463  0.99259981  0.99409004  1
  O  O399  1  0.87648098  0.48782245  0.50702440  1
  O  O400  1  0.87862404  0.49546216  0.98977120  1
  O  O401  1  0.87821424  0.99755524  0.48707293  1
  O  O402  1  0.88256893  0.99520253  0.99522616  1
  O  O403  1  0.11719126  0.00208181  0.00758682  1
  O  O404  1  0.11785944  -0.00161689  0.50472427  1
  O  O405  1  0.11640671  0.51102449  -0.00326559  1
  O  O406  1  0.12157923  0.50746871  0.50677825  1
  O  O407  1  0.61712657  0.00762860  0.01259232  1
  O  O408  1  0.62082471  0.00340663  0.50522713  1
  O  O409  1  0.62092435  0.50676102  0.00456779  1
  O  O410  1  0.61785839  0.50289373  0.49973349  1
  O  O411  1  0.40063725  0.38066324  0.14749677  1
  O  O412  1  0.36917301  0.37723998  0.62014099  1
  O  O413  1  0.36925988  0.86989220  0.11906476  1
  O  O414  1  0.37029225  0.86826886  0.61498198  1
  O  O415  1  0.86734043  0.38527635  0.11099450  1
  O  O416  1  0.86679762  0.36685826  0.61764661  1
  O  O417  1  0.86301621  0.87057002  0.12352471  1
  O  O418  1  0.86757075  0.86411066  0.62290217  1
  O  O419  1  0.11675141  0.13521320  0.38455802  1
  O  O420  1  0.13218784  0.13426776  0.87485813  1
  O  O421  1  0.11903305  0.63726286  0.38445481  1
  O  O422  1  0.13059002  0.63005940  0.88194293  1
  O  O423  1  0.63239208  0.12475773  0.37927529  1
  O  O424  1  0.62090922  0.12339569  0.89247515  1
  O  O425  1  0.63651944  0.61839835  0.38734716  1
  O  O426  1  0.62964753  0.62805340  0.88813882  1
