# generated using pymatgen
data_V85Zn86O256
_symmetry_space_group_name_H-M   'P 1'
_cell_length_a   16.93519260
_cell_length_b   16.93760782
_cell_length_c   16.93086486
_cell_angle_alpha   89.96408722
_cell_angle_beta   90.05365478
_cell_angle_gamma   90.00685644
_symmetry_Int_Tables_number   1
_chemical_formula_structural   V85Zn86O256
_chemical_formula_sum   'V85 Zn86 O256'
_cell_volume   4856.47410446
_cell_formula_units_Z   1
loop_
 _symmetry_equiv_pos_site_id
 _symmetry_equiv_pos_as_xyz
  1  'x, y, z'
loop_
 _atom_site_type_symbol
 _atom_site_label
 _atom_site_symmetry_multiplicity
 _atom_site_fract_x
 _atom_site_fract_y
 _atom_site_fract_z
 _atom_site_occupancy
  V  V0  1  -0.00729180  0.37096882  0.86638851  1
  V  V1  1  0.62365524  0.25029674  0.37408450  1
  V  V2  1  0.26816239  0.12186196  0.37806583  1
  V  V3  1  0.38214351  0.88427306  0.50436390  1
  V  V4  1  0.12491794  0.75088354  0.37958114  1
  V  V5  1  0.75218188  0.12593799  0.37311398  1
  V  V6  1  0.12910556  0.00641763  0.62629380  1
  V  V7  1  0.25312138  0.26489550  -0.00284739  1
  V  V8  1  0.62505245  0.37259038  0.24637863  1
  V  V9  1  0.37230464  0.49395864  0.88159411  1
  V  V10  1  0.12573135  0.61226018  0.00038055  1
  V  V11  1  0.74466987  0.25146351  0.00558660  1
  V  V12  1  0.36942103  0.12505930  0.74634155  1
  V  V13  1  0.61875873  0.62113243  0.49874569  1
  V  V14  1  0.12336912  0.74832381  0.87321509  1
  V  V15  1  0.24975208  0.87429272  0.12402905  1
  V  V16  1  0.00088800  0.87498116  0.37673665  1
  V  V17  1  0.01590311  0.37784379  0.37151181  1
  V  V18  1  0.49347458  0.62121886  0.12845423  1
  V  V19  1  0.25028006  0.75437449  0.50248815  1
  V  V20  1  0.87704682  0.00061026  0.37475964  1
  V  V21  1  0.24444790  0.38410241  0.14033031  1
  V  V22  1  0.87808816  0.13030640  0.74839077  1
  V  V23  1  0.62211862  0.62226618  -0.00209497  1
  V  V24  1  0.74586497  0.87492771  0.12651290  1
  V  V25  1  0.87481916  0.87427478  0.00160682  1
  V  V26  1  0.12548772  0.61174572  0.50684645  1
  V  V27  1  0.50216728  0.62439254  0.62893535  1
  V  V28  1  0.63062972  0.49603233  0.12546090  1
  V  V29  1  0.76416829  0.50250977  0.75187261  1
  V  V30  1  0.36465156  0.38401932  0.50055573  1
  V  V31  1  0.12643399  0.00135884  0.12571989  1
  V  V32  1  0.62084788  0.86823922  0.74666222  1
  V  V33  1  0.74348435  0.00006877  0.74532147  1
  V  V34  1  0.49849433  0.37373278  0.88298884  1
  V  V35  1  0.87463354  0.74847625  0.12672813  1
  V  V36  1  0.25315449  0.88181180  0.62983639  1
  V  V37  1  -0.00711710  0.61604893  0.62227850  1
  V  V38  1  -0.00391098  0.49767534  -0.00758887  1
  V  V39  1  0.88123362  0.49838769  0.37614670  1
  V  V40  1  0.62273499  0.75787972  0.37582299  1
  V  V41  1  0.62890739  0.01113690  0.12067389  1
  V  V42  1  0.62231206  0.24429387  0.87653311  1
  V  V43  1  0.00273697  0.61571505  0.12664362  1
  V  V44  1  0.75141951  0.62325316  0.37151725  1
  V  V45  1  0.37281617  -0.00146563  0.86948053  1
  V  V46  1  -0.00009491  0.74754359  0.25020819  1
  V  V47  1  0.12870311  0.87613296  0.74982829  1
  V  V48  1  -0.00173518  0.87178751  0.87377982  1
  V  V49  1  0.50010303  0.86613893  0.87245153  1
  V  V50  1  0.37737663  0.62165417  0.75220521  1
  V  V51  1  0.75426636  0.74631737  0.50545359  1
  V  V52  1  0.50592359  0.00670095  -0.00705671  1
  V  V53  1  0.12611503  0.12571530  0.00032348  1
  V  V54  1  0.24857962  0.74657036  0.00041046  1
  V  V55  1  0.36283942  0.25547331  0.61704747  1
  V  V56  1  -0.01323767  0.74811712  0.73844054  1
  V  V57  1  0.48775183  0.12596143  0.12971771  1
  V  V58  1  0.88069355  0.37660507  0.49723618  1
  V  V59  1  0.86820604  0.37974786  0.00058130  1
  V  V60  1  0.62623637  0.11904738  0.50949412  1
  V  V61  1  0.74671404  0.74798478  -0.00098727  1
  V  V62  1  0.25957603  0.62494155  0.37678346  1
  V  V63  1  0.24596998  0.51337648  0.25007603  1
  V  V64  1  0.11486024  0.24810270  0.86644263  1
  V  V65  1  0.74668204  0.87549043  0.62449255  1
  V  V66  1  0.87226718  -0.00148861  0.87528851  1
  V  V67  1  0.44151772  0.93308597  0.32903919  1
  V  V68  1  0.01451033  0.25461240  0.24721839  1
  V  V69  1  0.00117030  0.12853827  0.12481267  1
  V  V70  1  0.74449196  0.12296180  0.88090378  1
  V  V71  1  0.38158398  0.75206704  0.63275670  1
  V  V72  1  0.50213409  0.38391565  0.38448637  1
  V  V73  1  0.13287944  0.23963837  0.39125352  1
  V  V74  1  0.87707811  0.87156618  0.50675200  1
  V  V75  1  0.00576887  0.00807638  0.50169285  1
  V  V76  1  0.62239395  0.49810397  0.62594473  1
  V  V77  1  0.24841123  0.12026352  0.87431852  1
  V  V78  1  0.75350408  0.25261649  0.50278591  1
  V  V79  1  0.49414103  0.74289008  0.25426914  1
  V  V80  1  0.12712983  0.87797460  0.25310504  1
  V  V81  1  0.76085228  0.62092941  0.87322170  1
  V  V82  1  0.87296823  0.25662229  0.12799058  1
  V  V83  1  0.49920870  0.25236199  0.74611911  1
  V  V84  1  -0.00001350  -0.00136569  0.00077644  1
  Zn  Zn85  1  0.26501599  0.00743461  0.25092343  1
  Zn  Zn86  1  0.87725572  0.12805529  0.25023415  1
  Zn  Zn87  1  0.38137875  0.50767845  0.37124116  1
  Zn  Zn88  1  0.37225801  0.74337578  0.12852176  1
  Zn  Zn89  1  0.00648895  0.12787881  0.62911653  1
  Zn  Zn90  1  0.50977036  -0.00852941  0.50713736  1
  Zn  Zn91  1  0.87784566  0.25710335  0.63322213  1
  Zn  Zn92  1  0.24496348  0.49457656  0.72872138  1
  Zn  Zn93  1  0.49902855  0.49016740  0.00728003  1
  Zn  Zn94  1  0.87537155  0.62187828  0.24998999  1
  Zn  Zn95  1  0.75362898  0.48992853  0.24770854  1
  Zn  Zn96  1  0.62075136  0.74280496  0.86871350  1
  Zn  Zn97  1  0.37500774  0.87153895  -0.00402159  1
  Zn  Zn98  1  0.37381168  0.26386917  0.12269317  1
  Zn  Zn99  1  0.12387284  0.38043846  0.72997838  1
  Zn  Zn100  1  0.24792126  0.62537008  0.86845135  1
  Zn  Zn101  1  0.75123477  -0.00023256  0.24945102  1
  Zn  Zn102  1  0.62242275  0.87831934  0.25150251  1
  Zn  Zn103  1  0.49966388  0.12293137  0.62491241  1
  Zn  Zn104  1  0.48597385  0.24698134  0.25728162  1
  Zn  Zn105  1  0.75152397  0.37783597  0.62585794  1
  Zn  Zn106  1  0.62669453  0.37640944  0.74964183  1
  Zn  Zn107  1  0.19911711  0.18923050  0.18916997  1
  Zn  Zn108  1  0.18891638  0.19308011  0.68787258  1
  Zn  Zn109  1  0.18398397  0.68557393  0.18720397  1
  Zn  Zn110  1  0.18941807  0.68738328  0.68612728  1
  Zn  Zn111  1  0.68573186  0.18813537  0.18882551  1
  Zn  Zn112  1  0.69276211  0.19149363  0.69002399  1
  Zn  Zn113  1  0.68095919  0.68743118  0.18851882  1
  Zn  Zn114  1  0.69207449  0.68553154  0.68774337  1
  Zn  Zn115  1  0.31093310  0.31173541  0.31204486  1
  Zn  Zn116  1  0.31096103  0.31007765  0.81112981  1
  Zn  Zn117  1  0.30817724  0.80730337  0.30970803  1
  Zn  Zn118  1  0.31210846  0.81016412  0.81143505  1
  Zn  Zn119  1  0.81425622  0.31307177  0.31102147  1
  Zn  Zn120  1  0.80812535  0.31546639  0.81604335  1
  Zn  Zn121  1  0.81261566  0.81108653  0.31423508  1
  Zn  Zn122  1  0.80861559  0.80931292  0.81340813  1
  Zn  Zn123  1  0.18810728  0.43153513  0.55804165  1
  Zn  Zn124  1  0.18497652  0.43534247  0.87608757  1
  Zn  Zn125  1  0.19451709  0.94677535  0.43963192  1
  Zn  Zn126  1  0.18751361  0.93695809  0.93633074  1
  Zn  Zn127  1  0.68954083  0.43922511  0.43792206  1
  Zn  Zn128  1  0.68573563  0.43583342  0.93434509  1
  Zn  Zn129  1  0.69136795  0.93793237  0.43778132  1
  Zn  Zn130  1  0.68371474  0.93481561  0.93671451  1
  Zn  Zn131  1  0.31259117  0.05886223  0.05623120  1
  Zn  Zn132  1  0.31091902  0.06632212  0.55775499  1
  Zn  Zn133  1  0.31197753  0.55545351  0.06126753  1
  Zn  Zn134  1  0.31924421  0.56532059  0.55689642  1
  Zn  Zn135  1  0.81429422  0.06627766  0.06272213  1
  Zn  Zn136  1  0.81130073  0.05939304  0.56235124  1
  Zn  Zn137  1  0.81155533  0.56247054  0.06291456  1
  Zn  Zn138  1  0.81267204  0.55947299  0.56123020  1
  Zn  Zn139  1  0.42931576  0.43263070  0.19197651  1
  Zn  Zn140  1  0.43553015  0.43855496  0.68812434  1
  Zn  Zn141  1  0.44033310  0.93380441  0.16636055  1
  Zn  Zn142  1  0.44413870  0.94391194  0.68678946  1
  Zn  Zn143  1  0.93969271  0.43690629  0.18904604  1
  Zn  Zn144  1  0.94067547  0.43754290  0.68255282  1
  Zn  Zn145  1  0.93785278  0.93764241  0.18877316  1
  Zn  Zn146  1  0.93646504  0.93988109  0.68741012  1
  Zn  Zn147  1  0.06509675  0.06551583  0.31049183  1
  Zn  Zn148  1  0.06202917  0.05810004  0.81227211  1
  Zn  Zn149  1  0.06837557  0.56145444  0.31762803  1
  Zn  Zn150  1  0.05577672  0.56377481  0.80956638  1
  Zn  Zn151  1  0.56945739  0.06709066  0.30774072  1
  Zn  Zn152  1  0.56047901  0.06154768  0.80633653  1
  Zn  Zn153  1  0.56585442  0.56201317  0.31056068  1
  Zn  Zn154  1  0.56195496  0.55987819  0.81106657  1
  Zn  Zn155  1  0.43991076  0.19054031  0.44068773  1
  Zn  Zn156  1  0.43478211  0.18665135  0.93989727  1
  Zn  Zn157  1  0.43993320  0.69560141  0.44441447  1
  Zn  Zn158  1  0.43582629  0.68340287  0.94040133  1
  Zn  Zn159  1  0.94155282  0.19154124  0.43674295  1
  Zn  Zn160  1  0.93236794  0.18832288  0.93896733  1
  Zn  Zn161  1  0.93900351  0.68474182  0.44192430  1
  Zn  Zn162  1  0.93848979  0.68812994  0.93803351  1
  Zn  Zn163  1  0.06742430  0.31741768  0.05680205  1
  Zn  Zn164  1  0.05378487  0.30361828  0.56332590  1
  Zn  Zn165  1  0.06387514  0.80780240  0.06350252  1
  Zn  Zn166  1  0.06421318  0.81476889  0.56446842  1
  Zn  Zn167  1  0.56467897  0.30846498  0.06341648  1
  Zn  Zn168  1  0.56319336  0.31029969  0.56359368  1
  Zn  Zn169  1  0.56151340  0.81228752  0.06184721  1
  Zn  Zn170  1  0.56396397  0.80991992  0.56370991  1
  O  O171  1  0.12178576  0.12023110  0.12014582  1
  O  O172  1  0.12793796  0.11020360  0.63703119  1
  O  O173  1  0.11245692  0.63208786  0.11372890  1
  O  O174  1  0.12007934  0.63267895  0.61173445  1
  O  O175  1  0.61925828  0.11447145  0.12530355  1
  O  O176  1  0.63156267  0.13129345  0.61088442  1
  O  O177  1  0.61709974  0.61748989  0.11819780  1
  O  O178  1  0.62002488  0.62167778  0.61936006  1
  O  O179  1  0.38877599  0.37020251  0.38705855  1
  O  O180  1  0.38255039  0.38720119  0.87089132  1
  O  O181  1  0.37691845  0.87215249  0.38367010  1
  O  O182  1  0.38092279  0.88202678  0.87194322  1
  O  O183  1  0.88106543  0.38167966  0.37748805  1
  O  O184  1  0.88128623  0.36634464  0.88829334  1
  O  O185  1  0.87866117  0.88249196  0.38327286  1
  O  O186  1  0.87717969  0.87872359  0.88167532  1
  O  O187  1  0.25048344  0.01361326  0.36812985  1
  O  O188  1  0.25641662  0.01058047  0.87806942  1
  O  O189  1  0.25233120  0.51828037  0.36674773  1
  O  O190  1  0.26878554  0.51057504  0.88853874  1
  O  O191  1  0.75976759  0.00764210  0.37425219  1
  O  O192  1  0.75199830  0.00579132  0.87133681  1
  O  O193  1  0.75669843  0.50868022  0.37176581  1
  O  O194  1  0.74404100  0.50600565  0.86064205  1
  O  O195  1  0.24998398  0.49705881  0.13796150  1
  O  O196  1  0.25541319  0.49949697  0.61796073  1
  O  O197  1  0.24628154  0.99209094  0.12837752  1
  O  O198  1  0.24573474  0.98950333  0.62147698  1
  O  O199  1  0.73523453  0.50612475  0.12911090  1
  O  O200  1  0.74401066  0.50267840  0.63654837  1
  O  O201  1  0.74528702  0.99439150  0.12330104  1
  O  O202  1  0.75122069  0.98958435  0.63359720  1
  O  O203  1  -0.00273434  0.36649616  0.25955428  1
  O  O204  1  -0.00199922  0.37948420  0.76391822  1
  O  O205  1  0.00699090  0.86897111  0.25578253  1
  O  O206  1  0.00400773  0.86544949  0.75258703  1
  O  O207  1  0.50929401  0.37225359  0.26287197  1
  O  O208  1  0.49935543  0.36375899  0.75867403  1
  O  O209  1  0.49751120  0.87514958  0.25911381  1
  O  O210  1  0.51004080  0.87897952  0.75812460  1
  O  O211  1  0.50337650  0.12645045  0.23335026  1
  O  O212  1  0.48740111  0.13617066  0.75252300  1
  O  O213  1  0.50607326  0.63225336  0.24183927  1
  O  O214  1  0.48900278  0.62365511  0.74306983  1
  O  O215  1  0.99849155  0.13329660  0.24060667  1
  O  O216  1  0.98062552  0.11502670  0.75295308  1
  O  O217  1  1.00256204  0.62904668  0.24282332  1
  O  O218  1  1.00419592  0.63870165  0.73620125  1
  O  O219  1  0.35685611  0.24375399  0.00257464  1
  O  O220  1  0.38046926  0.25882955  0.51305734  1
  O  O221  1  0.35961115  0.74915566  0.00002641  1
  O  O222  1  0.37006341  0.75945665  0.51376760  1
  O  O223  1  0.86462847  0.25662173  0.00746653  1
  O  O224  1  0.86286298  0.25601990  0.49306454  1
  O  O225  1  0.86837690  0.75552534  0.00676243  1
  O  O226  1  0.86665143  0.76080175  0.49186398  1
  O  O227  1  0.12450584  0.24545931  0.48887621  1
  O  O228  1  0.13357700  0.24031806  0.99293106  1
  O  O229  1  0.13354561  0.75489208  0.49410914  1
  O  O230  1  0.13262473  0.74393800  0.99369022  1
  O  O231  1  0.63702486  0.24395380  0.49388146  1
  O  O232  1  0.63674804  0.25054166  0.99334559  1
  O  O233  1  0.63335354  0.74245525  0.49326402  1
  O  O234  1  0.63074498  0.74056756  0.99952170  1
  O  O235  1  0.49629523  0.23265019  0.11627985  1
  O  O236  1  0.49459479  0.24504272  0.63336838  1
  O  O237  1  0.50008156  0.74239875  0.13397617  1
  O  O238  1  0.49393244  0.73749877  0.62248895  1
  O  O239  1  0.99563153  0.24917625  0.12813383  1
  O  O240  1  0.98657676  0.23644115  0.61933931  1
  O  O241  1  0.99413393  0.74178058  0.12995741  1
  O  O242  1  1.00104761  0.74899589  0.63530736  1
  O  O243  1  0.00889563  0.25384207  0.36537021  1
  O  O244  1  0.00374417  0.25486971  0.87943223  1
  O  O245  1  0.00509370  0.75584016  0.37116137  1
  O  O246  1  0.00389334  0.75386018  0.86576646  1
  O  O247  1  0.51272741  0.25656101  0.37632861  1
  O  O248  1  0.50400074  0.25255672  0.87088091  1
  O  O249  1  0.51158294  0.74328075  0.36867845  1
  O  O250  1  0.49892985  0.76294552  0.88199952  1
  O  O251  1  0.25022336  0.12141792  0.47975150  1
  O  O252  1  0.24205294  0.12584917  0.99271894  1
  O  O253  1  0.24117885  0.63438260  0.49563409  1
  O  O254  1  0.24067749  0.63091769  1.00290259  1
  O  O255  1  0.74525446  0.13040360  0.49169546  1
  O  O256  1  0.75545373  0.13233061  0.98675890  1
  O  O257  1  0.74443924  0.63107238  0.49202332  1
  O  O258  1  0.73899598  0.62623126  0.99502822  1
  O  O259  1  0.24803212  0.36118307  -0.01756905  1
  O  O260  1  0.26722096  0.37594256  0.49035539  1
  O  O261  1  0.24724090  0.86632863  0.00725802  1
  O  O262  1  0.25914103  0.87236471  0.50803313  1
  O  O263  1  0.75658957  0.36542641  -0.00529639  1
  O  O264  1  0.75890766  0.36740348  0.49840095  1
  O  O265  1  0.75312964  0.87019652  0.00974458  1
  O  O266  1  0.75578245  0.86862128  0.50682995  1
  O  O267  1  0.14459765  0.50447607  0.25496178  1
  O  O268  1  0.13509848  0.49256437  0.77768156  1
  O  O269  1  0.12020486  0.98732783  0.24336709  1
  O  O270  1  0.11807800  0.98386650  0.74363182  1
  O  O271  1  0.62788337  0.49107039  0.24298362  1
  O  O272  1  0.63003193  0.49974567  0.73770628  1
  O  O273  1  0.63046295  0.99658955  0.23934712  1
  O  O274  1  0.63750647  0.98932478  0.75611725  1
  O  O275  1  0.38626136  -0.01531377  0.25995112  1
  O  O276  1  0.37876133  0.01019088  0.76107790  1
  O  O277  1  0.35701099  0.49414242  0.25827042  1
  O  O278  1  0.37295982  0.50607457  0.76066134  1
  O  O279  1  0.87544113  0.00178824  0.26299540  1
  O  O280  1  0.86251289  0.00322467  0.75746025  1
  O  O281  1  0.87130314  0.50119170  0.25958197  1
  O  O282  1  0.86252757  0.50003649  0.74602732  1
  O  O283  1  0.11424875  0.36134363  0.37760767  1
  O  O284  1  0.10371187  0.35862478  0.89021763  1
  O  O285  1  0.12282969  0.87299679  0.36900529  1
  O  O286  1  0.11915764  0.86965382  0.86822808  1
  O  O287  1  0.61753107  0.36975866  0.37371326  1
  O  O288  1  0.61730221  0.36240720  0.87142341  1
  O  O289  1  0.63380883  0.86196134  0.37366864  1
  O  O290  1  0.61691675  0.87066280  0.86666000  1
  O  O291  1  0.38718780  0.11675660  0.12359441  1
  O  O292  1  0.37256027  0.13741065  0.63000032  1
  O  O293  1  0.38965288  0.62395415  0.11829460  1
  O  O294  1  0.38444550  0.63263172  0.62817696  1
  O  O295  1  0.88351626  0.13668983  0.12434970  1
  O  O296  1  0.86793850  0.11917550  0.64329732  1
  O  O297  1  0.88221255  0.63128399  0.12664319  1
  O  O298  1  0.89342351  0.62598817  0.60987041  1
  O  O299  1  0.24755672  0.26239090  0.11194821  1
  O  O300  1  0.26409648  0.25538821  0.62783230  1
  O  O301  1  0.24891745  0.75635101  0.11924447  1
  O  O302  1  0.25771689  0.76207423  0.62168056  1
  O  O303  1  0.75777441  0.24218813  0.11608775  1
  O  O304  1  0.75639787  0.25463689  0.61671833  1
  O  O305  1  0.75216924  0.75603645  0.12061034  1
  O  O306  1  0.74960778  0.75424817  0.61223833  1
  O  O307  1  0.23774552  0.24097852  0.37042279  1
  O  O308  1  0.24313870  0.23662263  0.88292731  1
  O  O309  1  0.24379017  0.74462143  0.38045262  1
  O  O310  1  0.24280177  0.74710891  0.88226359  1
  O  O311  1  0.74239958  0.24404073  0.37989808  1
  O  O312  1  0.74025941  0.24241231  0.88059733  1
  O  O313  1  0.74495467  0.74319387  0.38374740  1
  O  O314  1  0.74613044  0.74075528  0.88187714  1
  O  O315  1  0.00522956  0.11985140  0.00489829  1
  O  O316  1  -0.00632873  0.10979637  0.50015694  1
  O  O317  1  0.00305584  0.61789525  0.00558570  1
  O  O318  1  0.01580205  0.63311617  0.51028849  1
  O  O319  1  0.49690985  0.11242991  0.00565382  1
  O  O320  1  0.51972396  0.12825416  0.49924030  1
  O  O321  1  0.51172527  0.62489627  0.00739222  1
  O  O322  1  0.51377634  0.62809720  0.50610708  1
  O  O323  1  0.50086408  0.37130965  0.48705491  1
  O  O324  1  0.50226899  0.37020096  0.98732103  1
  O  O325  1  0.49181423  0.87302367  0.50179785  1
  O  O326  1  0.49819389  0.88554366  0.99219258  1
  O  O327  1  0.98600015  0.36679097  0.48501519  1
  O  O328  1  0.98916039  0.38219446  0.99760514  1
  O  O329  1  0.99243470  0.88142139  0.49657842  1
  O  O330  1  0.99559992  0.87698386  0.99526583  1
  O  O331  1  0.50189772  0.48772141  0.37253531  1
  O  O332  1  0.49426780  0.48919566  0.87560298  1
  O  O333  1  0.50364373  0.99762827  0.37851762  1
  O  O334  1  0.49464927  0.99364489  0.87777038  1
  O  O335  1  0.99437752  0.48994478  0.36988489  1
  O  O336  1  0.99403645  0.49281305  0.88719098  1
  O  O337  1  0.99624227  0.99434482  0.38084209  1
  O  O338  1  0.99378355  0.99069890  0.88133543  1
  O  O339  1  0.00497523  0.00532139  0.11937127  1
  O  O340  1  0.00839467  0.00208305  0.61865829  1
  O  O341  1  -0.00507710  0.51004342  0.11582730  1
  O  O342  1  0.00366618  0.51739584  0.63048960  1
  O  O343  1  0.50804622  0.00852643  0.11473795  1
  O  O344  1  0.50155838  0.01022851  0.62013500  1
  O  O345  1  0.50794907  0.50505234  0.12744803  1
  O  O346  1  0.50716551  0.51306408  0.62879807  1
  O  O347  1  0.24321307  0.38360608  0.24378238  1
  O  O348  1  0.23578967  0.38305051  0.77573517  1
  O  O349  1  0.24321901  0.87797209  0.24254437  1
  O  O350  1  0.24120829  0.87132168  0.74238687  1
  O  O351  1  0.73164960  0.37230703  0.25743443  1
  O  O352  1  0.74830818  0.38823272  0.74934196  1
  O  O353  1  0.75162221  0.87516282  0.23655157  1
  O  O354  1  0.74668511  0.88017379  0.74278821  1
  O  O355  1  0.24567025  0.12076641  0.26490504  1
  O  O356  1  0.26185601  0.13080311  0.75849815  1
  O  O357  1  0.25005359  0.62284170  0.25754527  1
  O  O358  1  0.26415102  0.62475721  0.74913080  1
  O  O359  1  0.75295228  0.12474866  0.26252614  1
  O  O360  1  0.75308353  0.11675266  0.76026552  1
  O  O361  1  0.74955499  0.62869003  0.26361609  1
  O  O362  1  0.74788989  0.61375334  0.75857841  1
  O  O363  1  0.36835391  0.13165851  0.37503976  1
  O  O364  1  0.36712198  0.11925907  0.86869902  1
  O  O365  1  0.36403224  0.62984879  0.38707329  1
  O  O366  1  0.37923275  0.61562628  0.86630557  1
  O  O367  1  0.86905735  0.11827413  0.37567279  1
  O  O368  1  0.86575693  0.11843439  0.86774134  1
  O  O369  1  0.86986613  0.61746024  0.37558988  1
  O  O370  1  0.86016791  0.62496105  0.88452196  1
  O  O371  1  0.14813704  0.37949864  0.10915214  1
  O  O372  1  0.11606530  0.37478195  0.61920342  1
  O  O373  1  0.13302406  0.87759624  0.13140317  1
  O  O374  1  0.13416107  0.88153950  0.63230147  1
  O  O375  1  0.61753513  0.38203051  0.13401250  1
  O  O376  1  0.62704993  0.38399944  0.62600668  1
  O  O377  1  0.63180564  0.88434813  0.12561969  1
  O  O378  1  0.63762432  0.87073864  0.63024482  1
  O  O379  1  0.11579314  0.24950245  0.24754106  1
  O  O380  1  0.12534013  0.25126352  0.76407887  1
  O  O381  1  0.12078749  0.76073912  0.25648844  1
  O  O382  1  0.11814605  0.75914146  0.75371659  1
  O  O383  1  0.61979803  0.25394926  0.25863510  1
  O  O384  1  0.61703534  0.25045703  0.75681555  1
  O  O385  1  0.61409295  0.75579143  0.25717014  1
  O  O386  1  0.63234285  0.76332221  0.75072509  1
  O  O387  1  0.37646810  0.26125034  0.23710973  1
  O  O388  1  0.38037959  0.24667101  0.74086000  1
  O  O389  1  0.38942962  0.75424622  0.24906868  1
  O  O390  1  0.37337787  0.74362023  0.73860197  1
  O  O391  1  0.88265201  0.24952454  0.24160804  1
  O  O392  1  0.86387907  0.23311093  0.75321377  1
  O  O393  1  0.88241199  0.74741683  0.24536193  1
  O  O394  1  0.88853693  0.75417767  0.75106746  1
  O  O395  1  0.37949476  0.48728597  0.49265104  1
  O  O396  1  0.38503534  0.50681220  0.98558861  1
  O  O397  1  0.37809488  0.98699806  0.50304347  1
  O  O398  1  0.38211137  0.99642171  0.98487163  1
  O  O399  1  0.87015148  0.49138527  0.48536423  1
  O  O400  1  0.87813947  0.48722177  1.00647738  1
  O  O401  1  0.88002166  0.99267319  0.49115504  1
  O  O402  1  0.88011413  0.99432761  0.99537908  1
  O  O403  1  0.11947577  0.00457982  0.00562803  1
  O  O404  1  0.11626430  -0.00941016  0.51284640  1
  O  O405  1  0.11480086  0.51122372  -0.00852503  1
  O  O406  1  0.12697915  0.51472201  0.49581884  1
  O  O407  1  0.61742703  -0.00235508  0.00610956  1
  O  O408  1  0.63019407  0.01582108  0.49538008  1
  O  O409  1  0.62176451  0.50417553  0.00660387  1
  O  O410  1  0.63485728  0.51001145  0.51303408  1
  O  O411  1  0.35270312  0.38229339  0.11702438  1
  O  O412  1  0.38383130  0.36714659  0.61141848  1
  O  O413  1  0.36167951  0.86925574  0.11788817  1
  O  O414  1  0.37143343  0.87084870  0.62443751  1
  O  O415  1  0.87709228  0.36364401  0.11840660  1
  O  O416  1  0.87358951  0.37675698  0.61242484  1
  O  O417  1  0.86808573  0.87050580  0.12028457  1
  O  O418  1  0.86608035  0.88046142  0.61366031  1
  O  O419  1  0.12252940  0.13809512  0.37466710  1
  O  O420  1  0.12950387  0.12650255  0.87830049  1
  O  O421  1  0.12978784  0.63417768  0.38869603  1
  O  O422  1  0.12292897  0.63430903  0.88297607  1
  O  O423  1  0.63346130  0.13309762  0.38105328  1
  O  O424  1  0.62968317  0.13482387  0.86994556  1
  O  O425  1  0.63272184  0.63012382  0.38206098  1
  O  O426  1  0.62865801  0.62416611  0.88336456  1
