# generated using pymatgen
data_V85Zn86O256
_symmetry_space_group_name_H-M   'P 1'
_cell_length_a   16.93678570
_cell_length_b   16.94900128
_cell_length_c   16.95561386
_cell_angle_alpha   90.00118122
_cell_angle_beta   90.06041857
_cell_angle_gamma   89.93629210
_symmetry_Int_Tables_number   1
_chemical_formula_structural   V85Zn86O256
_chemical_formula_sum   'V85 Zn86 O256'
_cell_volume   4867.29996923
_cell_formula_units_Z   1
loop_
 _symmetry_equiv_pos_site_id
 _symmetry_equiv_pos_as_xyz
  1  'x, y, z'
loop_
 _atom_site_type_symbol
 _atom_site_label
 _atom_site_symmetry_multiplicity
 _atom_site_fract_x
 _atom_site_fract_y
 _atom_site_fract_z
 _atom_site_occupancy
  V  V0  1  0.74414285  0.63738162  0.88186518  1
  V  V1  1  0.01028385  0.50301257  -0.00038486  1
  V  V2  1  0.12372226  0.75108052  0.37617584  1
  V  V3  1  0.36460306  0.87665170  -0.00199349  1
  V  V4  1  0.50053817  0.24974636  0.25014790  1
  V  V5  1  0.26360930  0.25469072  0.49703445  1
  V  V6  1  0.25175789  0.25239116  -0.00010034  1
  V  V7  1  -0.00047623  0.25547009  0.75751260  1
  V  V8  1  0.11811666  0.00808281  0.62238896  1
  V  V9  1  0.55115253  0.81521759  0.92423191  1
  V  V10  1  0.88073598  0.37854972  -0.00382224  1
  V  V11  1  0.87809714  0.50318804  0.37875911  1
  V  V12  1  0.11545129  0.62121413  0.50071098  1
  V  V13  1  0.63212307  -0.00328435  0.12654890  1
  V  V14  1  0.50118610  0.49714120  0.50316096  1
  V  V15  1  0.25303006  0.74766343  0.50615804  1
  V  V16  1  0.63285141  0.87556394  0.25389138  1
  V  V17  1  0.87083468  0.13431362  0.25709906  1
  V  V18  1  0.62380769  0.86678530  0.75006492  1
  V  V19  1  0.38186580  -0.00534365  0.37581520  1
  V  V20  1  0.86961992  0.00149172  0.37603632  1
  V  V21  1  0.57010848  0.31439070  0.70176283  1
  V  V22  1  0.24708944  0.12357653  0.37569094  1
  V  V23  1  0.26024198  0.37210679  0.61774459  1
  V  V24  1  0.12627211  0.12769464  -0.00042645  1
  V  V25  1  0.11272804  0.49704009  0.62067479  1
  V  V26  1  0.75736853  0.12273975  0.87502141  1
  V  V27  1  0.73488015  0.49630475  0.75158520  1
  V  V28  1  -0.00445327  0.00752231  -0.01292646  1
  V  V29  1  0.86798027  0.87998139  -0.00255187  1
  V  V30  1  0.87506178  0.49880304  0.87318559  1
  V  V31  1  0.01043481  0.62453376  0.12127573  1
  V  V32  1  0.62477868  0.62058065  0.50808183  1
  V  V33  1  0.38105426  -0.00233694  0.86810494  1
  V  V34  1  -0.00406552  0.75391946  0.24961659  1
  V  V35  1  0.25305550  0.00709111  0.74617459  1
  V  V36  1  0.25809630  0.12947351  0.87083054  1
  V  V37  1  0.75019053  0.37758309  0.12401863  1
  V  V38  1  -0.00026989  0.37664421  0.37497292  1
  V  V39  1  0.25248919  0.49757998  0.74763145  1
  V  V40  1  0.87040301  0.62997968  0.74250230  1
  V  V41  1  0.49051239  0.62690289  0.62319682  1
  V  V42  1  0.49622131  0.75924966  0.26019406  1
  V  V43  1  0.11633801  0.37726437  0.24388362  1
  V  V44  1  0.88591727  0.11905654  0.74837835  1
  V  V45  1  0.49801599  0.50965097  -0.00096397  1
  V  V46  1  0.49786703  0.37143357  0.37465292  1
  V  V47  1  0.49184945  0.75578735  0.74321564  1
  V  V48  1  0.50400514  0.37976134  0.87683836  1
  V  V49  1  0.50140209  0.00594671  -0.00387490  1
  V  V50  1  0.63090491  0.12043923  0.50563799  1
  V  V51  1  0.37622880  0.25169877  0.12358090  1
  V  V52  1  0.86236546  0.75498635  0.11926229  1
  V  V53  1  0.12094144  0.25078259  0.37216302  1
  V  V54  1  0.37545819  0.62297196  0.75793996  1
  V  V55  1  0.88318096  0.24480874  0.62331686  1
  V  V56  1  0.62188824  0.75609805  0.38100109  1
  V  V57  1  0.37587621  0.62598335  0.25007568  1
  V  V58  1  0.74915131  0.50286512  0.25069574  1
  V  V59  1  0.74835284  0.62499161  0.37694218  1
  V  V60  1  0.75725496  -0.00432024  0.75479083  1
  V  V61  1  0.62156847  0.25002389  0.87580009  1
  V  V62  1  -0.00058251  0.13036948  0.13237537  1
  V  V63  1  0.02343153  0.83897623  0.89965348  1
  V  V64  1  0.75549935  0.74854551  0.50870756  1
  V  V65  1  0.24692514  0.37802329  0.12442611  1
  V  V66  1  0.12372829  0.86745818  0.75212314  1
  V  V67  1  0.37485573  0.49484832  0.37847035  1
  V  V68  1  0.87954819  0.37731195  0.50161701  1
  V  V69  1  0.88238313  0.87365605  0.50534298  1
  V  V70  1  0.75785413  0.87027477  0.63123656  1
  V  V71  1  0.37454101  0.12437716  0.25139787  1
  V  V72  1  0.12441779  0.88191998  0.25268781  1
  V  V73  1  0.50196525  0.12424194  0.12499466  1
  V  V74  1  0.75078874  0.37646933  0.62888092  1
  V  V75  1  0.11809838  0.37473200  0.75083690  1
  V  V76  1  0.37662217  0.37989634  -0.00331831  1
  V  V77  1  0.25379693  0.87260577  0.62573825  1
  V  V78  1  0.24787153  0.62363259  0.37654137  1
  V  V79  1  0.75261996  0.25124055  -0.00004070  1
  V  V80  1  0.24354122  0.50072314  0.24548145  1
  V  V81  1  0.63556731  0.24110040  0.37097497  1
  V  V82  1  0.36776744  0.75503880  0.12665829  1
  V  V83  1  0.38365498  0.87052490  0.49969964  1
  V  V84  1  0.62488725  0.50499463  0.12254211  1
  Zn  Zn85  1  -0.00031505  0.87968194  0.37802160  1
  Zn  Zn86  1  0.75559629  0.24603990  0.49722623  1
  Zn  Zn87  1  0.23967584  0.60500138  0.87170293  1
  Zn  Zn88  1  0.87374476  0.62793556  0.24705809  1
  Zn  Zn89  1  0.48221018  0.12093899  0.63950522  1
  Zn  Zn90  1  0.75242920  0.00043501  0.25103467  1
  Zn  Zn91  1  0.25017315  -0.00011055  0.24899027  1
  Zn  Zn92  1  0.24652554  0.87913695  0.12501863  1
  Zn  Zn93  1  0.16320958  0.70886306  -0.06248445  1
  Zn  Zn94  1  0.62187135  0.00044794  0.63091713  1
  Zn  Zn95  1  0.12510993  0.00332267  0.12554317  1
  Zn  Zn96  1  0.62580424  0.37610578  0.25126490  1
  Zn  Zn97  1  0.62984683  0.12322943  0.00119215  1
  Zn  Zn98  1  0.50081788  0.62740660  0.12765828  1
  Zn  Zn99  1  0.87999410  0.25471437  0.12979562  1
  Zn  Zn100  1  -0.00653937  0.01720293  0.50666223  1
  Zn  Zn101  1  0.12036423  0.13646480  0.50954388  1
  Zn  Zn102  1  -0.00468619  0.74971965  0.74381381  1
  Zn  Zn103  1  0.50109207  0.00169839  0.50306709  1
  Zn  Zn104  1  0.12319387  0.25285951  0.87211751  1
  Zn  Zn105  1  -0.01003111  0.62760369  0.61841330  1
  Zn  Zn106  1  0.62616754  0.63978083  -0.00057420  1
  Zn  Zn107  1  0.18576116  0.19080577  0.18947200  1
  Zn  Zn108  1  0.31089482  0.19348967  0.68169095  1
  Zn  Zn109  1  0.18620145  0.69203645  0.18894399  1
  Zn  Zn110  1  0.18587695  0.68465318  0.68735889  1
  Zn  Zn111  1  0.69084166  0.18593272  0.18631990  1
  Zn  Zn112  1  0.69973280  0.18252500  0.68342742  1
  Zn  Zn113  1  0.68576942  0.68861393  0.18953892  1
  Zn  Zn114  1  0.68402981  0.68521749  0.69067643  1
  Zn  Zn115  1  0.31003122  0.31284442  0.31141237  1
  Zn  Zn116  1  0.30891026  0.32411106  0.81639267  1
  Zn  Zn117  1  0.30767781  0.81437590  0.31698457  1
  Zn  Zn118  1  0.31037118  0.81351888  0.81127464  1
  Zn  Zn119  1  0.81349928  0.31654063  0.31052056  1
  Zn  Zn120  1  0.81264873  0.31255577  0.81190248  1
  Zn  Zn121  1  0.81293973  0.81277729  0.31796103  1
  Zn  Zn122  1  0.82104809  0.81297747  0.82238293  1
  Zn  Zn123  1  0.18560777  0.43791828  0.43712796  1
  Zn  Zn124  1  0.18622822  0.43824250  0.93237153  1
  Zn  Zn125  1  0.18858970  0.93795598  0.43977378  1
  Zn  Zn126  1  0.18778300  0.94404370  0.93610652  1
  Zn  Zn127  1  0.68748610  0.43379331  0.43870914  1
  Zn  Zn128  1  0.68682190  0.44037639  0.93640441  1
  Zn  Zn129  1  0.69222236  0.93637902  0.44020291  1
  Zn  Zn130  1  0.69106500  0.94201321  0.93745179  1
  Zn  Zn131  1  0.31209423  0.06144993  0.06319868  1
  Zn  Zn132  1  0.30912885  0.05927001  0.55684303  1
  Zn  Zn133  1  0.30716648  0.56395519  0.06256534  1
  Zn  Zn134  1  0.31026541  0.55903191  0.56357244  1
  Zn  Zn135  1  0.81598546  0.06323219  0.06669161  1
  Zn  Zn136  1  0.80937943  0.06000516  0.56583899  1
  Zn  Zn137  1  0.81569079  0.56775061  0.06112128  1
  Zn  Zn138  1  0.80711744  0.55516046  0.56379771  1
  Zn  Zn139  1  0.43707062  0.43895191  0.18829822  1
  Zn  Zn140  1  0.43523276  0.44028489  0.68404752  1
  Zn  Zn141  1  0.44039562  0.93854749  0.18931656  1
  Zn  Zn142  1  0.43782447  0.93919923  0.68285329  1
  Zn  Zn143  1  0.93607192  0.44306602  0.18688528  1
  Zn  Zn144  1  0.93389602  0.44117138  0.68998518  1
  Zn  Zn145  1  0.93834905  0.94354085  0.18372443  1
  Zn  Zn146  1  0.94223284  0.93268314  0.69466600  1
  Zn  Zn147  1  0.05362458  0.06358827  0.31885971  1
  Zn  Zn148  1  0.06988335  0.06564670  0.80817917  1
  Zn  Zn149  1  0.05940088  0.56287677  0.31014103  1
  Zn  Zn150  1  0.05831788  0.56421933  0.81282725  1
  Zn  Zn151  1  0.56216487  0.06182457  0.31471144  1
  Zn  Zn152  1  0.57027189  0.05856415  0.81168301  1
  Zn  Zn153  1  0.56253234  0.56564867  0.31480674  1
  Zn  Zn154  1  0.55994963  0.56761184  0.81594365  1
  Zn  Zn155  1  0.44072044  0.18114398  0.44221871  1
  Zn  Zn156  1  0.43971332  0.18690133  0.81527310  1
  Zn  Zn157  1  0.43558882  0.68582207  0.43782698  1
  Zn  Zn158  1  0.34679611  0.69349539  0.94175822  1
  Zn  Zn159  1  0.94171654  0.18972515  0.43622589  1
  Zn  Zn160  1  0.93687813  0.18953334  0.93700354  1
  Zn  Zn161  1  0.93581153  0.68994729  0.43661248  1
  Zn  Zn162  1  0.93217927  0.68222037  0.93910706  1
  Zn  Zn163  1  0.06152040  0.31166301  0.06227664  1
  Zn  Zn164  1  0.06317839  0.31042450  0.56184635  1
  Zn  Zn165  1  0.05479428  0.81985980  0.07397878  1
  Zn  Zn166  1  0.06576636  0.80816221  0.57019716  1
  Zn  Zn167  1  0.56459310  0.31400041  0.06054128  1
  Zn  Zn168  1  0.56083615  0.30758191  0.54166032  1
  Zn  Zn169  1  0.55233570  0.81785835  0.08507239  1
  Zn  Zn170  1  0.56649135  0.81121262  0.56796262  1
  O  O171  1  0.11884923  0.12822270  0.11828209  1
  O  O172  1  0.13079324  0.10592949  0.62753376  1
  O  O173  1  0.10990085  0.63502296  0.12462428  1
  O  O174  1  0.12639904  0.61353569  0.61585960  1
  O  O175  1  0.61795637  0.11867329  0.12426289  1
  O  O176  1  0.62994053  0.12343022  0.61354702  1
  O  O177  1  0.62275942  0.62099228  0.11940065  1
  O  O178  1  0.61575798  0.62704544  0.61259570  1
  O  O179  1  0.38348833  0.38499613  0.36566134  1
  O  O180  1  0.39077778  0.37331914  0.88574555  1
  O  O181  1  0.36859314  0.88345486  0.38543556  1
  O  O182  1  0.37178568  0.88878096  0.88328002  1
  O  O183  1  0.88033481  0.38106386  0.38045274  1
  O  O184  1  0.86746503  0.38403089  0.88563104  1
  O  O185  1  0.87636611  0.88113919  0.38729734  1
  O  O186  1  0.89483574  0.86602382  0.89407284  1
  O  O187  1  0.25686900  0.00967734  0.37466837  1
  O  O188  1  0.25757292  0.00829956  0.86605602  1
  O  O189  1  0.25727253  0.50253046  0.36664074  1
  O  O190  1  0.25254778  0.48837861  0.85309396  1
  O  O191  1  0.76457853  -0.00297086  0.37464746  1
  O  O192  1  0.75046075  0.00880232  0.86531582  1
  O  O193  1  0.75403211  0.50493931  0.37096939  1
  O  O194  1  0.75625957  0.50491508  0.86882844  1
  O  O195  1  0.25421188  0.49553948  0.13901180  1
  O  O196  1  0.24126375  0.48926554  0.62789785  1
  O  O197  1  0.24463946  1.00011464  0.13075259  1
  O  O198  1  0.24363751  0.99214701  0.63031880  1
  O  O199  1  0.74471291  0.49726721  0.12780617  1
  O  O200  1  0.74815623  0.48490752  0.63329684  1
  O  O201  1  0.73582656  1.00479106  0.12671508  1
  O  O202  1  0.74693514  0.99050116  0.63959817  1
  O  O203  1  0.00953410  0.38180942  0.25389824  1
  O  O204  1  0.00541361  0.36999881  0.74577289  1
  O  O205  1  0.00518748  0.86927976  0.25061890  1
  O  O206  1  0.01000173  0.86999171  0.76328586  1
  O  O207  1  0.50340646  0.36994952  0.25878380  1
  O  O208  1  0.50694600  0.37998464  0.75444932  1
  O  O209  1  0.50833056  0.86450730  0.25212672  1
  O  O210  1  0.50922835  0.86620112  0.74155185  1
  O  O211  1  0.49415127  0.13043907  0.24536818  1
  O  O212  1  0.50936508  0.12739295  0.75039677  1
  O  O213  1  0.49046266  0.63429075  0.25302302  1
  O  O214  1  0.49538089  0.63017545  0.74101342  1
  O  O215  1  0.98738198  0.12214092  0.24305957  1
  O  O216  1  0.99029078  0.13237821  0.75341478  1
  O  O217  1  0.99685404  0.63271941  0.23969998  1
  O  O218  1  0.97792252  0.61903227  0.74900383  1
  O  O219  1  0.36835128  0.26651630  0.01008277  1
  O  O220  1  0.36270893  0.25368379  0.48532851  1
  O  O221  1  0.38934300  0.76645845  0.01517221  1
  O  O222  1  0.36131176  0.75476561  0.49245558  1
  O  O223  1  0.86576400  0.25951978  0.00047772  1
  O  O224  1  0.87354064  0.25754040  0.50626607  1
  O  O225  1  0.88066689  0.76054967  0.01319649  1
  O  O226  1  0.86269783  0.75608359  0.49656739  1
  O  O227  1  0.13318322  0.25573914  0.48548229  1
  O  O228  1  0.13026904  0.24229149  0.99638284  1
  O  O229  1  0.13408522  0.74313863  0.49454212  1
  O  O230  1  0.08944901  0.78362535  0.97389836  1
  O  O231  1  0.63218825  0.23925450  0.48766688  1
  O  O232  1  0.63720391  0.24870489  0.99413860  1
  O  O233  1  0.63333959  0.74459089  0.49634769  1
  O  O234  1  0.60128444  0.75868536  0.99421735  1
  O  O235  1  0.49758287  0.24586888  0.12966635  1
  O  O236  1  0.51328017  0.26062077  0.63823800  1
  O  O237  1  0.48632111  0.74641558  0.14260278  1
  O  O238  1  0.50264741  0.73904954  0.63177378  1
  O  O239  1  0.99661743  0.23643972  0.12013117  1
  O  O240  1  0.98727833  0.25690579  0.63345312  1
  O  O241  1  0.99202843  0.74344570  0.13528361  1
  O  O242  1  1.00512056  0.73959483  0.63198095  1
  O  O243  1  0.00664246  0.26663417  0.37404612  1
  O  O244  1  0.00013724  0.24993643  0.86243744  1
  O  O245  1  0.00284173  0.75123071  0.36280858  1
  O  O246  1  -0.00874938  0.74623518  0.86280262  1
  O  O247  1  0.50708329  0.25572279  0.37086423  1
  O  O248  1  0.51637256  0.25640956  0.87669724  1
  O  O249  1  0.50896929  0.74494083  0.37140382  1
  O  O250  1  0.49692978  0.75623789  0.86527451  1
  O  O251  1  0.24241298  0.13475104  0.48744956  1
  O  O252  1  0.24462998  0.13042445  0.99355796  1
  O  O253  1  0.24406671  0.63056999  0.49585222  1
  O  O254  1  0.26005946  0.62949940  0.98761916  1
  O  O255  1  0.73750882  0.12723083  0.50154354  1
  O  O256  1  0.75442316  0.13369772  0.99391117  1
  O  O257  1  0.74291459  0.62994269  0.49956574  1
  O  O258  1  0.74760773  0.62461926  0.98666490  1
  O  O259  1  0.25668952  0.37536185  0.00367998  1
  O  O260  1  0.24690351  0.37099780  0.50915075  1
  O  O261  1  0.26089202  0.88225709  0.00253732  1
  O  O262  1  0.25466914  0.86584701  0.50739056  1
  O  O263  1  0.75647381  0.37107165  0.00653535  1
  O  O264  1  0.75998445  0.37322549  0.50777039  1
  O  O265  1  0.76855334  0.87839221  -0.00836100  1
  O  O266  1  0.75798662  0.86703189  0.51167196  1
  O  O267  1  0.13397086  0.49242218  0.25524760  1
  O  O268  1  0.12881270  0.49381889  0.73843104  1
  O  O269  1  0.12116424  0.98997379  0.25563374  1
  O  O270  1  0.13338926  0.99337372  0.74050058  1
  O  O271  1  0.62908773  0.50196099  0.23946804  1
  O  O272  1  0.63559630  0.50405568  0.75388890  1
  O  O273  1  0.62533267  0.99270413  0.24690801  1
  O  O274  1  0.63648584  0.98244009  0.75383059  1
  O  O275  1  0.37490968  0.00579228  0.25786391  1
  O  O276  1  0.36693343  -0.00645817  0.75771049  1
  O  O277  1  0.36967230  0.50878186  0.25775871  1
  O  O278  1  0.36486130  0.50949083  0.73953226  1
  O  O279  1  0.87418077  0.00705221  0.25797701  1
  O  O280  1  0.87061548  0.00723877  0.74748840  1
  O  O281  1  0.86732820  0.50244869  0.26170112  1
  O  O282  1  0.86410014  0.50616600  0.75815821  1
  O  O283  1  0.11662576  0.37354144  0.36840937  1
  O  O284  1  0.12996182  0.37244658  0.85531291  1
  O  O285  1  0.12146463  0.86904781  0.37205042  1
  O  O286  1  0.11774753  0.88759423  0.86483009  1
  O  O287  1  0.61772525  0.36241143  0.37360563  1
  O  O288  1  0.61527287  0.36682974  0.88124664  1
  O  O289  1  0.62773020  0.86287848  0.37502395  1
  O  O290  1  0.62150147  0.87119797  0.87225110  1
  O  O291  1  0.38254040  0.13084318  0.12945126  1
  O  O292  1  0.37244844  0.13176576  0.61114526  1
  O  O293  1  0.37446490  0.63251491  0.13867569  1
  O  O294  1  0.38636107  0.62138643  0.62741773  1
  O  O295  1  0.88181500  0.12825085  0.13687529  1
  O  O296  1  0.86749114  0.13387736  0.63585293  1
  O  O297  1  0.88072064  0.64062622  0.12587982  1
  O  O298  1  0.86931672  0.61584934  0.63856133  1
  O  O299  1  0.25531703  0.25661310  0.11973298  1
  O  O300  1  0.24542542  0.26442228  0.61208500  1
  O  O301  1  0.26334042  0.75537357  0.13176431  1
  O  O302  1  0.24523065  0.75685662  0.61537926  1
  O  O303  1  0.75134041  0.25960416  0.11667430  1
  O  O304  1  0.76320993  0.26116947  0.62530419  1
  O  O305  1  0.76352625  0.74968736  0.12877724  1
  O  O306  1  0.74518102  0.75526008  0.61831891  1
  O  O307  1  0.24284519  0.24584022  0.37884450  1
  O  O308  1  0.24866021  0.24477022  0.88344797  1
  O  O309  1  0.24176474  0.74214912  0.38185203  1
  O  O310  1  0.25990532  0.74063206  0.87904779  1
  O  O311  1  0.73763908  0.25549880  0.37349265  1
  O  O312  1  0.74298779  0.24650578  0.88154970  1
  O  O313  1  0.74289109  0.74330880  0.38522295  1
  O  O314  1  0.75119414  0.73580262  0.87284811  1
  O  O315  1  0.00635976  0.12497719  0.00493719  1
  O  O316  1  0.00789325  0.13005084  0.50183318  1
  O  O317  1  -0.00541730  0.61836746  0.01247192  1
  O  O318  1  0.01172350  0.62815490  0.49730767  1
  O  O319  1  0.50436053  0.11084012  0.00780207  1
  O  O320  1  0.51759023  0.12731395  0.50615370  1
  O  O321  1  0.50082044  0.61172780  0.00332622  1
  O  O322  1  0.50503074  0.61904520  0.50449783  1
  O  O323  1  0.50012940  0.38309807  0.48492310  1
  O  O324  1  0.49502295  0.38204484  0.99477394  1
  O  O325  1  0.48630437  0.87015686  0.50778413  1
  O  O326  1  0.49800129  0.88073487  0.99248706  1
  O  O327  1  0.98729726  0.37357138  0.49264413  1
  O  O328  1  0.98596035  0.38315525  1.01001755  1
  O  O329  1  0.98690108  0.86922509  0.50429444  1
  O  O330  1  0.99482246  0.89171218  0.99825486  1
  O  O331  1  0.49405689  0.49340297  0.37912499  1
  O  O332  1  0.50746995  0.49164703  0.88620082  1
  O  O333  1  0.48592647  1.00516054  0.38121041  1
  O  O334  1  0.49290195  1.00399477  0.88345371  1
  O  O335  1  0.99049780  0.49011155  0.37086010  1
  O  O336  1  0.98280318  0.50536016  0.88468138  1
  O  O337  1  0.98649115  0.99722823  0.38500481  1
  O  O338  1  1.00112171  1.01466345  0.88736645  1
  O  O339  1  0.00295450  0.01560654  0.11496378  1
  O  O340  1  0.01424514  -0.00691845  0.62563358  1
  O  O341  1  -0.00668151  0.51751718  0.11888779  1
  O  O342  1  0.00943267  0.50360687  0.62503413  1
  O  O343  1  0.50941684  0.00366971  0.11909872  1
  O  O344  1  0.50565102  0.00350885  0.62056920  1
  O  O345  1  0.50896093  0.50147514  0.12128976  1
  O  O346  1  0.49702863  0.50390633  0.60868926  1
  O  O347  1  0.24118664  0.38343809  0.24568674  1
  O  O348  1  0.24142246  0.37889094  0.73447389  1
  O  O349  1  0.23788142  0.87770756  0.25124726  1
  O  O350  1  0.24604917  0.88468777  0.74311312  1
  O  O351  1  0.74793804  0.38325262  0.24093093  1
  O  O352  1  0.75371751  0.38315375  0.74205897  1
  O  O353  1  0.73669307  0.87561190  0.25681160  1
  O  O354  1  0.74994456  0.87602676  0.75025662  1
  O  O355  1  0.25576781  0.12693492  0.26099731  1
  O  O356  1  0.25034363  0.11423082  0.75613236  1
  O  O357  1  0.25341393  0.61922599  0.25522953  1
  O  O358  1  0.25848536  0.61507110  0.74616546  1
  O  O359  1  0.76650872  0.12198986  0.24634499  1
  O  O360  1  0.75922158  0.11460504  0.75653026  1
  O  O361  1  0.75070550  0.62067614  0.25838113  1
  O  O362  1  0.75408933  0.61699353  0.75647058  1
  O  O363  1  0.36712890  0.11822820  0.37200719  1
  O  O364  1  0.36444873  0.11386413  0.87817560  1
  O  O365  1  0.36857866  0.61907153  0.36539161  1
  O  O366  1  0.38168237  0.61874172  0.85853065  1
  O  O367  1  0.87937632  0.12078064  0.36345272  1
  O  O368  1  0.86366303  0.13376438  0.86535723  1
  O  O369  1  0.86888433  0.61794245  0.37393376  1
  O  O370  1  0.86130216  0.61783558  0.86811659  1
  O  O371  1  0.13211860  0.36916297  0.13442254  1
  O  O372  1  0.12881921  0.38216492  0.62905946  1
  O  O373  1  0.12587246  0.88029194  0.13776511  1
  O  O374  1  0.13610658  0.88134297  0.63246624  1
  O  O375  1  0.63603587  0.38293365  0.12604289  1
  O  O376  1  0.62856792  0.36300755  0.63100012  1
  O  O377  1  0.62287152  0.88406111  0.14008357  1
  O  O378  1  0.63921455  0.87531646  0.63409726  1
  O  O379  1  0.13082148  0.26346904  0.26324283  1
  O  O380  1  0.11026252  0.26051109  0.74642152  1
  O  O381  1  0.11663873  0.76035059  0.25590772  1
  O  O382  1  0.13102098  0.76481398  0.74946044  1
  O  O383  1  0.62053554  0.24841880  0.25794876  1
  O  O384  1  0.63381745  0.25221133  0.75653038  1
  O  O385  1  0.61767159  0.75594724  0.25956177  1
  O  O386  1  0.61550148  0.75911997  0.74913295  1
  O  O387  1  0.38057484  0.24463296  0.24470531  1
  O  O388  1  0.36848637  0.25120891  0.75780769  1
  O  O389  1  0.37914509  0.74608862  0.25183274  1
  O  O390  1  0.38561976  0.74309504  0.74881926  1
  O  O391  1  0.87287353  0.23882146  0.25029165  1
  O  O392  1  0.88078704  0.24402537  0.74350735  1
  O  O393  1  0.88077979  0.75358989  0.24212046  1
  O  O394  1  0.86727904  0.73213255  0.75048874  1
  O  O395  1  0.38197176  0.50778511  0.48475940  1
  O  O396  1  0.38448375  0.48789015  1.01107310  1
  O  O397  1  0.37409703  0.98741293  0.49214139  1
  O  O398  1  0.38461863  0.99330123  0.99557675  1
  O  O399  1  0.86952241  0.49334701  0.48713901  1
  O  O400  1  0.87776298  0.49472236  0.99352858  1
  O  O401  1  0.87435773  0.99123278  0.49819912  1
  O  O402  1  0.88139913  0.98964735  1.00577393  1
  O  O403  1  0.11894930  0.01576726  0.00010796  1
  O  O404  1  0.12453856  -0.00189283  0.51440656  1
  O  O405  1  0.10900371  0.48773662  -0.00103536  1
  O  O406  1  0.12972316  0.50973717  0.50705028  1
  O  O407  1  0.61886562  -0.00167910  0.00767277  1
  O  O408  1  0.62553801  0.01054364  0.49825828  1
  O  O409  1  0.61843867  0.49912708  0.01262344  1
  O  O410  1  0.61444515  0.50916003  0.49082145  1
  O  O411  1  0.36760748  0.37089249  0.12316141  1
  O  O412  1  0.35912529  0.37873258  0.62276688  1
  O  O413  1  0.37523590  0.87164554  0.11914129  1
  O  O414  1  0.36086208  0.87835937  0.61640939  1
  O  O415  1  0.86424486  0.37663198  0.12006260  1
  O  O416  1  0.86949567  0.37232106  0.61749650  1
  O  O417  1  0.88171886  0.86499673  0.11398172  1
  O  O418  1  0.86506538  0.87788742  0.62278824  1
  O  O419  1  0.13072169  0.13561691  0.37080869  1
  O  O420  1  0.13924508  0.12827959  0.88078700  1
  O  O421  1  0.12903471  0.62832201  0.38093839  1
  O  O422  1  0.12680316  0.61795714  0.87937346  1
  O  O423  1  0.62182332  0.13572165  0.38186937  1
  O  O424  1  0.64020977  0.13215863  0.87874541  1
  O  O425  1  0.62844608  0.63483686  0.38596244  1
  O  O426  1  0.63867987  0.62403812  0.87945470  1
