# generated using pymatgen
data_V85Zn86O256
_symmetry_space_group_name_H-M   'P 1'
_cell_length_a   16.94845406
_cell_length_b   16.94352652
_cell_length_c   16.94753541
_cell_angle_alpha   89.98403695
_cell_angle_beta   89.92634048
_cell_angle_gamma   89.93876490
_symmetry_Int_Tables_number   1
_chemical_formula_structural   V85Zn86O256
_chemical_formula_sum   'V85 Zn86 O256'
_cell_volume   4866.75880730
_cell_formula_units_Z   1
loop_
 _symmetry_equiv_pos_site_id
 _symmetry_equiv_pos_as_xyz
  1  'x, y, z'
loop_
 _atom_site_type_symbol
 _atom_site_label
 _atom_site_symmetry_multiplicity
 _atom_site_fract_x
 _atom_site_fract_y
 _atom_site_fract_z
 _atom_site_occupancy
  V  V0  1  0.12887552  0.36986574  0.75602581  1
  V  V1  1  0.62674948  0.50386130  0.12480716  1
  V  V2  1  0.00121057  0.87416166  0.87218389  1
  V  V3  1  0.48983173  0.62756371  0.63758053  1
  V  V4  1  0.24213549  0.75946054  0.49883287  1
  V  V5  1  0.87209884  0.86381685  0.49998279  1
  V  V6  1  0.87503754  0.49954150  0.37333988  1
  V  V7  1  0.87586019  0.74842924  0.12651148  1
  V  V8  1  0.49879088  0.75114584  0.25403425  1
  V  V9  1  0.37492984  0.87986623  -0.00310942  1
  V  V10  1  0.74627905  -0.00221238  0.74990484  1
  V  V11  1  0.24569385  0.87553278  0.12559158  1
  V  V12  1  0.12802965  0.74979925  0.87289109  1
  V  V13  1  0.37617080  0.50503166  0.87096171  1
  V  V14  1  0.49752863  0.37209931  0.37192610  1
  V  V15  1  0.62294860  0.12492402  0.50317150  1
  V  V16  1  0.87883677  0.60976702  0.75121603  1
  V  V17  1  0.00774255  0.62514934  0.62367622  1
  V  V18  1  0.50305634  0.37743273  0.87521955  1
  V  V19  1  0.62512549  0.62582826  0.50319210  1
  V  V20  1  0.75096637  0.24878953  0.50114806  1
  V  V21  1  0.12784298  0.25003575  0.37346187  1
  V  V22  1  0.50097288  0.62905421  0.12626259  1
  V  V23  1  0.25065411  0.00053270  0.75314730  1
  V  V24  1  0.87329366  -0.00316697  0.87414132  1
  V  V25  1  0.87760424  -0.00318493  0.37608399  1
  V  V26  1  0.87377031  0.86686679  -0.00309297  1
  V  V27  1  0.24839770  -0.00018069  0.25069579  1
  V  V28  1  0.49361745  0.25286445  0.74587539  1
  V  V29  1  0.25182707  0.12680094  0.37799780  1
  V  V30  1  0.62085832  0.23961196  0.87571470  1
  V  V31  1  0.11698961  0.01250858  0.12383718  1
  V  V32  1  0.87792537  0.62667791  0.25034406  1
  V  V33  1  0.36590001  0.37833462  0.00938635  1
  V  V34  1  0.00731969  0.50260740  0.49779041  1
  V  V35  1  0.75516239  0.37951486  0.12383584  1
  V  V36  1  0.48916226  0.12921709  0.62500172  1
  V  V37  1  0.12980898  0.49340139  0.62216808  1
  V  V38  1  0.37405760  0.13062999  0.24547326  1
  V  V39  1  0.75130927  0.37819526  0.63153606  1
  V  V40  1  0.49423043  -0.00857098  0.50385585  1
  V  V41  1  0.62035376  0.85896402  0.75659085  1
  V  V42  1  0.74483652  0.24278620  -0.00278432  1
  V  V43  1  0.62385721  -0.00009997  0.62686972  1
  V  V44  1  0.74984243  0.62536291  0.86201525  1
  V  V45  1  0.12134338  0.12671383  0.50583262  1
  V  V46  1  0.62855716  0.75217448  0.38395149  1
  V  V47  1  0.00307466  0.37216578  0.37070022  1
  V  V48  1  0.75184008  0.62890095  0.38034583  1
  V  V49  1  0.25420642  0.49460608  0.74403961  1
  V  V50  1  0.50202894  0.50425191  -0.00014821  1
  V  V51  1  0.25448066  0.25373239  0.51511430  1
  V  V52  1  0.37133754  0.76655211  0.62233238  1
  V  V53  1  0.87201235  0.38163227  -0.01229757  1
  V  V54  1  0.75166053  -0.00300246  0.24922111  1
  V  V55  1  0.63003477  0.50296841  0.63326733  1
  V  V56  1  0.74789767  0.87183824  0.11731359  1
  V  V57  1  0.25283883  0.62539689  0.86733314  1
  V  V58  1  0.62242250  0.24971311  0.37513605  1
  V  V59  1  -0.00120010  0.00003052  0.50435795  1
  V  V60  1  0.24652585  0.50042135  0.24001903  1
  V  V61  1  0.88074800  0.24340392  0.12153049  1
  V  V62  1  0.12116490  0.86146607  0.25202196  1
  V  V63  1  0.25022467  0.74835774  0.00063144  1
  V  V64  1  0.88311940  0.24285386  0.62196166  1
  V  V65  1  0.54837130  0.19134933  0.19360808  1
  V  V66  1  0.23061984  0.62607265  0.38312940  1
  V  V67  1  0.00373974  0.86084899  0.37330960  1
  V  V68  1  0.87534125  0.37385939  0.50002274  1
  V  V69  1  0.37279415  -0.00661895  0.37827752  1
  V  V70  1  0.63408196  0.64377256  -0.00485376  1
  V  V71  1  0.24261635  0.24686432  0.00490932  1
  V  V72  1  0.13471325  0.87112718  0.74458296  1
  V  V73  1  0.50363667  0.01565257  0.00306479  1
  V  V74  1  0.37440564  0.37233848  0.51136984  1
  V  V75  1  0.12827571  -0.00474731  0.62392637  1
  V  V76  1  0.00255941  0.24556011  0.75842971  1
  V  V77  1  0.37573991  0.50561508  0.37695526  1
  V  V78  1  0.87925118  0.12025419  0.74535592  1
  V  V79  1  0.75179979  0.12238495  0.37776083  1
  V  V80  1  0.00589409  0.62323488  0.12626073  1
  V  V81  1  0.62332869  0.37632549  0.24963816  1
  V  V82  1  0.62265107  0.87627450  0.24997610  1
  V  V83  1  0.74916997  0.86548487  0.62218973  1
  V  V84  1  0.00083650  0.50603824  -0.01184781  1
  Zn  Zn85  1  0.13080258  0.61741701  0.00320728  1
  Zn  Zn86  1  0.24293159  0.13585393  0.87149546  1
  Zn  Zn87  1  0.50101497  0.49968888  0.50203552  1
  Zn  Zn88  1  0.88596160  0.11756301  0.24206131  1
  Zn  Zn89  1  0.50908562  0.86800404  0.88086164  1
  Zn  Zn90  1  0.37392956  0.62814908  0.25456294  1
  Zn  Zn91  1  0.01184206  0.24170469  0.23842516  1
  Zn  Zn92  1  0.62203901  0.01480478  0.12277546  1
  Zn  Zn93  1  0.10285908  0.14147363  -0.00968780  1
  Zn  Zn94  1  0.62965170  0.37857059  0.75328227  1
  Zn  Zn95  1  -0.00494354  0.00446271  0.00529788  1
  Zn  Zn96  1  0.74525232  0.12109050  0.87589909  1
  Zn  Zn97  1  -0.00281543  0.74993027  0.74682373  1
  Zn  Zn98  1  0.37381489  0.75329361  0.12914805  1
  Zn  Zn99  1  0.87341389  0.74385914  0.62493557  1
  Zn  Zn100  1  0.37678885  0.00712179  0.87428288  1
  Zn  Zn101  1  0.14215362  0.37171999  0.23422384  1
  Zn  Zn102  1  0.75187632  0.50082368  0.25167863  1
  Zn  Zn103  1  0.49427297  0.87130695  0.38096736  1
  Zn  Zn104  1  -0.00396474  0.37956694  0.86962273  1
  Zn  Zn105  1  0.36924475  0.13112083  0.75036800  1
  Zn  Zn106  1  0.37472811  0.25783806  0.13291651  1
  Zn  Zn107  1  0.19478716  0.19071143  0.18383508  1
  Zn  Zn108  1  0.18277032  0.18343203  0.68699872  1
  Zn  Zn109  1  0.18971444  0.68331170  0.18992816  1
  Zn  Zn110  1  0.19414740  0.68732400  0.68455990  1
  Zn  Zn111  1  0.71398592  0.19043813  0.19052190  1
  Zn  Zn112  1  0.68587049  0.18859874  0.68946499  1
  Zn  Zn113  1  0.68928800  0.68996705  0.19089506  1
  Zn  Zn114  1  0.69093745  0.68531349  0.68824632  1
  Zn  Zn115  1  0.31348634  0.31552633  0.31603246  1
  Zn  Zn116  1  0.31351123  0.31638836  0.81865683  1
  Zn  Zn117  1  0.30813997  0.81047951  0.31656170  1
  Zn  Zn118  1  0.35265044  0.79092980  0.82447322  1
  Zn  Zn119  1  0.81447620  0.31259779  0.30988975  1
  Zn  Zn120  1  0.81170005  0.30663671  0.81022282  1
  Zn  Zn121  1  0.81400651  0.81002737  0.31108238  1
  Zn  Zn122  1  0.81057115  0.80154460  0.81047755  1
  Zn  Zn123  1  0.19121875  0.43579880  0.43483222  1
  Zn  Zn124  1  0.18466131  0.43815505  0.93540817  1
  Zn  Zn125  1  0.18532552  0.93516751  0.43589026  1
  Zn  Zn126  1  0.18528808  0.94037327  0.93774401  1
  Zn  Zn127  1  0.68804942  0.43947328  0.44130458  1
  Zn  Zn128  1  0.68833079  0.44390531  0.93748753  1
  Zn  Zn129  1  0.68633811  0.93636752  0.43961101  1
  Zn  Zn130  1  0.68247831  0.93790535  0.93768647  1
  Zn  Zn131  1  0.31242823  0.06375139  0.06454483  1
  Zn  Zn132  1  0.30908394  0.05959781  0.56427817  1
  Zn  Zn133  1  0.31740789  0.56672518  0.06145703  1
  Zn  Zn134  1  0.31129913  0.56261641  0.55817234  1
  Zn  Zn135  1  0.81115132  0.05848470  0.05918115  1
  Zn  Zn136  1  0.81240675  0.05738614  0.56370387  1
  Zn  Zn137  1  0.81454753  0.56260300  0.05701673  1
  Zn  Zn138  1  0.81548547  0.56174515  0.56202597  1
  Zn  Zn139  1  0.43780144  0.44349553  0.19226596  1
  Zn  Zn140  1  0.44260350  0.44252684  0.68867740  1
  Zn  Zn141  1  0.43627984  0.94251193  0.18418073  1
  Zn  Zn142  1  0.43707915  0.93756742  0.68991197  1
  Zn  Zn143  1  0.96554228  0.42284768  0.17126958  1
  Zn  Zn144  1  0.94210761  0.43296294  0.68424638  1
  Zn  Zn145  1  0.93923638  0.93218590  0.18926616  1
  Zn  Zn146  1  0.94013582  0.93410448  0.68545555  1
  Zn  Zn147  1  0.06248037  0.05881599  0.31365947  1
  Zn  Zn148  1  0.06474519  0.06282284  0.81617413  1
  Zn  Zn149  1  0.06201686  0.56170480  0.30692833  1
  Zn  Zn150  1  0.06793765  0.56327191  0.81033248  1
  Zn  Zn151  1  0.56393125  0.05551025  0.32015404  1
  Zn  Zn152  1  0.55591296  0.05901988  0.81395340  1
  Zn  Zn153  1  0.56300452  0.56184485  0.31385895  1
  Zn  Zn154  1  0.56683079  0.56765315  0.81342333  1
  Zn  Zn155  1  0.43644890  0.18672639  0.43613974  1
  Zn  Zn156  1  0.42751591  0.19089443  0.93461417  1
  Zn  Zn157  1  0.43778061  0.68942453  0.44574291  1
  Zn  Zn158  1  0.44142024  0.69087798  0.93912274  1
  Zn  Zn159  1  0.94083316  0.18294782  0.43151850  1
  Zn  Zn160  1  0.93120436  0.18355345  0.93605262  1
  Zn  Zn161  1  0.94157228  0.68471037  0.44032497  1
  Zn  Zn162  1  0.93247276  0.68806540  0.93232903  1
  Zn  Zn163  1  0.06177830  0.32234931  0.05937305  1
  Zn  Zn164  1  0.06402986  0.31450710  0.56443122  1
  Zn  Zn165  1  0.06145865  0.81131078  0.06165601  1
  Zn  Zn166  1  0.06428715  0.81035237  0.55954519  1
  Zn  Zn167  1  0.56546958  0.31957540  0.05636641  1
  Zn  Zn168  1  0.56218470  0.31503514  0.56198708  1
  Zn  Zn169  1  0.55819752  0.81825516  0.06606899  1
  Zn  Zn170  1  0.55987022  0.80916161  0.56985634  1
  O  O171  1  0.12777097  0.11373615  0.12474181  1
  O  O172  1  0.12392318  0.11549911  0.61149372  1
  O  O173  1  0.10979121  0.63380977  0.12134182  1
  O  O174  1  0.11410518  0.61056335  0.63386087  1
  O  O175  1  0.61876434  0.13554293  0.14294475  1
  O  O176  1  0.61889078  0.11842564  0.62088252  1
  O  O177  1  0.61780115  0.62577713  0.11993731  1
  O  O178  1  0.62252726  0.62204560  0.61920653  1
  O  O179  1  0.38353747  0.38459778  0.38015949  1
  O  O180  1  0.38591278  0.38582482  0.88551995  1
  O  O181  1  0.37551722  0.88962702  0.36887585  1
  O  O182  1  0.35856586  0.88675518  0.89397890  1
  O  O183  1  0.87717584  0.37778667  0.38405516  1
  O  O184  1  0.87077268  0.37141223  0.88466558  1
  O  O185  1  0.87960246  0.87812500  0.38125295  1
  O  O186  1  0.87877009  0.87426805  0.87941067  1
  O  O187  1  0.25543629  0.00623693  0.37185319  1
  O  O188  1  0.24478502  -0.00004383  0.85993955  1
  O  O189  1  0.25726605  0.51195078  0.37262178  1
  O  O190  1  0.25706369  0.50524434  0.86859533  1
  O  O191  1  0.75527840  0.00080738  0.36860386  1
  O  O192  1  0.75421642  -0.00183994  0.86585204  1
  O  O193  1  0.75785956  0.50787840  0.37584018  1
  O  O194  1  0.75145108  0.52627815  0.89163113  1
  O  O195  1  0.25436188  0.51356506  0.14124886  1
  O  O196  1  0.24376937  0.50566118  0.63447467  1
  O  O197  1  0.24045489  0.99320194  0.12998772  1
  O  O198  1  0.23632154  1.00160319  0.63261747  1
  O  O199  1  0.74771078  0.49110945  0.12410903  1
  O  O200  1  0.74384619  0.48974718  0.61712654  1
  O  O201  1  0.74372969  0.99386739  0.13268569  1
  O  O202  1  0.74446963  0.98976876  0.63285993  1
  O  O203  1  -0.02016490  0.35963877  0.27089712  1
  O  O204  1  0.00572457  0.36507831  0.75131049  1
  O  O205  1  0.00827440  0.87536343  0.26036059  1
  O  O206  1  0.00768881  0.87164620  0.75673137  1
  O  O207  1  0.50659895  0.37995334  0.26275144  1
  O  O208  1  0.50425955  0.37129351  0.75852609  1
  O  O209  1  0.50750923  0.87049785  0.25158815  1
  O  O210  1  0.51981685  0.88295015  0.74872647  1
  O  O211  1  0.49465576  0.12639424  0.25551467  1
  O  O212  1  0.49821211  0.13311480  0.74163326  1
  O  O213  1  0.50246473  0.63454477  0.24378475  1
  O  O214  1  0.50386314  0.62525778  0.73607961  1
  O  O215  1  0.99416006  0.13357860  0.26778411  1
  O  O216  1  0.98700744  0.12800749  0.75103915  1
  O  O217  1  0.99283579  0.62123375  0.23690063  1
  O  O218  1  0.99272579  0.62322457  0.74300118  1
  O  O219  1  0.37225597  0.26705646  0.00592696  1
  O  O220  1  0.36592586  0.25885799  0.49331470  1
  O  O221  1  0.36258926  0.75927581  0.00642922  1
  O  O222  1  0.36346582  0.74303722  0.51181815  1
  O  O223  1  0.86523699  0.25822749  0.00626319  1
  O  O224  1  0.87199295  0.25149110  0.50501562  1
  O  O225  1  0.87435681  0.76081730  0.00597934  1
  O  O226  1  0.87660931  0.76046515  0.50224553  1
  O  O227  1  0.13113296  0.24375941  0.49775582  1
  O  O228  1  0.13697625  0.25535302  1.00778550  1
  O  O229  1  0.14135235  0.74997119  0.50143754  1
  O  O230  1  0.13808629  0.75189205  0.99282037  1
  O  O231  1  0.63195824  0.24443269  0.49566298  1
  O  O232  1  0.63316077  0.25701307  0.98867731  1
  O  O233  1  0.62155813  0.74543072  0.49080074  1
  O  O234  1  0.61856285  0.74144222  1.00274060  1
  O  O235  1  0.49937276  0.25290314  0.12770688  1
  O  O236  1  0.50887477  0.24160023  0.63390446  1
  O  O237  1  0.49917609  0.74611045  0.13647983  1
  O  O238  1  0.48458082  0.73792933  0.61971503  1
  O  O239  1  0.98274724  0.24941707  0.12154357  1
  O  O240  1  0.98662081  0.25400685  0.62999986  1
  O  O241  1  0.98558953  0.73914092  0.11679577  1
  O  O242  1  1.00029076  0.73662737  0.62304818  1
  O  O243  1  0.01656560  0.25687235  0.38518891  1
  O  O244  1  -0.01083759  0.25247446  0.86029196  1
  O  O245  1  -0.00114680  0.76132685  0.37969082  1
  O  O246  1  0.00590600  0.75976180  0.87394937  1
  O  O247  1  0.50968905  0.25859355  0.37947834  1
  O  O248  1  0.50471755  0.25961315  0.87200675  1
  O  O249  1  0.50735403  0.75181036  0.37131614  1
  O  O250  1  0.45980027  0.76720090  0.86272370  1
  O  O251  1  0.24415332  0.13187319  0.49536040  1
  O  O252  1  0.25104410  0.14198763  1.00458586  1
  O  O253  1  0.24849746  0.62626846  0.48591825  1
  O  O254  1  0.24983284  0.63205224  0.99263914  1
  O  O255  1  0.74362651  0.12753524  0.49714110  1
  O  O256  1  0.75132410  0.13866443  0.99773071  1
  O  O257  1  0.74228003  0.62261383  0.48916135  1
  O  O258  1  0.73425201  0.63034587  1.00836490  1
  O  O259  1  0.26256733  0.37786995  -0.00115776  1
  O  O260  1  0.26169300  0.36620582  0.49597435  1
  O  O261  1  0.25084317  0.87027326  0.00963378  1
  O  O262  1  0.25127645  0.85920502  0.48859634  1
  O  O263  1  0.75485524  0.37183474  0.00578052  1
  O  O264  1  0.75589547  0.36746523  0.50748081  1
  O  O265  1  0.75314283  0.87926743  0.01225591  1
  O  O266  1  0.75973427  0.88239129  0.50970789  1
  O  O267  1  0.14343506  0.49971964  0.25510244  1
  O  O268  1  0.13397303  0.49121568  0.74389990  1
  O  O269  1  0.13123989  0.99422441  0.24029900  1
  O  O270  1  0.12637256  0.99340815  0.73969537  1
  O  O271  1  0.62919657  0.49621390  0.24244823  1
  O  O272  1  0.62585101  0.50006102  0.73790612  1
  O  O273  1  0.63117410  0.99160987  0.24930810  1
  O  O274  1  0.63528929  0.99894811  0.74645665  1
  O  O275  1  0.36864318  0.00720122  0.25688666  1
  O  O276  1  0.36347651  0.00069114  0.74987778  1
  O  O277  1  0.36725297  0.50560079  0.25988314  1
  O  O278  1  0.36697512  0.49332110  0.75934298  1
  O  O279  1  0.86740831  -0.00285818  0.25493956  1
  O  O280  1  0.86645505  0.00216253  0.75053336  1
  O  O281  1  0.87468194  0.51269082  0.25694742  1
  O  O282  1  0.87969010  0.51039317  0.74318849  1
  O  O283  1  0.11795749  0.36787453  0.37111095  1
  O  O284  1  0.12001894  0.37848607  0.85992798  1
  O  O285  1  0.11469959  0.88079073  0.36403112  1
  O  O286  1  0.11769994  0.87025315  0.86826699  1
  O  O287  1  0.62111372  0.37033827  0.36942941  1
  O  O288  1  0.61470395  0.37481619  0.87567708  1
  O  O289  1  0.62475347  0.86828230  0.36630803  1
  O  O290  1  0.62758667  0.87182797  0.86131882  1
  O  O291  1  0.37253797  0.12695331  0.14195679  1
  O  O292  1  0.38663269  0.12375988  0.62558301  1
  O  O293  1  0.39052437  0.62981906  0.12711559  1
  O  O294  1  0.39011784  0.61672414  0.62253026  1
  O  O295  1  0.86225133  0.13905257  0.12423105  1
  O  O296  1  0.87021583  0.13140931  0.63128905  1
  O  O297  1  0.87615484  0.63211748  0.13183042  1
  O  O298  1  0.88534884  0.62221987  0.63198406  1
  O  O299  1  0.25668543  0.25784224  0.11274650  1
  O  O300  1  0.24769891  0.24648082  0.61381673  1
  O  O301  1  0.25050178  0.75597692  0.11897284  1
  O  O302  1  0.25717035  0.74294056  0.60713314  1
  O  O303  1  0.75373048  0.26366828  0.11366943  1
  O  O304  1  0.75817330  0.25491566  0.61918902  1
  O  O305  1  0.76176118  0.76043567  0.13302830  1
  O  O306  1  0.75055594  0.76167351  0.62486782  1
  O  O307  1  0.23985026  0.24783930  0.38267478  1
  O  O308  1  0.25684975  0.25666662  0.89866731  1
  O  O309  1  0.25647694  0.73338670  0.38406640  1
  O  O310  1  0.25318070  0.74100567  0.88073998  1
  O  O311  1  0.74467405  0.24354351  0.37971578  1
  O  O312  1  0.73932320  0.24878483  0.88026099  1
  O  O313  1  0.74001992  0.74251442  0.37079603  1
  O  O314  1  0.75663813  0.72705781  0.87992511  1
  O  O315  1  -0.00700668  0.11803804  -0.00010334  1
  O  O316  1  0.00979376  0.11305711  0.49341445  1
  O  O317  1  -0.00132136  0.61864652  0.00191744  1
  O  O318  1  -0.00185976  0.61060112  0.50721994  1
  O  O319  1  0.49394466  0.11437305  -0.00399426  1
  O  O320  1  0.50491989  0.11943083  0.50687286  1
  O  O321  1  0.50837509  0.62402442  0.00648367  1
  O  O322  1  0.51486690  0.62351010  0.50669574  1
  O  O323  1  0.49589417  0.37668243  0.48824508  1
  O  O324  1  0.49353639  0.38493466  0.99236671  1
  O  O325  1  0.50741742  0.88835322  0.50124030  1
  O  O326  1  0.48828305  0.88034869  1.00109332  1
  O  O327  1  0.99547726  0.38209070  0.49184487  1
  O  O328  1  0.99009039  0.38763880  0.99132857  1
  O  O329  1  0.99257133  0.87955867  0.49413238  1
  O  O330  1  0.99088829  0.87767609  0.99198826  1
  O  O331  1  0.49395644  0.49293836  0.37771634  1
  O  O332  1  0.49524534  0.49772756  0.87739438  1
  O  O333  1  0.49123400  0.99757145  0.38639914  1
  O  O334  1  0.49718116  0.99266740  0.88785695  1
  O  O335  1  0.99737908  0.49254818  0.37959101  1
  O  O336  1  0.99850993  0.50438577  0.88425609  1
  O  O337  1  0.99469450  0.99025049  0.38644769  1
  O  O338  1  0.99151707  0.98561580  0.87199620  1
  O  O339  1  0.01418050  -0.00488131  0.12818597  1
  O  O340  1  0.00816873  -0.00497611  0.61136300  1
  O  O341  1  -0.01112080  0.52047912  0.10997476  1
  O  O342  1  0.00835865  0.50211113  0.61522274  1
  O  O343  1  0.50414994  -0.00025087  0.11115347  1
  O  O344  1  0.50409077  0.00858850  0.62023044  1
  O  O345  1  0.50665515  0.51124389  0.12279125  1
  O  O346  1  0.51073220  0.51163187  0.62304189  1
  O  O347  1  0.25499451  0.39375901  0.25314973  1
  O  O348  1  0.24397495  0.38339940  0.75359174  1
  O  O349  1  0.24396352  0.87965164  0.24463366  1
  O  O350  1  0.23546917  0.88220170  0.75164956  1
  O  O351  1  0.74395940  0.37655655  0.24045782  1
  O  O352  1  0.74966018  0.36883134  0.73548882  1
  O  O353  1  0.74528369  0.88296178  0.24462107  1
  O  O354  1  0.74206675  0.87906875  0.74370718  1
  O  O355  1  0.25580741  0.12007262  0.25783101  1
  O  O356  1  0.25031300  0.11639555  0.74797620  1
  O  O357  1  0.25336497  0.61991148  0.26405235  1
  O  O358  1  0.24578974  0.61344518  0.76174645  1
  O  O359  1  0.75418891  0.10939584  0.25866049  1
  O  O360  1  0.75817550  0.11450699  0.74849057  1
  O  O361  1  0.75554128  0.62337574  0.26277344  1
  O  O362  1  0.75949692  0.62037462  0.75441066  1
  O  O363  1  0.37036036  0.11657442  0.36764271  1
  O  O364  1  0.36359955  0.12377275  0.86969369  1
  O  O365  1  0.38074086  0.61246804  0.37745381  1
  O  O366  1  0.36848463  0.61129285  0.88285745  1
  O  O367  1  0.86504345  0.11423095  0.37913720  1
  O  O368  1  0.86751897  0.11465080  0.86347355  1
  O  O369  1  0.86994017  0.62316636  0.37089942  1
  O  O370  1  0.86909501  0.62386235  0.85816574  1
  O  O371  1  0.07407320  0.38614978  0.14788184  1
  O  O372  1  0.12055221  0.38691373  0.63584993  1
  O  O373  1  0.13213403  0.87825824  0.13127143  1
  O  O374  1  0.11879733  0.88314280  0.63224920  1
  O  O375  1  0.63343569  0.38228828  0.12946931  1
  O  O376  1  0.63366739  0.38483033  0.62389187  1
  O  O377  1  0.63288204  0.87164813  0.13816058  1
  O  O378  1  0.63144247  0.87979959  0.63217585  1
  O  O379  1  0.12898361  0.25329798  0.25842631  1
  O  O380  1  0.11315533  0.25655729  0.74032938  1
  O  O381  1  0.13013956  0.76239628  0.24805781  1
  O  O382  1  0.12531551  0.75525111  0.75406809  1
  O  O383  1  0.62090448  0.25057342  0.25101876  1
  O  O384  1  0.61573591  0.25494353  0.75914870  1
  O  O385  1  0.61622696  0.75601921  0.25996949  1
  O  O386  1  0.62535007  0.76044880  0.74627581  1
  O  O387  1  0.37253535  0.24090663  0.25204557  1
  O  O388  1  0.38971448  0.25445548  0.75525806  1
  O  O389  1  0.38718448  0.75034937  0.25237025  1
  O  O390  1  0.35249210  0.74685883  0.72045614  1
  O  O391  1  0.86336256  0.24596878  0.22936571  1
  O  O392  1  0.87909571  0.23908312  0.74115508  1
  O  O393  1  0.87363905  0.73679522  0.24324520  1
  O  O394  1  0.87842072  0.73620605  0.74329723  1
  O  O395  1  0.37686416  0.49102132  0.49241948  1
  O  O396  1  0.38100050  0.49388529  0.99445695  1
  O  O397  1  0.38290738  1.00687093  0.49198246  1
  O  O398  1  0.38327950  0.99627467  1.00304164  1
  O  O399  1  0.88491763  0.49373329  0.49346205  1
  O  O400  1  0.88508513  0.49278590  1.00004515  1
  O  O401  1  0.88275863  0.99070765  0.49714106  1
  O  O402  1  0.87213941  0.98561470  0.99327749  1
  O  O403  1  0.12288554  -0.00345727  0.01781447  1
  O  O404  1  0.12015269  0.00468237  0.50470730  1
  O  O405  1  0.10733966  0.50006250  -0.00259703  1
  O  O406  1  0.11876653  0.49095275  0.50790111  1
  O  O407  1  0.61056804  -0.00042329  0.00357698  1
  O  O408  1  0.61688167  0.00605115  0.50567388  1
  O  O409  1  0.61780797  0.50998009  0.00805152  1
  O  O410  1  0.62427834  0.50966616  0.50948428  1
  O  O411  1  0.38350879  0.38146829  0.11137207  1
  O  O412  1  0.38790772  0.37896057  0.60986560  1
  O  O413  1  0.36033649  0.87736640  0.11959554  1
  O  O414  1  0.38170624  0.86559653  0.62013715  1
  O  O415  1  0.87023634  0.36769072  0.11534762  1
  O  O416  1  0.86936412  0.36706415  0.61836291  1
  O  O417  1  0.86939870  0.86865861  0.11893495  1
  O  O418  1  0.86737437  0.87338279  0.61707587  1
  O  O419  1  0.13231476  0.13090373  0.38555214  1
  O  O420  1  0.12987453  0.12308782  0.88118084  1
  O  O421  1  0.13240831  0.62314738  0.37556485  1
  O  O422  1  0.13506803  0.63207526  0.87807041  1
  O  O423  1  0.63131806  0.12905305  0.38181427  1
  O  O424  1  0.62436417  0.13654726  0.86984143  1
  O  O425  1  0.63180467  0.63125238  0.38244611  1
  O  O426  1  0.63387119  0.62748901  0.88547626  1
