# generated using pymatgen
data_V85Zn86O256
_symmetry_space_group_name_H-M   'P 1'
_cell_length_a   16.96967640
_cell_length_b   16.97088571
_cell_length_c   16.97606836
_cell_angle_alpha   90.03318896
_cell_angle_beta   90.01443200
_cell_angle_gamma   90.14489440
_symmetry_Int_Tables_number   1
_chemical_formula_structural   V85Zn86O256
_chemical_formula_sum   'V85 Zn86 O256'
_cell_volume   4888.92876466
_cell_formula_units_Z   1
loop_
 _symmetry_equiv_pos_site_id
 _symmetry_equiv_pos_as_xyz
  1  'x, y, z'
loop_
 _atom_site_type_symbol
 _atom_site_label
 _atom_site_symmetry_multiplicity
 _atom_site_fract_x
 _atom_site_fract_y
 _atom_site_fract_z
 _atom_site_occupancy
  V  V0  1  0.92025781  0.05891707  0.31237946  1
  V  V1  1  0.00487810  0.86877341  0.87162991  1
  V  V2  1  0.87498340  0.75273410  0.62864372  1
  V  V3  1  0.00046154  0.00393730  0.50519987  1
  V  V4  1  0.24005550  -0.01518848  0.73805613  1
  V  V5  1  0.24830761  0.62392252  0.37523967  1
  V  V6  1  0.87107784  0.37136355  0.50432421  1
  V  V7  1  0.37959164  0.62116883  0.74752908  1
  V  V8  1  0.25040020  0.37094600  0.62500105  1
  V  V9  1  0.62685551  0.24914060  0.88052215  1
  V  V10  1  0.49834606  0.74773813  0.25083197  1
  V  V11  1  0.74890995  0.87588832  0.62783777  1
  V  V12  1  0.75410690  0.12906010  0.88107234  1
  V  V13  1  0.87972569  0.00402108  0.87030843  1
  V  V14  1  0.36934662  0.24731186  0.62407405  1
  V  V15  1  0.12892530  0.24609799  0.87343774  1
  V  V16  1  0.74270138  0.11947447  0.38006321  1
  V  V17  1  0.62327273  0.12809797  0.00904945  1
  V  V18  1  0.00327049  0.62731512  0.12129731  1
  V  V19  1  0.48714547  0.12855112  0.12343848  1
  V  V20  1  0.74620426  0.00851339  0.24665975  1
  V  V21  1  0.11752826  0.37330733  0.25347969  1
  V  V22  1  0.56845091  -0.04915776  0.06950894  1
  V  V23  1  -0.00355929  0.50066040  -0.00221436  1
  V  V24  1  0.11957846  0.74082998  0.88188330  1
  V  V25  1  0.25066810  0.75218876  0.50446050  1
  V  V26  1  0.36336052  0.36961302  0.01207941  1
  V  V27  1  0.49855219  0.37318616  0.37628799  1
  V  V28  1  0.18540168  0.18323554  0.04767995  1
  V  V29  1  0.50349350  0.00397377  0.50006437  1
  V  V30  1  0.62380315  0.74910550  0.37596582  1
  V  V31  1  0.49659805  0.50304853  0.50557452  1
  V  V32  1  0.75095647  0.00847013  0.75054874  1
  V  V33  1  0.36978914  0.37028401  0.49995907  1
  V  V34  1  0.87228644  0.49627826  0.86951017  1
  V  V35  1  0.24807740  0.62227346  0.88563066  1
  V  V36  1  0.62453452  0.87885979  0.25113286  1
  V  V37  1  0.37081662  0.87788215  0.50601459  1
  V  V38  1  0.25224064  0.49784030  0.75311687  1
  V  V39  1  0.12521920  0.75001141  0.37173456  1
  V  V40  1  0.62301991  0.24545088  0.38082809  1
  V  V41  1  0.12445322  0.37047968  0.75070529  1
  V  V42  1  0.48815544  0.24627167  0.24626568  1
  V  V43  1  0.75267596  0.36998322  0.11795395  1
  V  V44  1  0.61957472  0.61826676  -0.00107402  1
  V  V45  1  0.88247035  0.87366924  0.00097430  1
  V  V46  1  0.61986125  0.62763708  0.50660505  1
  V  V47  1  0.62459642  0.00554186  0.62340443  1
  V  V48  1  0.86939112  0.62664018  0.74909836  1
  V  V49  1  -0.00026699  0.75162705  0.24811661  1
  V  V50  1  0.13186271  -0.00594016  0.11534871  1
  V  V51  1  0.12904983  0.87337899  0.24790200  1
  V  V52  1  0.49831133  0.38073693  0.88800869  1
  V  V53  1  0.00113442  0.62236829  0.63116369  1
  V  V54  1  0.62516381  0.50168463  0.63113252  1
  V  V55  1  0.49840139  0.75486302  0.75183834  1
  V  V56  1  0.74976215  0.62106669  0.87363350  1
  V  V57  1  0.25213685  0.13289528  0.38048800  1
  V  V58  1  -0.00313387  0.49941952  0.49981408  1
  V  V59  1  0.12266655  0.49781611  0.11753659  1
  V  V60  1  -0.01450305  0.12617905  0.63059491  1
  V  V61  1  0.38394472  -0.02051137  0.88316786  1
  V  V62  1  0.50040529  0.25337849  0.75270708  1
  V  V63  1  0.37327519  0.00377164  0.37559313  1
  V  V64  1  0.87775183  0.74837845  0.12295626  1
  V  V65  1  0.87188241  0.87909757  0.49178175  1
  V  V66  1  0.62670718  0.37725057  0.25092469  1
  V  V67  1  -0.01083299  0.24638399  0.74951953  1
  V  V68  1  0.00975241  0.00876460  -0.00296070  1
  V  V69  1  0.62380534  0.75576330  0.87303959  1
  V  V70  1  0.50295881  0.12586061  0.62502114  1
  V  V71  1  0.12582538  0.49690342  0.62540163  1
  V  V72  1  0.36716087  0.75956465  0.12088811  1
  V  V73  1  0.25383964  -0.00178936  0.24954933  1
  V  V74  1  0.24760778  0.12000202  0.87258553  1
  V  V75  1  0.74870298  0.37651951  0.63134568  1
  V  V76  1  0.38149407  0.74511394  0.62274884  1
  V  V77  1  0.37528954  0.11891871  0.75487278  1
  V  V78  1  0.74874093  0.62173420  0.37541831  1
  V  V79  1  0.37482874  0.62193445  0.24629478  1
  V  V80  1  0.74734684  0.24512294  0.50768482  1
  V  V81  1  0.75509354  0.87851890  0.12176348  1
  V  V82  1  0.05848486  0.80636971  0.70213014  1
  V  V83  1  0.24755114  0.49667517  0.24649238  1
  V  V84  1  0.13096351  0.13008694  0.51229822  1
  Zn  Zn85  1  0.62660673  0.38039582  0.75436961  1
  Zn  Zn86  1  0.74956751  0.75048384  0.50094898  1
  Zn  Zn87  1  0.98762665  0.24838080  0.25441840  1
  Zn  Zn88  1  0.24465896  0.35911762  0.12504434  1
  Zn  Zn89  1  0.75251383  0.74807895  -0.00152286  1
  Zn  Zn90  1  0.86962306  0.36650006  -0.00279919  1
  Zn  Zn91  1  0.86905787  0.23207909  0.12823446  1
  Zn  Zn92  1  0.61705048  0.88008226  0.75349882  1
  Zn  Zn93  1  0.37932254  0.50195347  0.88340862  1
  Zn  Zn94  1  0.37388179  0.49772311  0.37517478  1
  Zn  Zn95  1  0.87224740  0.50084601  0.37562801  1
  Zn  Zn96  1  0.49302138  0.61539800  0.11647206  1
  Zn  Zn97  1  -0.00108703  0.37076081  0.87745380  1
  Zn  Zn98  1  0.12452323  0.62279128  0.50081113  1
  Zn  Zn99  1  -0.00458079  0.37144915  0.37830219  1
  Zn  Zn100  1  0.12008726  0.25241062  0.38211408  1
  Zn  Zn101  1  0.62021210  0.49558555  0.11985763  1
  Zn  Zn102  1  0.75164060  0.50089935  0.24550007  1
  Zn  Zn103  1  0.26080556  0.76189522  -0.00505263  1
  Zn  Zn104  1  -0.00710422  0.87844316  0.37005492  1
  Zn  Zn105  1  0.49904420  0.87660605  0.37675770  1
  Zn  Zn106  1  0.87350622  0.62368187  0.25105161  1
  Zn  Zn107  1  0.18384750  0.18370594  0.20933399  1
  Zn  Zn108  1  0.18731747  0.18232930  0.69024658  1
  Zn  Zn109  1  0.18697926  0.68357698  0.18293961  1
  Zn  Zn110  1  0.19604320  0.68129833  0.68667324  1
  Zn  Zn111  1  0.68372367  0.19319516  0.19034816  1
  Zn  Zn112  1  0.68726353  0.18814953  0.69227326  1
  Zn  Zn113  1  0.68849465  0.68834641  0.18602696  1
  Zn  Zn114  1  0.68750618  0.68765101  0.68815133  1
  Zn  Zn115  1  0.31042776  0.31438742  0.31143932  1
  Zn  Zn116  1  0.31409925  0.30942192  0.81673680  1
  Zn  Zn117  1  0.31367769  0.81464953  0.31538948  1
  Zn  Zn118  1  0.30729269  0.80817821  0.81020127  1
  Zn  Zn119  1  0.81176808  0.31111276  0.31383232  1
  Zn  Zn120  1  0.81078939  0.31166686  0.81283358  1
  Zn  Zn121  1  0.80924042  0.80974238  0.30907614  1
  Zn  Zn122  1  0.81329598  0.81201844  0.81135581  1
  Zn  Zn123  1  0.18688141  0.43762517  0.43783376  1
  Zn  Zn124  1  0.18784720  0.43413190  0.93814274  1
  Zn  Zn125  1  0.18559893  0.93830592  0.43875713  1
  Zn  Zn126  1  0.19307793  0.93432965  0.92641190  1
  Zn  Zn127  1  0.68457107  0.43682487  0.44156555  1
  Zn  Zn128  1  0.68835451  0.43848741  0.93570888  1
  Zn  Zn129  1  0.68564494  0.93835878  0.43795007  1
  Zn  Zn130  1  0.69397344  0.93595782  0.93370093  1
  Zn  Zn131  1  0.31837466  0.04803819  0.06159329  1
  Zn  Zn132  1  0.31255515  0.06199838  0.56574277  1
  Zn  Zn133  1  0.31602825  0.55488730  0.06169288  1
  Zn  Zn134  1  0.31271365  0.56156247  0.56385198  1
  Zn  Zn135  1  0.81412978  0.06039451  0.05855619  1
  Zn  Zn136  1  0.81303243  0.06174423  0.55825946  1
  Zn  Zn137  1  0.80928733  0.55749015  0.06219659  1
  Zn  Zn138  1  0.80897263  0.56206907  0.56192187  1
  Zn  Zn139  1  0.43880401  0.43575901  0.18257262  1
  Zn  Zn140  1  0.43948457  0.43637422  0.68864455  1
  Zn  Zn141  1  0.43317103  0.93562919  0.19329079  1
  Zn  Zn142  1  0.43198135  0.93604410  0.68798110  1
  Zn  Zn143  1  0.93282596  0.43914611  0.19147522  1
  Zn  Zn144  1  0.93545948  0.43434343  0.68892131  1
  Zn  Zn145  1  0.98976441  1.12035009  0.12666279  1
  Zn  Zn146  1  0.93255331  0.94628788  0.68268791  1
  Zn  Zn147  1  0.08360932  0.05842315  0.31922890  1
  Zn  Zn148  1  0.06554672  0.06101768  0.80817981  1
  Zn  Zn149  1  0.06123665  0.56166060  0.31031909  1
  Zn  Zn150  1  0.06120801  0.56027293  0.81132020  1
  Zn  Zn151  1  0.56103916  0.06410756  0.31007285  1
  Zn  Zn152  1  0.56195639  0.06290431  0.81636657  1
  Zn  Zn153  1  0.56035933  0.55987155  0.31603533  1
  Zn  Zn154  1  0.56002174  0.56642268  0.81216990  1
  Zn  Zn155  1  0.43817587  0.18616805  0.43952164  1
  Zn  Zn156  1  0.43654430  0.18692151  0.94103190  1
  Zn  Zn157  1  0.43648531  0.68529251  0.43487598  1
  Zn  Zn158  1  0.43707258  0.69049895  0.93372573  1
  Zn  Zn159  1  0.93634943  0.19386956  0.44356694  1
  Zn  Zn160  1  0.93576365  0.19145879  0.94131750  1
  Zn  Zn161  1  0.93554675  0.68811895  0.43995876  1
  Zn  Zn162  1  0.94114031  0.68604992  0.93680100  1
  Zn  Zn163  1  0.04469921  0.31193072  0.06991638  1
  Zn  Zn164  1  0.05862614  0.30879547  0.56505142  1
  Zn  Zn165  1  0.09820812  0.82900694  0.04254028  1
  Zn  Zn166  1  0.05934621  0.81138990  0.54049728  1
  Zn  Zn167  1  0.56399050  0.31049121  0.06487578  1
  Zn  Zn168  1  0.56130507  0.31460564  0.56335151  1
  Zn  Zn169  1  0.56098248  0.78555470  0.06359888  1
  Zn  Zn170  1  0.55971579  0.81659022  0.56490666  1
  O  O171  1  0.13461904  0.12112759  0.11430800  1
  O  O172  1  0.11979738  0.12488381  0.61442750  1
  O  O173  1  0.11096548  0.61437596  0.12961130  1
  O  O174  1  0.11723874  0.61724994  0.62649086  1
  O  O175  1  0.62265865  0.13019837  0.11250930  1
  O  O176  1  0.61951435  0.11299237  0.63180890  1
  O  O177  1  0.62631011  0.63076760  0.10651783  1
  O  O178  1  0.62947728  0.61943225  0.61336477  1
  O  O179  1  0.37835572  0.37490034  0.38442011  1
  O  O180  1  0.38783159  0.37562484  0.87792856  1
  O  O181  1  0.37684068  0.88475084  0.38709069  1
  O  O182  1  0.37355427  0.88005097  0.87097431  1
  O  O183  1  0.87096320  0.37999594  0.39203315  1
  O  O184  1  0.87541098  0.38286938  0.87600999  1
  O  O185  1  0.87059739  0.86771811  0.38856909  1
  O  O186  1  0.88365957  0.87802263  0.88162310  1
  O  O187  1  0.25674706  0.00552991  0.37299838  1
  O  O188  1  0.26099569  0.00449100  0.86478555  1
  O  O189  1  0.24945484  0.50695746  0.36415593  1
  O  O190  1  0.25065663  0.50455620  0.86826960  1
  O  O191  1  0.74245969  0.01238067  0.36956572  1
  O  O192  1  0.75883910  0.00497833  0.86742981  1
  O  O193  1  0.74533329  0.51377883  0.37947711  1
  O  O194  1  0.75645840  0.51136003  0.87466710  1
  O  O195  1  0.23947214  0.50270434  0.13557867  1
  O  O196  1  0.24490939  0.49338583  0.63294568  1
  O  O197  1  0.24252345  1.00380571  0.13559210  1
  O  O198  1  0.25307080  1.00131901  0.63914025  1
  O  O199  1  0.73894554  0.49125171  0.12712230  1
  O  O200  1  0.73706681  0.48971432  0.61751031  1
  O  O201  1  0.75204164  0.98610010  0.13311751  1
  O  O202  1  0.74431922  0.99868525  0.63147987  1
  O  O203  1  0.00948370  0.38088302  0.25512537  1
  O  O204  1  0.00762785  0.36492282  0.74987321  1
  O  O205  1  0.00911728  0.85803506  0.25466714  1
  O  O206  1  -0.00509004  0.87253031  0.75209808  1
  O  O207  1  0.50345709  0.36319767  0.25606801  1
  O  O208  1  0.50026721  0.36285480  0.75698297  1
  O  O209  1  0.50762568  0.86685806  0.25194943  1
  O  O210  1  0.49937648  0.85987739  0.74206405  1
  O  O211  1  0.50706986  0.13850848  0.24096137  1
  O  O212  1  0.49361823  0.13444026  0.74731665  1
  O  O213  1  0.48942449  0.63144156  0.25629714  1
  O  O214  1  0.48623944  0.63470469  0.75393812  1
  O  O215  1  0.99378681  0.10861715  0.25856799  1
  O  O216  1  1.00447832  0.12894877  0.73717819  1
  O  O217  1  0.99955433  0.63496240  0.24338650  1
  O  O218  1  0.98861378  0.61815359  0.73722459  1
  O  O219  1  0.37927239  0.27100919  -0.00653417  1
  O  O220  1  0.38102510  0.25791211  0.51206927  1
  O  O221  1  0.37719840  0.74708218  0.01561896  1
  O  O222  1  0.37103347  0.75479861  0.50377263  1
  O  O223  1  0.88529519  0.25587825  0.01440473  1
  O  O224  1  0.86069132  0.25865653  0.50176730  1
  O  O225  1  0.87558658  0.75690675  0.00311451  1
  O  O226  1  0.87523276  0.76003168  0.51079262  1
  O  O227  1  0.12303943  0.23422694  0.50213792  1
  O  O228  1  0.12206701  0.24593965  0.99501875  1
  O  O229  1  0.13437574  0.74410781  0.49093446  1
  O  O230  1  0.11155585  0.73150523  0.98191084  1
  O  O231  1  0.62882104  0.25569378  0.48841967  1
  O  O232  1  0.62119494  0.24263447  0.98856969  1
  O  O233  1  0.62166318  0.74364538  0.49695617  1
  O  O234  1  0.63154888  0.74026665  0.98840745  1
  O  O235  1  0.50255990  0.24401411  0.13861383  1
  O  O236  1  0.49346710  0.24719426  0.63402963  1
  O  O237  1  0.48858282  0.73871520  0.13777092  1
  O  O238  1  0.48761167  0.74949797  0.62834083  1
  O  O239  1  1.00484137  0.23459768  0.13880979  1
  O  O240  1  1.00225778  0.23560049  0.63461406  1
  O  O241  1  0.99804070  0.74103427  0.13064711  1
  O  O242  1  1.00074811  0.74551090  0.63097595  1
  O  O243  1  0.00116422  0.25344870  0.37308709  1
  O  O244  1  0.01296737  0.24542785  0.86719245  1
  O  O245  1  0.00840779  0.74671530  0.36842895  1
  O  O246  1  0.00392323  0.75475767  0.86824129  1
  O  O247  1  0.50513441  0.25131255  0.36905855  1
  O  O248  1  0.50593687  0.25794385  0.86958404  1
  O  O249  1  0.50291271  0.75224459  0.36454464  1
  O  O250  1  0.51020625  0.74769807  0.86468627  1
  O  O251  1  0.23669241  0.11696868  0.49806734  1
  O  O252  1  0.25153873  0.12446063  0.99404606  1
  O  O253  1  0.25015041  0.62955098  0.49035344  1
  O  O254  1  0.25592476  0.62399623  0.98722393  1
  O  O255  1  0.75144531  0.13195562  0.49263763  1
  O  O256  1  0.73962919  0.11477715  0.98693877  1
  O  O257  1  0.73912039  0.62920733  0.49444510  1
  O  O258  1  0.74257086  0.62677693  0.98994575  1
  O  O259  1  0.25822742  0.37161161  0.00454617  1
  O  O260  1  0.26254711  0.38002625  0.50671261  1
  O  O261  1  0.20710975  0.85905195  0.00623933  1
  O  O262  1  0.25667706  0.86455135  0.49471672  1
  O  O263  1  0.74658331  0.37778570  0.01380480  1
  O  O264  1  0.75217133  0.36665490  0.50845624  1
  O  O265  1  0.76111228  0.87406596  0.00540025  1
  O  O266  1  0.75489102  0.87765568  0.51118880  1
  O  O267  1  0.12982461  0.49324223  0.24338216  1
  O  O268  1  0.12972456  0.48972034  0.74448373  1
  O  O269  1  0.13288275  0.99091639  0.24258877  1
  O  O270  1  0.14114156  0.99779898  0.75329070  1
  O  O271  1  0.62414296  0.48451013  0.25767609  1
  O  O272  1  0.61679733  0.50222931  0.73490740  1
  O  O273  1  0.63012835  0.98653526  0.25350939  1
  O  O274  1  0.63263253  0.99823316  0.74567658  1
  O  O275  1  0.36763950  -0.00426819  0.26356699  1
  O  O276  1  0.37029680  0.00961424  0.75366112  1
  O  O277  1  0.36480965  0.50485959  0.25135427  1
  O  O278  1  0.37119946  0.50583881  0.75112299  1
  O  O279  1  0.86164634  -0.00418063  0.26061002  1
  O  O280  1  0.86714937  -0.00292444  0.76235924  1
  O  O281  1  0.87008319  0.50603349  0.25838654  1
  O  O282  1  0.87996662  0.50669882  0.76229867  1
  O  O283  1  0.12302765  0.37451289  0.36837576  1
  O  O284  1  0.12372984  0.36379578  0.86941116  1
  O  O285  1  0.12082793  0.87050806  0.36525557  1
  O  O286  1  0.11042909  0.86141399  0.86814703  1
  O  O287  1  0.61765565  0.36787053  0.37210849  1
  O  O288  1  0.61657733  0.36866000  0.87448643  1
  O  O289  1  0.62386861  0.86749257  0.36713637  1
  O  O290  1  0.63490853  0.86016796  0.87071849  1
  O  O291  1  0.38802811  0.11883237  0.11971135  1
  O  O292  1  0.38148877  0.13085760  0.63338411  1
  O  O293  1  0.37330162  0.62746088  0.13678466  1
  O  O294  1  0.37077444  0.63285031  0.63354680  1
  O  O295  1  0.87527881  0.11547447  0.12975918  1
  O  O296  1  0.88669007  0.12307627  0.62484333  1
  O  O297  1  0.88381924  0.63010493  0.12424936  1
  O  O298  1  0.87956420  0.63014713  0.63034572  1
  O  O299  1  0.23646522  0.23857805  0.11724839  1
  O  O300  1  0.26324628  0.25145644  0.63243658  1
  O  O301  1  0.26449219  0.74339719  0.12423452  1
  O  O302  1  0.25947716  0.74286024  0.61013384  1
  O  O303  1  0.74652790  0.26667667  0.12883536  1
  O  O304  1  0.73727177  0.25583569  0.61364672  1
  O  O305  1  0.75652002  0.76286587  0.12485571  1
  O  O306  1  0.75316193  0.76166441  0.62399828  1
  O  O307  1  0.25262325  0.23512373  0.37223918  1
  O  O308  1  0.23776301  0.23957894  0.87014688  1
  O  O309  1  0.24722536  0.74246063  0.38285302  1
  O  O310  1  0.24071915  0.73990933  0.87636224  1
  O  O311  1  0.74124942  0.24017723  0.38377007  1
  O  O312  1  0.74055068  0.24009072  0.87017493  1
  O  O313  1  0.74062825  0.74108426  0.37742970  1
  O  O314  1  0.74421531  0.73744885  0.87165499  1
  O  O315  1  0.00101553  0.10951125  -0.00708394  1
  O  O316  1  0.00505345  0.12225729  0.51163818  1
  O  O317  1  -0.00512360  0.61089940  0.00786674  1
  O  O318  1  -0.00051803  0.61928387  0.51396473  1
  O  O319  1  0.50853344  0.12840990  0.00995196  1
  O  O320  1  0.49491488  0.11185599  0.50939098  1
  O  O321  1  0.51512091  0.63165396  -0.00261471  1
  O  O322  1  0.50638090  0.61525914  0.49469282  1
  O  O323  1  0.48850670  0.38009254  0.49646513  1
  O  O324  1  0.49853168  0.37258887  0.98976352  1
  O  O325  1  0.49192053  0.88715782  0.49898574  1
  O  O326  1  0.51514086  0.88502574  1.01947670  1
  O  O327  1  0.99014359  0.38191918  0.50451275  1
  O  O328  1  0.99756696  0.38882542  0.99893200  1
  O  O329  1  0.99142497  0.88620746  0.49198156  1
  O  O330  1  0.99850884  0.88154142  0.98913427  1
  O  O331  1  0.49631441  0.49130464  0.38723922  1
  O  O332  1  0.50080329  0.48303090  0.86803756  1
  O  O333  1  0.49284327  1.00157404  0.38267835  1
  O  O334  1  0.48228059  1.00006873  0.86664403  1
  O  O335  1  1.00059447  0.50233322  0.39144011  1
  O  O336  1  0.99296277  0.49881500  0.88193872  1
  O  O337  1  0.98777649  1.00462637  0.37536869  1
  O  O338  1  0.99613123  0.99156863  0.87441096  1
  O  O339  1  0.02249384  0.00630843  0.11177840  1
  O  O340  1  -0.00019758  0.01337071  0.61840736  1
  O  O341  1  0.00395658  0.50574773  0.11927158  1
  O  O342  1  0.00369356  0.50504265  0.61811833  1
  O  O343  1  0.50486479  0.00528487  0.13076212  1
  O  O344  1  0.50637516  0.00331551  0.62115893  1
  O  O345  1  0.50863168  0.50610618  0.13388471  1
  O  O346  1  0.50622344  0.49340441  0.61235106  1
  O  O347  1  0.24141636  0.38146265  0.24718098  1
  O  O348  1  0.24613556  0.37821029  0.74588390  1
  O  O349  1  0.24296629  0.88656743  0.25831534  1
  O  O350  1  0.25373717  0.88544023  0.74738977  1
  O  O351  1  0.73959991  0.37787083  0.24515103  1
  O  O352  1  0.74609898  0.36820644  0.73549779  1
  O  O353  1  0.74249749  0.88139406  0.24317786  1
  O  O354  1  0.75129586  0.88607234  0.73933880  1
  O  O355  1  0.24386336  0.10843627  0.26703514  1
  O  O356  1  0.25870789  0.11770391  0.75681805  1
  O  O357  1  0.25469134  0.61762918  0.25578036  1
  O  O358  1  0.26209738  0.61701558  0.75643347  1
  O  O359  1  0.73785627  0.11233348  0.25545016  1
  O  O360  1  0.74551136  0.11463891  0.76165169  1
  O  O361  1  0.74717579  0.62428131  0.26036027  1
  O  O362  1  0.76167582  0.62491409  0.75387688  1
  O  O363  1  0.36688885  0.11174101  0.38747302  1
  O  O364  1  0.36540912  0.12464263  0.86912527  1
  O  O365  1  0.36354352  0.62376145  0.36456843  1
  O  O366  1  0.36740493  0.62254082  0.86779192  1
  O  O367  1  0.86707205  0.12254129  0.37424177  1
  O  O368  1  0.86663742  0.11543890  0.88081864  1
  O  O369  1  0.86183443  0.62652520  0.37722704  1
  O  O370  1  0.86856484  0.62105816  0.86691922  1
  O  O371  1  0.12489186  0.38183790  0.13442996  1
  O  O372  1  0.13194411  0.37590464  0.62933562  1
  O  O373  1  0.12025139  0.88301487  0.14118425  1
  O  O374  1  0.10918706  0.85867661  0.63591233  1
  O  O375  1  0.63157774  0.37345677  0.13430636  1
  O  O376  1  0.62979774  0.38402709  0.62688019  1
  O  O377  1  0.62863320  0.87878933  0.12633701  1
  O  O378  1  0.63261919  0.88616678  0.62812293  1
  O  O379  1  0.12211134  0.26234485  0.25960781  1
  O  O380  1  0.11996780  0.25276380  0.75677006  1
  O  O381  1  0.12327897  0.75466744  0.25232707  1
  O  O382  1  0.12468402  0.74699993  0.75335879  1
  O  O383  1  0.61798329  0.26003023  0.26299445  1
  O  O384  1  0.61556808  0.24992730  0.76210170  1
  O  O385  1  0.61655892  0.75837287  0.25131761  1
  O  O386  1  0.61522850  0.74865761  0.75490288  1
  O  O387  1  0.38972607  0.25089094  0.25561469  1
  O  O388  1  0.38128195  0.23894660  0.74662611  1
  O  O389  1  0.37951004  0.74310211  0.24618850  1
  O  O390  1  0.37810745  0.74294003  0.74131374  1
  O  O391  1  0.87478013  0.25703723  0.24197678  1
  O  O392  1  0.89003718  0.25118288  0.75661064  1
  O  O393  1  0.88344626  0.74902707  0.24180626  1
  O  O394  1  0.87296561  0.74047306  0.74196674  1
  O  O395  1  0.38096453  0.49283783  0.50002522  1
  O  O396  1  0.37450823  0.48003374  0.99799138  1
  O  O397  1  0.37976983  0.99297711  0.49811473  1
  O  O398  1  0.37264630  0.99150826  0.98265439  1
  O  O399  1  0.88211732  0.49516012  0.50034052  1
  O  O400  1  0.88000948  0.49866567  0.98669992  1
  O  O401  1  0.88659686  0.99212689  0.50348994  1
  O  O402  1  0.88452505  0.98979049  0.98750024  1
  O  O403  1  0.12215391  -0.00422956  0.00281764  1
  O  O404  1  0.10831606  0.00961517  0.49173854  1
  O  O405  1  0.11904758  0.49480253  0.01213197  1
  O  O406  1  0.11740328  0.50084531  0.50866448  1
  O  O407  1  0.62375759  0.00418562  -0.00000070  1
  O  O408  1  0.61510377  -0.00447575  0.51035148  1
  O  O409  1  0.62548453  0.51574292  -0.00496823  1
  O  O410  1  0.61542727  0.50716044  0.50789783  1
  O  O411  1  0.36627218  0.37217917  0.11752166  1
  O  O412  1  0.37072568  0.36624237  0.62078507  1
  O  O413  1  0.37577230  0.85764551  0.13184609  1
  O  O414  1  0.37659547  0.86558530  0.61203569  1
  O  O415  1  0.85673545  0.38454107  0.12344699  1
  O  O416  1  0.86330569  0.38254992  0.61481271  1
  O  O417  1  0.87032029  0.86905229  0.10977522  1
  O  O418  1  0.86727045  0.87327658  0.61741139  1
  O  O419  1  0.13490202  0.12861260  0.39028477  1
  O  O420  1  0.13907772  0.12810881  0.87140689  1
  O  O421  1  0.13643722  0.62848511  0.37377094  1
  O  O422  1  0.13621584  0.62951843  0.86219480  1
  O  O423  1  0.63048940  0.13349682  0.37398586  1
  O  O424  1  0.62934567  0.13108495  0.88424400  1
  O  O425  1  0.62794051  0.63013801  0.38540543  1
  O  O426  1  0.63141532  0.63030844  0.87997186  1
