# generated using pymatgen
data_V85Zn86O256
_symmetry_space_group_name_H-M   'P 1'
_cell_length_a   16.94693497
_cell_length_b   16.94644054
_cell_length_c   16.95207562
_cell_angle_alpha   89.98355390
_cell_angle_beta   90.01111182
_cell_angle_gamma   89.93475601
_symmetry_Int_Tables_number   1
_chemical_formula_structural   V85Zn86O256
_chemical_formula_sum   'V85 Zn86 O256'
_cell_volume   4868.46697366
_cell_formula_units_Z   1
loop_
 _symmetry_equiv_pos_site_id
 _symmetry_equiv_pos_as_xyz
  1  'x, y, z'
loop_
 _atom_site_type_symbol
 _atom_site_label
 _atom_site_symmetry_multiplicity
 _atom_site_fract_x
 _atom_site_fract_y
 _atom_site_fract_z
 _atom_site_occupancy
  V  V0  1  0.36878022  0.49515134  0.86593203  1
  V  V1  1  0.38921031  0.88029729  -0.00407071  1
  V  V2  1  0.25157005  0.38395279  0.12833272  1
  V  V3  1  0.74441679  0.75156070  0.50120232  1
  V  V4  1  0.87079702  0.37171362  0.00853240  1
  V  V5  1  0.62440527  0.74261990  0.37727910  1
  V  V6  1  0.66267816  0.57011327  0.55304117  1
  V  V7  1  0.00439405  0.11280164  0.13050944  1
  V  V8  1  0.88403524  0.74854770  0.62329046  1
  V  V9  1  -0.00197001  0.88220219  0.37519763  1
  V  V10  1  0.37032681  0.62005206  0.24964118  1
  V  V11  1  0.25554390  0.75062504  -0.00258249  1
  V  V12  1  -0.00767807  0.12760831  0.62575462  1
  V  V13  1  0.61698472  0.24519484  0.87698887  1
  V  V14  1  0.37483820  0.12536104  0.25085283  1
  V  V15  1  0.55447725  0.42117547  0.81850707  1
  V  V16  1  0.24232952  0.75119066  0.49468332  1
  V  V17  1  0.50016527  0.62143636  0.12389870  1
  V  V18  1  0.11860796  0.11300579  0.00177793  1
  V  V19  1  0.25182264  0.00634424  0.75048123  1
  V  V20  1  0.62334432  0.11417415  0.00256320  1
  V  V21  1  0.50117198  0.49234398  -0.00109494  1
  V  V22  1  0.23986439  0.38315804  0.62306995  1
  V  V23  1  0.75519509  0.25489504  0.49683824  1
  V  V24  1  0.49827973  0.49916104  0.49758383  1
  V  V25  1  0.24640450  0.25028053  0.49740951  1
  V  V26  1  0.37198440  0.24620772  0.63036863  1
  V  V27  1  0.87120974  0.88370667  0.49485443  1
  V  V28  1  0.37302905  0.75248346  0.62581010  1
  V  V29  1  0.37698239  0.74923781  0.12450197  1
  V  V30  1  0.11511775  0.25084879  0.36771050  1
  V  V31  1  0.74762245  0.75554469  0.00549593  1
  V  V32  1  0.37475936  0.00071676  0.37576612  1
  V  V33  1  0.25235520  0.88115516  0.12429562  1
  V  V34  1  0.49962152  0.11691061  0.12369095  1
  V  V35  1  0.12249268  0.38040399  0.24806708  1
  V  V36  1  0.24549448  0.87746117  0.62580887  1
  V  V37  1  0.62850290  0.37296231  0.24141116  1
  V  V38  1  0.88108633  0.24975349  0.13548462  1
  V  V39  1  0.75178393  0.11918465  0.87711905  1
  V  V40  1  0.75568221  0.49575353  0.24296469  1
  V  V41  1  0.92388916  0.80359049  0.06993620  1
  V  V42  1  0.37122363  0.49846695  0.37115479  1
  V  V43  1  0.82526857  0.30539753  0.67004578  1
  V  V44  1  -0.00346267  0.62349610  0.12554068  1
  V  V45  1  0.87315913  0.38068913  0.48587248  1
  V  V46  1  0.25088510  0.12580033  0.87572247  1
  V  V47  1  0.12112806  0.12688157  0.49974565  1
  V  V48  1  0.74574554  0.87904558  0.63788548  1
  V  V49  1  0.62251378  0.76795920  0.87271917  1
  V  V50  1  -0.00099041  0.75013021  0.76409730  1
  V  V51  1  0.50039053  0.76498826  0.75162549  1
  V  V52  1  0.75860186  -0.00060947  0.25306938  1
  V  V53  1  0.00083174  0.50260787  0.50003662  1
  V  V54  1  0.37372206  0.87478418  0.50032771  1
  V  V55  1  0.50128439  0.74686304  0.25163728  1
  V  V56  1  0.75764231  0.11995614  0.37660402  1
  V  V57  1  0.38605723  0.00195270  0.87439532  1
  V  V58  1  0.62780825  0.00161051  0.63866214  1
  V  V59  1  0.49752065  0.62733688  0.61872511  1
  V  V60  1  0.86560353  0.11058325  0.75113569  1
  V  V61  1  0.87518159  0.62552698  0.25351196  1
  V  V62  1  0.24656462  0.00164404  0.24834327  1
  V  V63  1  0.11937380  -0.00040140  0.62543309  1
  V  V64  1  0.00241883  0.24986609  0.74728697  1
  V  V65  1  0.62272550  0.25162720  0.37471943  1
  V  V66  1  0.37468214  0.37257550  -0.00562828  1
  V  V67  1  0.12020910  0.62261593  0.51558972  1
  V  V68  1  0.12896491  0.87003854  0.25677237  1
  V  V69  1  0.37552931  0.37342771  0.49327399  1
  V  V70  1  0.50378266  0.00204515  0.50129588  1
  V  V71  1  0.62675786  0.62333799  -0.00252282  1
  V  V72  1  0.88457014  -0.01292815  0.89004741  1
  V  V73  1  0.37272546  0.24998184  0.12369080  1
  V  V74  1  0.00163861  0.49824138  0.00170928  1
  V  V75  1  0.49866109  0.25551797  0.25457383  1
  V  V76  1  0.00426366  0.37440364  0.87669889  1
  V  V77  1  0.49563785  0.12624214  0.63131416  1
  V  V78  1  0.00166702  0.74806194  0.26146851  1
  V  V79  1  0.50090706  0.87409935  0.37619447  1
  V  V80  1  0.62823286  0.87586442  0.25041131  1
  V  V81  1  0.75061667  0.61709007  0.37550825  1
  V  V82  1  0.24726592  0.62734691  0.87214533  1
  V  V83  1  0.23974953  0.62561175  0.37055823  1
  V  V84  1  0.86920221  0.49850461  0.86552366  1
  Zn  Zn85  1  0.24753769  0.12540887  0.37414777  1
  Zn  Zn86  1  0.13033008  0.50498816  0.12834660  1
  Zn  Zn87  1  0.12329617  0.37978073  0.74886848  1
  Zn  Zn88  1  0.86999504  0.62182782  0.74257392  1
  Zn  Zn89  1  0.62953129  0.49286783  0.12196273  1
  Zn  Zn90  1  0.74869369  0.24772274  0.00919534  1
  Zn  Zn91  1  -0.00508507  0.38011012  0.36714016  1
  Zn  Zn92  1  0.24467734  0.24986421  0.00048576  1
  Zn  Zn93  1  0.12310516  0.24653119  0.87766461  1
  Zn  Zn94  1  0.23289985  0.51061068  0.74030456  1
  Zn  Zn95  1  0.11245528  0.88282718  0.76249252  1
  Zn  Zn96  1  0.37392510  0.62771591  0.74887398  1
  Zn  Zn97  1  0.49097981  0.24861606  0.76067581  1
  Zn  Zn98  1  0.74941598  0.62485422  0.86989324  1
  Zn  Zn99  1  0.88488919  0.12402754  0.25718496  1
  Zn  Zn100  1  0.12263637  0.75757086  0.88030816  1
  Zn  Zn101  1  0.68156218  0.42755166  0.67606737  1
  Zn  Zn102  1  0.75401678  0.87653994  0.12352861  1
  Zn  Zn103  1  0.62601387  0.12661922  0.50075220  1
  Zn  Zn104  1  0.62549967  -0.00264961  0.12506248  1
  Zn  Zn105  1  -0.00696352  0.00460655  0.49547207  1
  Zn  Zn106  1  0.12610600  0.62477519  0.00149268  1
  Zn  Zn107  1  0.18483444  0.18886454  0.18580865  1
  Zn  Zn108  1  0.18393021  0.18867588  0.68760927  1
  Zn  Zn109  1  0.18669349  0.68896795  0.18559897  1
  Zn  Zn110  1  0.18484157  0.69285389  0.68972828  1
  Zn  Zn111  1  0.69196544  0.18544993  0.18697623  1
  Zn  Zn112  1  0.65681129  0.22594081  0.66795436  1
  Zn  Zn113  1  0.68752582  0.68507282  0.18593331  1
  Zn  Zn114  1  0.69484677  0.69466284  0.69542153  1
  Zn  Zn115  1  0.30647260  0.31359255  0.31130064  1
  Zn  Zn116  1  0.30812129  0.31308772  0.80910676  1
  Zn  Zn117  1  0.31451491  0.80974963  0.31380938  1
  Zn  Zn118  1  0.31084324  0.82019068  0.81142037  1
  Zn  Zn119  1  0.81033578  0.30977644  0.30843687  1
  Zn  Zn120  1  0.81182095  0.30842824  0.83418040  1
  Zn  Zn121  1  0.81445990  0.80777789  0.31251590  1
  Zn  Zn122  1  0.81213737  0.81066254  0.81505977  1
  Zn  Zn123  1  0.18566962  0.44135178  0.43382092  1
  Zn  Zn124  1  0.18757731  0.43781633  0.93922782  1
  Zn  Zn125  1  0.18385649  0.93978148  0.43628216  1
  Zn  Zn126  1  0.18973036  0.93823719  0.93705453  1
  Zn  Zn127  1  0.68963630  0.43007490  0.42640628  1
  Zn  Zn128  1  0.69300656  0.43533595  0.94442582  1
  Zn  Zn129  1  0.68570504  0.93740095  0.43818517  1
  Zn  Zn130  1  0.69539889  0.94047340  0.93667862  1
  Zn  Zn131  1  0.31219263  0.06276742  0.05780465  1
  Zn  Zn132  1  0.31041604  0.06391475  0.56144075  1
  Zn  Zn133  1  0.31623015  0.56139339  0.05666042  1
  Zn  Zn134  1  0.31124029  0.56515475  0.55809539  1
  Zn  Zn135  1  0.81355220  0.06271671  0.06646228  1
  Zn  Zn136  1  0.80904858  0.06469172  0.56442181  1
  Zn  Zn137  1  0.81526699  0.56565921  0.06217034  1
  Zn  Zn138  1  0.82725704  0.55627599  0.56640005  1
  Zn  Zn139  1  0.43910871  0.43569524  0.18685470  1
  Zn  Zn140  1  0.42892801  0.44025136  0.67656861  1
  Zn  Zn141  1  0.43659116  0.93611125  0.18927691  1
  Zn  Zn142  1  0.43411202  0.94241521  0.68839986  1
  Zn  Zn143  1  0.93837485  0.43823217  0.18890954  1
  Zn  Zn144  1  0.95448984  0.44461707  0.68655274  1
  Zn  Zn145  1  0.94143688  0.94303863  0.19323224  1
  Zn  Zn146  1  0.93433772  0.93443011  0.68770448  1
  Zn  Zn147  1  0.06622401  0.06109819  0.31090267  1
  Zn  Zn148  1  0.05894917  0.06162644  0.81481345  1
  Zn  Zn149  1  0.06146419  0.55681652  0.31402031  1
  Zn  Zn150  1  0.06001089  0.56786551  0.80746344  1
  Zn  Zn151  1  0.56683113  0.06546961  0.31219069  1
  Zn  Zn152  1  0.56279278  0.06797705  0.81079435  1
  Zn  Zn153  1  0.56237650  0.55742979  0.31381883  1
  Zn  Zn154  1  0.57365519  0.58898063  0.79825641  1
  Zn  Zn155  1  0.43687033  0.18638767  0.43855355  1
  Zn  Zn156  1  0.43636107  0.18214030  0.94067950  1
  Zn  Zn157  1  0.43408796  0.68543491  0.43799788  1
  Zn  Zn158  1  0.43871340  0.68504093  0.93295224  1
  Zn  Zn159  1  0.93521306  0.19261909  0.43880105  1
  Zn  Zn160  1  0.93909342  0.18453393  0.94021746  1
  Zn  Zn161  1  0.93542432  0.68835439  0.43844132  1
  Zn  Zn162  1  0.93758873  0.68005736  0.93404098  1
  Zn  Zn163  1  0.06210510  0.30508047  0.06431645  1
  Zn  Zn164  1  0.05564655  0.31290763  0.55896191  1
  Zn  Zn165  1  0.08432186  0.81765851  0.06512880  1
  Zn  Zn166  1  0.06269415  0.81375767  0.55837570  1
  Zn  Zn167  1  0.56029386  0.30582667  0.06125402  1
  Zn  Zn168  1  0.55842835  0.31641221  0.55781245  1
  Zn  Zn169  1  0.56602348  0.81096203  0.06446706  1
  Zn  Zn170  1  0.56491088  0.81457287  0.56590298  1
  O  O171  1  0.11415221  0.12931229  0.11593257  1
  O  O172  1  0.11157997  0.12005398  0.62189458  1
  O  O173  1  0.11261752  0.62451114  0.12497100  1
  O  O174  1  0.12803773  0.62564250  0.61355156  1
  O  O175  1  0.61670049  0.12528204  0.11985253  1
  O  O176  1  0.61525406  0.12301842  0.62077029  1
  O  O177  1  0.61767937  0.62325088  0.11232365  1
  O  O178  1  0.61660942  0.63484416  0.62240767  1
  O  O179  1  0.36646468  0.38224466  0.38461537  1
  O  O180  1  0.36566736  0.38298217  0.88040748  1
  O  O181  1  0.38186495  0.87973145  0.38089582  1
  O  O182  1  0.37048298  0.89031241  0.88323830  1
  O  O183  1  0.87573524  0.37081360  0.38167567  1
  O  O184  1  0.88534543  0.38223653  0.88490605  1
  O  O185  1  0.88413658  0.86827528  0.38330113  1
  O  O186  1  0.86774350  0.88880480  0.87484594  1
  O  O187  1  0.25735182  0.00109951  0.36873796  1
  O  O188  1  0.25502494  0.00998213  0.86722845  1
  O  O189  1  0.26287725  0.51086941  0.37935339  1
  O  O190  1  0.25565399  0.50851246  0.87413729  1
  O  O191  1  0.74221916  0.01055635  0.37024360  1
  O  O192  1  0.75882895  0.01351552  0.87471238  1
  O  O193  1  0.74354436  0.51148503  0.36276755  1
  O  O194  1  0.76687880  0.49272853  0.87768789  1
  O  O195  1  0.25075716  0.48861113  0.11736228  1
  O  O196  1  0.25639710  0.48650000  0.62281516  1
  O  O197  1  0.26268258  0.99051709  0.13505875  1
  O  O198  1  0.24154232  0.99973412  0.63058267  1
  O  O199  1  0.74755439  0.50814967  0.13828806  1
  O  O200  1  0.72977606  0.51058367  0.61275567  1
  O  O201  1  0.74644141  0.99756749  0.13732796  1
  O  O202  1  0.74179210  0.98842509  0.61990254  1
  O  O203  1  0.01663572  0.37646311  0.24879918  1
  O  O204  1  -0.00059016  0.36620607  0.75817232  1
  O  O205  1  0.00829312  0.86913170  0.25516624  1
  O  O206  1  -0.00172765  0.85628923  0.74031188  1
  O  O207  1  0.50571342  0.36133686  0.24696640  1
  O  O208  1  0.49351662  0.37289746  0.75234641  1
  O  O209  1  0.50600213  0.86850037  0.25771192  1
  O  O210  1  0.49914446  0.86408144  0.74023793  1
  O  O211  1  0.49503368  0.13484609  0.24523919  1
  O  O212  1  0.49679241  0.12723511  0.73516381  1
  O  O213  1  0.49152289  0.62762520  0.24611516  1
  O  O214  1  0.49527999  0.63596072  0.73378245  1
  O  O215  1  1.00327225  0.12089242  0.23687098  1
  O  O216  1  0.98849032  0.13287966  0.74662041  1
  O  O217  1  0.99671170  0.63061940  0.24709053  1
  O  O218  1  0.98874456  0.64318404  0.75259626  1
  O  O219  1  0.37258177  0.25420314  0.00927932  1
  O  O220  1  0.36553559  0.25682358  0.50167722  1
  O  O221  1  0.37074765  0.75519340  0.00278378  1
  O  O222  1  0.36623017  0.75592905  0.50576816  1
  O  O223  1  0.87620640  0.25684725  0.00758503  1
  O  O224  1  0.86336400  0.26059561  0.49836010  1
  O  O225  1  0.86724987  0.74657166  0.00195776  1
  O  O226  1  0.86484029  0.75675283  0.50778119  1
  O  O227  1  0.12975181  0.24623928  0.49344208  1
  O  O228  1  0.12702695  0.23767421  0.99665274  1
  O  O229  1  0.13253650  0.73902446  0.50176431  1
  O  O230  1  0.14375962  0.74641592  1.00114407  1
  O  O231  1  0.63536656  0.25167632  0.48985780  1
  O  O232  1  0.62631437  0.23959496  0.99381291  1
  O  O233  1  0.63653556  0.75492295  0.49452169  1
  O  O234  1  0.62746607  0.74327986  0.99119038  1
  O  O235  1  0.48805024  0.24247416  0.13294471  1
  O  O236  1  0.48710170  0.24127413  0.62019377  1
  O  O237  1  0.49543901  0.74145680  0.13059763  1
  O  O238  1  0.49365858  0.74656472  0.62721350  1
  O  O239  1  0.98764406  0.23663995  0.12107050  1
  O  O240  1  1.00142359  0.24242143  0.63614555  1
  O  O241  1  0.99489821  0.74716838  0.12888155  1
  O  O242  1  0.98478746  0.75329106  0.62040129  1
  O  O243  1  0.01227451  0.25546024  0.37912499  1
  O  O244  1  -0.00408639  0.25698852  0.86473704  1
  O  O245  1  -0.00097646  0.75804394  0.36516829  1
  O  O246  1  -0.00220067  0.75177309  0.86771715  1
  O  O247  1  0.50841115  0.24286903  0.36656191  1
  O  O248  1  0.50532366  0.24682028  0.87782143  1
  O  O249  1  0.50478050  0.75271211  0.37229656  1
  O  O250  1  0.51143030  0.74625989  0.86645408  1
  O  O251  1  0.24091332  0.13424077  0.49906169  1
  O  O252  1  0.24102031  0.12747571  0.99336297  1
  O  O253  1  0.23914668  0.63168411  0.49328033  1
  O  O254  1  0.25282367  0.63392666  0.99265513  1
  O  O255  1  0.74888055  0.13355293  0.49377189  1
  O  O256  1  0.74174878  0.12514595  0.99502705  1
  O  O257  1  0.74366252  0.62585355  0.49671927  1
  O  O258  1  0.74197283  0.63081654  0.99681229  1
  O  O259  1  0.25567658  0.37095125  0.00834454  1
  O  O260  1  0.25246492  0.37003401  0.50560580  1
  O  O261  1  0.25961254  0.86941581  0.00963184  1
  O  O262  1  0.25076240  0.86828486  0.50312680  1
  O  O263  1  0.76623294  0.37076888  0.00263177  1
  O  O264  1  0.75795513  0.36876010  0.49600075  1
  O  O265  1  0.74404307  0.86395879  0.00600888  1
  O  O266  1  0.75534432  0.86683040  0.50043447  1
  O  O267  1  0.12811751  0.48570300  0.24735623  1
  O  O268  1  0.12117467  0.49407042  0.75198699  1
  O  O269  1  0.14111589  0.99190174  0.25401181  1
  O  O270  1  0.12756937  1.00160416  0.73903246  1
  O  O271  1  0.62971372  0.48903460  0.24727564  1
  O  O272  1  0.61388599  0.48342886  0.76134310  1
  O  O273  1  0.63301772  0.99011434  0.25226134  1
  O  O274  1  0.62253195  1.00377053  0.73784094  1
  O  O275  1  0.36717595  0.00346418  0.25700896  1
  O  O276  1  0.36475860  -0.00206054  0.76170759  1
  O  O277  1  0.38142381  0.50779260  0.25792041  1
  O  O278  1  0.37191437  0.50115254  0.75845169  1
  O  O279  1  0.86287078  0.00126321  0.25335035  1
  O  O280  1  0.87406041  0.00897388  0.75472078  1
  O  O281  1  0.86922546  0.51156045  0.24819035  1
  O  O282  1  0.88393864  0.49801000  0.76315919  1
  O  O283  1  0.12941464  0.36931564  0.36191313  1
  O  O284  1  0.11239455  0.37156329  0.87881026  1
  O  O285  1  0.11927289  0.87514063  0.36425842  1
  O  O286  1  0.13282300  0.86998844  0.87317184  1
  O  O287  1  0.62692664  0.35936039  0.36008821  1
  O  O288  1  0.62086734  0.36761964  0.87903836  1
  O  O289  1  0.62068912  0.86574986  0.36677225  1
  O  O290  1  0.62332450  0.86609491  0.87988798  1
  O  O291  1  0.38001559  0.13132190  0.12961938  1
  O  O292  1  0.38071165  0.13534586  0.61600688  1
  O  O293  1  0.37950275  0.62708654  0.13147224  1
  O  O294  1  0.37993278  0.63384764  0.62360551  1
  O  O295  1  0.88902856  0.12963377  0.12800242  1
  O  O296  1  0.88367212  0.11798225  0.63680849  1
  O  O297  1  0.88861635  0.62358822  0.13336491  1
  O  O298  1  0.86890916  0.64451945  0.62274575  1
  O  O299  1  0.26284733  0.25546140  0.12678544  1
  O  O300  1  0.25264662  0.25530957  0.61405268  1
  O  O301  1  0.25934786  0.75628691  0.11837393  1
  O  O302  1  0.25294021  0.75665177  0.61651090  1
  O  O303  1  0.77275029  0.23832449  0.12431051  1
  O  O304  1  0.76281863  0.24191556  0.61657108  1
  O  O305  1  0.74436848  0.75003228  0.11136593  1
  O  O306  1  0.75269846  0.76269704  0.61794930  1
  O  O307  1  0.24250771  0.24973930  0.38641537  1
  O  O308  1  0.24986156  0.23558663  0.87229647  1
  O  O309  1  0.25717884  0.74190432  0.38769851  1
  O  O310  1  0.25676466  0.74350228  0.88248779  1
  O  O311  1  0.74383664  0.24323264  0.38028280  1
  O  O312  1  0.74113284  0.23720332  0.88376298  1
  O  O313  1  0.74551739  0.73952883  0.38359583  1
  O  O314  1  0.73716335  0.75077317  0.88363406  1
  O  O315  1  0.01250396  0.12360373  0.00702287  1
  O  O316  1  0.00026657  0.12569976  0.50927603  1
  O  O317  1  0.00068875  0.61718358  0.00836793  1
  O  O318  1  0.01451039  0.62344802  0.49255501  1
  O  O319  1  0.50825375  0.12793344  0.01371346  1
  O  O320  1  0.50059012  0.11574130  0.50682853  1
  O  O321  1  0.50505050  0.61207753  0.00102595  1
  O  O322  1  0.49914934  0.62056835  0.50986176  1
  O  O323  1  0.48751012  0.38485254  0.50111955  1
  O  O324  1  0.49419321  0.38560988  1.00490579  1
  O  O325  1  0.49563040  0.88217898  0.49584589  1
  O  O326  1  0.48777236  0.87187350  1.00749134  1
  O  O327  1  0.99094575  0.38137110  0.49500535  1
  O  O328  1  0.99415816  0.37962835  0.99606590  1
  O  O329  1  0.99136922  0.87604054  0.49091222  1
  O  O330  1  0.98777085  0.85800416  1.01766326  1
  O  O331  1  0.48603325  0.50873023  0.38753918  1
  O  O332  1  0.49835282  0.49293279  0.87361282  1
  O  O333  1  0.49670450  0.99657400  0.38217451  1
  O  O334  1  0.48466841  1.00699287  0.86879398  1
  O  O335  1  1.00578692  0.49497717  0.38896628  1
  O  O336  1  0.99228697  0.49332625  0.88355527  1
  O  O337  1  1.00361587  0.98754086  0.37538549  1
  O  O338  1  0.98380116  1.00096632  0.87278075  1
  O  O339  1  -0.00093063  0.01312076  0.12411415  1
  O  O340  1  0.00479152  0.00705430  0.62375045  1
  O  O341  1  0.00251508  0.50719577  0.11878577  1
  O  O342  1  -0.00117938  0.50271617  0.60323603  1
  O  O343  1  0.50210195  0.01319457  0.13563482  1
  O  O344  1  0.50446958  0.00590237  0.61868527  1
  O  O345  1  0.50155664  0.50433443  0.11475728  1
  O  O346  1  0.49604791  0.50982386  0.61081764  1
  O  O347  1  0.24162029  0.37369298  0.23819412  1
  O  O348  1  0.24705614  0.37510404  0.73189021  1
  O  O349  1  0.24782698  0.87842969  0.24703218  1
  O  O350  1  0.24578514  0.88853130  0.74104455  1
  O  O351  1  0.74320490  0.38445189  0.25235114  1
  O  O352  1  0.76862933  0.36165477  0.73491253  1
  O  O353  1  0.74343063  0.87929331  0.25271037  1
  O  O354  1  0.75073150  0.87139969  0.73575938  1
  O  O355  1  0.25537878  0.11706673  0.24892171  1
  O  O356  1  0.24235404  0.11419152  0.75598880  1
  O  O357  1  0.26242928  0.63277343  0.25496571  1
  O  O358  1  0.25290015  0.62713197  0.75694509  1
  O  O359  1  0.75069900  0.11539720  0.25995275  1
  O  O360  1  0.76605283  0.13170635  0.75679133  1
  O  O361  1  0.75775684  0.62206264  0.25620401  1
  O  O362  1  0.75549443  0.62547507  0.75624410  1
  O  O363  1  0.37167662  0.11927888  0.36837358  1
  O  O364  1  0.36480999  0.11213386  0.88239293  1
  O  O365  1  0.36689959  0.61941062  0.36738177  1
  O  O366  1  0.36538240  0.61602309  0.87251071  1
  O  O367  1  0.86312612  0.13049672  0.37433820  1
  O  O368  1  0.87007951  0.12240942  0.86632027  1
  O  O369  1  0.86295722  0.62956167  0.36845616  1
  O  O370  1  0.87219537  0.60598864  0.87826821  1
  O  O371  1  0.13290657  0.37297209  0.13360855  1
  O  O372  1  0.13817913  0.36978906  0.61952648  1
  O  O373  1  0.14350867  0.87651900  0.13934829  1
  O  O374  1  0.12780139  0.88638345  0.62299492  1
  O  O375  1  0.62225420  0.37061920  0.13613839  1
  O  O376  1  0.63071361  0.33732003  0.63825875  1
  O  O377  1  0.62415363  0.87473752  0.14068518  1
  O  O378  1  0.63819561  0.88458716  0.62126039  1
  O  O379  1  0.13245209  0.26095779  0.25878237  1
  O  O380  1  0.11526840  0.25387927  0.75545579  1
  O  O381  1  0.11505766  0.75872384  0.24483089  1
  O  O382  1  0.10757370  0.75056370  0.75086682  1
  O  O383  1  0.61909295  0.25244655  0.25328364  1
  O  O384  1  0.61622932  0.24014524  0.77290861  1
  O  O385  1  0.62039192  0.75468298  0.25585670  1
  O  O386  1  0.61758143  0.74843874  0.76551281  1
  O  O387  1  0.38072026  0.24679493  0.24643965  1
  O  O388  1  0.37272469  0.25296874  0.73398656  1
  O  O389  1  0.38283514  0.74197252  0.24550308  1
  O  O390  1  0.38094900  0.75283320  0.74313943  1
  O  O391  1  0.87791281  0.24652237  0.23995175  1
  O  O392  1  0.87809032  0.24983651  0.74402576  1
  O  O393  1  0.88466301  0.73632129  0.25171831  1
  O  O394  1  0.88140134  0.75268014  0.73862416  1
  O  O395  1  0.37899916  0.49340051  0.49299960  1
  O  O396  1  0.38433794  0.49608888  0.98520020  1
  O  O397  1  0.38337853  0.99469560  0.49659232  1
  O  O398  1  0.37262997  0.99282527  0.98708713  1
  O  O399  1  0.88258514  0.49176075  0.49534053  1
  O  O400  1  0.88464086  0.49206350  0.99797358  1
  O  O401  1  0.87350366  0.98743378  0.50364178  1
  O  O402  1  0.87252239  1.00242149  0.98906214  1
  O  O403  1  0.13432687  0.01441222  0.00452747  1
  O  O404  1  0.12206699  0.00848775  0.50955525  1
  O  O405  1  0.11261757  0.50129678  0.00288288  1
  O  O406  1  0.12269689  0.51632653  0.49610463  1
  O  O407  1  0.62741485  0.01015451  0.00333049  1
  O  O408  1  0.61318634  0.00054353  0.50552627  1
  O  O409  1  0.61933529  0.50421193  0.00044803  1
  O  O410  1  0.61561033  0.49819008  0.48958761  1
  O  O411  1  0.36958226  0.36882822  0.11947459  1
  O  O412  1  0.36404823  0.36683234  0.61120046  1
  O  O413  1  0.36984058  0.86888885  0.12104252  1
  O  O414  1  0.36615110  0.87374550  0.61755230  1
  O  O415  1  0.88435374  0.36059794  0.12148589  1
  O  O416  1  0.87985253  0.37315224  0.61715594  1
  O  O417  1  0.87412965  0.86804901  0.13243455  1
  O  O418  1  0.86302558  0.86848388  0.61698476  1
  O  O419  1  0.12579411  0.13365628  0.37979935  1
  O  O420  1  0.12957521  0.12261119  0.88590499  1
  O  O421  1  0.13853592  0.62423258  0.37070526  1
  O  O422  1  0.13705057  0.63179403  0.87853112  1
  O  O423  1  0.63396412  0.13620200  0.37697928  1
  O  O424  1  0.63081191  0.12635011  0.88416442  1
  O  O425  1  0.63361088  0.63283797  0.36832545  1
  O  O426  1  0.62697335  0.62927083  0.88770621  1
