# generated using pymatgen
data_V85Zn86O256
_symmetry_space_group_name_H-M   'P 1'
_cell_length_a   16.95340761
_cell_length_b   16.93362351
_cell_length_c   16.95999960
_cell_angle_alpha   89.98705252
_cell_angle_beta   90.02545024
_cell_angle_gamma   89.90443481
_symmetry_Int_Tables_number   1
_chemical_formula_structural   V85Zn86O256
_chemical_formula_sum   'V85 Zn86 O256'
_cell_volume   4868.91377133
_cell_formula_units_Z   1
loop_
 _symmetry_equiv_pos_site_id
 _symmetry_equiv_pos_as_xyz
  1  'x, y, z'
loop_
 _atom_site_type_symbol
 _atom_site_label
 _atom_site_symmetry_multiplicity
 _atom_site_fract_x
 _atom_site_fract_y
 _atom_site_fract_z
 _atom_site_occupancy
  V  V0  1  0.87863420  0.87700983  0.49575821  1
  V  V1  1  0.00078909  0.87508489  0.87839760  1
  V  V2  1  0.75138965  0.87347191  0.63007396  1
  V  V3  1  0.62868912  0.12571304  0.00207248  1
  V  V4  1  0.62802932  0.25055789  0.88023835  1
  V  V5  1  0.37056435  0.49798608  0.86699448  1
  V  V6  1  0.76511751  0.49751271  0.25586692  1
  V  V7  1  0.50294218  0.75240658  0.25231034  1
  V  V8  1  0.87292371  0.37959590  0.49415275  1
  V  V9  1  0.25110463  0.87718036  0.62763674  1
  V  V10  1  -0.00870970  0.24213891  0.24516477  1
  V  V11  1  0.50046427  0.73842676  0.74723883  1
  V  V12  1  0.89647272  0.74661387  0.12294524  1
  V  V13  1  0.19937499  0.54654148  0.18972794  1
  V  V14  1  0.25004915  -0.00016073  0.24505359  1
  V  V15  1  0.13458045  0.37207783  0.23563980  1
  V  V16  1  0.87712035  0.74885639  0.63098355  1
  V  V17  1  -0.00450475  0.50222623  0.50021645  1
  V  V18  1  0.62308626  0.25194272  0.37148621  1
  V  V19  1  0.50228383  0.62324441  0.12687604  1
  V  V20  1  0.75063272  0.87530807  0.13190544  1
  V  V21  1  0.63061412  0.74333617  0.87751011  1
  V  V22  1  0.37533269  0.12803492  0.25080126  1
  V  V23  1  -0.00271368  -0.00348930  0.48733140  1
  V  V24  1  0.00044164  0.25796969  0.74680290  1
  V  V25  1  0.87439413  0.12524152  0.74832486  1
  V  V26  1  0.62382925  0.87251241  0.75272187  1
  V  V27  1  0.00507295  0.75200064  0.27370448  1
  V  V28  1  0.86850158  0.23820863  0.12096871  1
  V  V29  1  0.74809586  0.12573532  0.87664547  1
  V  V30  1  0.49874131  0.12497173  0.62724772  1
  V  V31  1  0.87302669  -0.00181456  0.87529723  1
  V  V32  1  0.74854461  -0.00091571  0.75067234  1
  V  V33  1  0.74808154  0.37624314  0.11777419  1
  V  V34  1  0.02116318  0.50414670  0.02190481  1
  V  V35  1  0.62365169  0.37747362  0.74560213  1
  V  V36  1  0.74939579  0.74675176  0.49641111  1
  V  V37  1  0.74528228  0.38657760  0.62169329  1
  V  V38  1  0.75477504  0.50128763  0.76571490  1
  V  V39  1  0.63008872  -0.00030308  0.13261818  1
  V  V40  1  -0.00456287  0.37936972  0.37058614  1
  V  V41  1  0.24786061  0.74860554  0.48573408  1
  V  V42  1  0.36815220  0.37725320  0.50152937  1
  V  V43  1  0.37047125  0.25251211  0.12563831  1
  V  V44  1  0.50018399  0.37353679  0.87652972  1
  V  V45  1  0.24732199  0.25291374  -0.00017786  1
  V  V46  1  0.62404180  -0.00009528  0.62710913  1
  V  V47  1  0.14056703  0.37857600  0.74633528  1
  V  V48  1  0.12534949  -0.00119637  0.62676910  1
  V  V49  1  0.37318988  -0.00411862  0.87982822  1
  V  V50  1  0.12266384  0.12601872  0.50053226  1
  V  V51  1  0.12314081  0.87576771  0.26045232  1
  V  V52  1  0.24704053  0.12131019  0.87178885  1
  V  V53  1  0.12486360  0.74650463  0.88593961  1
  V  V54  1  0.37636206  0.00172808  0.37574762  1
  V  V55  1  0.74942699  0.74617981  0.01000430  1
  V  V56  1  0.36856028  0.25361248  0.62585970  1
  V  V57  1  0.12956563  0.87990522  0.75140277  1
  V  V58  1  0.12292579  0.25341119  0.37501748  1
  V  V59  1  0.00547364  0.74650343  0.75027337  1
  V  V60  1  0.24961257  0.12837613  0.37633307  1
  V  V61  1  0.12810857  0.62750116  0.48642566  1
  V  V62  1  0.74777323  0.25140411  0.49940732  1
  V  V63  1  0.37443434  0.87470220  0.50090166  1
  V  V64  1  0.37110374  0.11863405  0.74971214  1
  V  V65  1  0.49996038  0.50253516  0.51065190  1
  V  V66  1  0.11403090  0.12867286  0.00490978  1
  V  V67  1  0.26539406  0.75759625  -0.00532372  1
  V  V68  1  0.49888008  -0.00068857  0.50170244  1
  V  V69  1  -0.00143848  0.12254424  0.62318451  1
  V  V70  1  0.87243184  0.25094997  0.62172280  1
  V  V71  1  0.62557437  0.12598294  0.50063564  1
  V  V72  1  0.37653202  0.74232325  0.62426963  1
  V  V73  1  0.37289818  0.62190782  0.25050778  1
  V  V74  1  0.75438419  0.11152038  0.36874161  1
  V  V75  1  0.13956286  0.50121955  0.62654734  1
  V  V76  1  0.50012267  0.12479909  0.12490281  1
  V  V77  1  0.36531738  0.50473993  0.37382102  1
  V  V78  1  0.37021543  0.37674300  0.00371320  1
  V  V79  1  0.62174178  0.38810893  0.24705970  1
  V  V80  1  0.63093514  0.61811149  0.00192664  1
  V  V81  1  0.49763706  0.87233268  0.88254035  1
  V  V82  1  0.62039901  0.62093338  0.51316666  1
  V  V83  1  0.50148977  0.49886552  0.00483150  1
  V  V84  1  0.24853459  0.62247352  0.87060772  1
  Zn  Zn85  1  0.00356306  0.62470796  0.62383772  1
  Zn  Zn86  1  0.62346815  0.74758801  0.37792622  1
  Zn  Zn87  1  0.11774852  0.00203543  0.12450391  1
  Zn  Zn88  1  0.88683111  0.62200577  0.25684465  1
  Zn  Zn89  1  0.38033237  0.75940282  0.12125932  1
  Zn  Zn90  1  0.25504049  0.88090696  0.11673058  1
  Zn  Zn91  1  0.50283848  0.87474421  0.37568620  1
  Zn  Zn92  1  0.75291057  0.61635356  0.37892393  1
  Zn  Zn93  1  0.50050020  0.25457623  0.24946260  1
  Zn  Zn94  1  0.87406961  0.87411972  0.00048810  1
  Zn  Zn95  1  0.49960730  0.24923496  0.75085124  1
  Zn  Zn96  1  0.24523351  0.25652402  0.50425809  1
  Zn  Zn97  1  0.87794911  0.61216736  0.75367504  1
  Zn  Zn98  1  0.49875219  0.38126873  0.37402413  1
  Zn  Zn99  1  0.49660477  -0.00560758  0.00431499  1
  Zn  Zn100  1  -0.00947562  0.39311078  0.87131929  1
  Zn  Zn101  1  0.87774411  0.09084405  0.25252898  1
  Zn  Zn102  1  0.62838374  0.87892667  0.25839535  1
  Zn  Zn103  1  0.12558444  0.25472707  0.87273142  1
  Zn  Zn104  1  0.87384204  0.39143158  -0.00573536  1
  Zn  Zn105  1  -0.00502135  0.01109548  -0.00096741  1
  Zn  Zn106  1  0.37387709  0.61593396  0.74348635  1
  Zn  Zn107  1  0.18686306  0.19118628  0.18666199  1
  Zn  Zn108  1  0.18784152  0.18757796  0.68801647  1
  Zn  Zn109  1  0.18573774  0.70730968  0.18237872  1
  Zn  Zn110  1  0.19014174  0.68818149  0.68649109  1
  Zn  Zn111  1  0.68988288  0.18975993  0.19127723  1
  Zn  Zn112  1  0.68672479  0.19205239  0.68893132  1
  Zn  Zn113  1  0.68449449  0.68124429  0.18901508  1
  Zn  Zn114  1  0.68901403  0.68399137  0.68885635  1
  Zn  Zn115  1  0.31261791  0.31502502  0.31655570  1
  Zn  Zn116  1  0.31425410  0.30751901  0.81448049  1
  Zn  Zn117  1  0.31842670  0.81583069  0.30688801  1
  Zn  Zn118  1  0.31351180  0.81169058  0.80976369  1
  Zn  Zn119  1  0.80892345  0.31128112  0.31173677  1
  Zn  Zn120  1  0.81107302  0.31566766  0.81314173  1
  Zn  Zn121  1  0.84736901  0.87508638  0.28848491  1
  Zn  Zn122  1  0.84211945  0.76577022  0.84671086  1
  Zn  Zn123  1  0.18489221  0.43943379  0.43578630  1
  Zn  Zn124  1  0.18361802  0.43781421  0.93391045  1
  Zn  Zn125  1  0.18939036  0.94050400  0.43857879  1
  Zn  Zn126  1  0.18741350  0.94145504  0.93616646  1
  Zn  Zn127  1  0.68195617  0.44040594  0.43527882  1
  Zn  Zn128  1  0.68566503  0.43699556  0.93864119  1
  Zn  Zn129  1  0.68620137  0.93169687  0.44116428  1
  Zn  Zn130  1  0.68523768  0.93491187  0.94408229  1
  Zn  Zn131  1  0.31111418  0.06670082  0.05889110  1
  Zn  Zn132  1  0.30893843  0.06328588  0.56349625  1
  Zn  Zn133  1  0.31466047  0.57207814  0.05302398  1
  Zn  Zn134  1  0.31079749  0.56438773  0.55667859  1
  Zn  Zn135  1  0.81238578  0.06308362  0.06394011  1
  Zn  Zn136  1  0.81175313  0.06117641  0.55811021  1
  Zn  Zn137  1  0.81628784  0.56297229  0.07580556  1
  Zn  Zn138  1  0.81475168  0.56552858  0.56605177  1
  Zn  Zn139  1  0.43316091  0.43914917  0.18722077  1
  Zn  Zn140  1  0.43786711  0.43420871  0.68590707  1
  Zn  Zn141  1  0.43654469  0.93602864  0.18622899  1
  Zn  Zn142  1  0.43691904  0.93366696  0.69329624  1
  Zn  Zn143  1  0.93744074  0.42684087  0.18085083  1
  Zn  Zn144  1  0.93722814  0.43829826  0.68122685  1
  Zn  Zn145  1  0.94699282  0.93845493  0.17562720  1
  Zn  Zn146  1  0.93986745  0.93517686  0.68761781  1
  Zn  Zn147  1  0.06341221  0.06343255  0.30959479  1
  Zn  Zn148  1  0.06153799  0.06493300  0.81286547  1
  Zn  Zn149  1  0.05876983  0.55996516  0.30918268  1
  Zn  Zn150  1  0.06597677  0.56130639  0.81436208  1
  Zn  Zn151  1  0.56270977  0.06509318  0.31280667  1
  Zn  Zn152  1  0.55846266  0.06100826  0.81431729  1
  Zn  Zn153  1  0.56118799  0.56609331  0.32416829  1
  Zn  Zn154  1  0.56503097  0.55879904  0.81535574  1
  Zn  Zn155  1  0.43866690  0.19052482  0.44008008  1
  Zn  Zn156  1  0.43908393  0.18604995  0.93833502  1
  Zn  Zn157  1  0.43711121  0.68494601  0.43575108  1
  Zn  Zn158  1  0.44067502  0.68211691  0.93239739  1
  Zn  Zn159  1  0.93516610  0.18771992  0.43335510  1
  Zn  Zn160  1  0.92475958  0.21545845  0.92315872  1
  Zn  Zn161  1  0.93092775  0.68482706  0.43708048  1
  Zn  Zn162  1  0.91913084  0.58801830  0.92794855  1
  Zn  Zn163  1  0.05264902  0.31504396  0.05913912  1
  Zn  Zn164  1  0.06229879  0.31743436  0.56381998  1
  Zn  Zn165  1  0.07215252  0.82230172  0.06294284  1
  Zn  Zn166  1  0.06360041  0.81088069  0.55834967  1
  Zn  Zn167  1  0.56328238  0.31139161  0.06417082  1
  Zn  Zn168  1  0.55688568  0.31441659  0.56207631  1
  Zn  Zn169  1  0.56427097  0.81070656  0.06613468  1
  Zn  Zn170  1  0.56173838  0.81007388  0.56344137  1
  O  O171  1  0.12762284  0.12999001  0.10794400  1
  O  O172  1  0.11985878  0.11965474  0.62042003  1
  O  O173  1  0.14187225  0.60919085  0.13871212  1
  O  O174  1  0.12551321  0.61355378  0.62028238  1
  O  O175  1  0.62044411  0.12318812  0.12033877  1
  O  O176  1  0.61926415  0.12166987  0.62141260  1
  O  O177  1  0.61016550  0.62431224  0.11690062  1
  O  O178  1  0.62572926  0.62591732  0.61266548  1
  O  O179  1  0.37888630  0.38098936  0.38262940  1
  O  O180  1  0.37974646  0.37707492  0.88403935  1
  O  O181  1  0.37710975  0.88679182  0.38153127  1
  O  O182  1  0.38373984  0.88512861  0.86569597  1
  O  O183  1  0.88404584  0.36877124  0.38197613  1
  O  O184  1  0.88772408  0.33416088  0.89222145  1
  O  O185  1  0.86807540  0.86612236  0.39811379  1
  O  O186  1  0.88388149  0.87663835  0.87771241  1
  O  O187  1  0.25576524  0.00867865  0.36604282  1
  O  O188  1  0.25803533  0.01220900  0.87672652  1
  O  O189  1  0.26527515  0.49712449  0.37933402  1
  O  O190  1  0.25843955  0.50901939  0.87953554  1
  O  O191  1  0.74508739  0.01370023  0.38601065  1
  O  O192  1  0.75402859  0.00266209  0.87005826  1
  O  O193  1  0.75050537  0.49315958  0.35941401  1
  O  O194  1  0.75484006  0.49091004  0.86465878  1
  O  O195  1  0.26025616  0.49987443  0.12537321  1
  O  O196  1  0.23833969  0.50108779  0.62147592  1
  O  O197  1  0.25042906  1.00812230  0.13785400  1
  O  O198  1  0.24237665  0.98602396  0.61919598  1
  O  O199  1  0.75189227  0.48322040  0.13790724  1
  O  O200  1  0.75072820  0.48796083  0.62767115  1
  O  O201  1  0.74131553  0.98920751  0.11925203  1
  O  O202  1  0.74421165  0.99353107  0.62935621  1
  O  O203  1  0.00864089  0.36732926  0.25718887  1
  O  O204  1  0.00214353  0.36907877  0.74870979  1
  O  O205  1  0.01767327  0.86750676  0.24609182  1
  O  O206  1  0.00839065  0.86952043  0.75796814  1
  O  O207  1  0.50682329  0.37383793  0.24938285  1
  O  O208  1  0.50806778  0.37330053  0.75678988  1
  O  O209  1  0.50273444  0.86520840  0.25198658  1
  O  O210  1  0.50691170  0.86516069  0.75967935  1
  O  O211  1  0.49339414  0.13012990  0.24191477  1
  O  O212  1  0.49261485  0.12653425  0.74335723  1
  O  O213  1  0.49469201  0.62814918  0.24336651  1
  O  O214  1  0.49942099  0.63508073  0.75507609  1
  O  O215  1  0.99315448  0.13816786  0.25829753  1
  O  O216  1  0.99395899  0.12924227  0.73929311  1
  O  O217  1  1.00551706  0.64655870  0.25663722  1
  O  O218  1  1.00480585  0.63866564  0.74605842  1
  O  O219  1  0.36870550  0.25560624  0.00483272  1
  O  O220  1  0.37400522  0.25899555  0.50718865  1
  O  O221  1  0.36785687  0.75155367  -0.00809371  1
  O  O222  1  0.37011784  0.75484285  0.50657080  1
  O  O223  1  0.87012353  0.23219162  0.02134780  1
  O  O224  1  0.86786911  0.25637448  0.50358162  1
  O  O225  1  0.86292604  0.74882434  0.01661482  1
  O  O226  1  0.86959976  0.75388357  0.51590862  1
  O  O227  1  0.12339671  0.24660953  0.49318310  1
  O  O228  1  0.13078254  0.24602651  0.99664327  1
  O  O229  1  0.13172905  0.73628361  0.50215730  1
  O  O230  1  0.13403728  0.75463731  0.98778546  1
  O  O231  1  0.62810916  0.24609135  0.49417752  1
  O  O232  1  0.62096070  0.24069273  0.99138084  1
  O  O233  1  0.63192795  0.73977061  0.50523441  1
  O  O234  1  0.62816091  0.73970769  0.99559165  1
  O  O235  1  0.48925199  0.24039476  0.12369527  1
  O  O236  1  0.48925104  0.23986983  0.62514127  1
  O  O237  1  0.49924067  0.74172548  0.13216402  1
  O  O238  1  0.48934042  0.75654542  0.63565712  1
  O  O239  1  0.98166804  0.25428678  0.13357884  1
  O  O240  1  0.99436627  0.24451046  0.62943313  1
  O  O241  1  0.99561754  0.75075929  0.11554655  1
  O  O242  1  0.99494906  0.75082189  0.63172845  1
  O  O243  1  0.00572962  0.25859053  0.37016746  1
  O  O244  1  0.01026244  0.23924925  0.85060078  1
  O  O245  1  -0.00016868  0.75612159  0.37147424  1
  O  O246  1  0.01229185  0.76048875  0.86487555  1
  O  O247  1  0.51296096  0.25057105  0.37489755  1
  O  O248  1  0.50877947  0.25532425  0.87411530  1
  O  O249  1  0.49975062  0.75172487  0.36654876  1
  O  O250  1  0.50897111  0.75461107  0.86877929  1
  O  O251  1  0.24003310  0.12546660  0.49246160  1
  O  O252  1  0.24363990  0.13652975  0.99156588  1
  O  O253  1  0.23722829  0.63404484  0.50135893  1
  O  O254  1  0.25619792  0.64197146  0.98234104  1
  O  O255  1  0.74356391  0.13259328  0.49471576  1
  O  O256  1  0.73568330  0.11941032  0.99322458  1
  O  O257  1  0.74118897  0.63023826  0.50515667  1
  O  O258  1  0.73727253  0.62917240  1.01273232  1
  O  O259  1  0.25691490  0.36143278  -0.00954611  1
  O  O260  1  0.26331970  0.37552206  0.49674241  1
  O  O261  1  0.24865183  0.86237233  -0.00682527  1
  O  O262  1  0.25443993  0.86940862  0.50657992  1
  O  O263  1  0.74798693  0.37747697  0.01473363  1
  O  O264  1  0.75077495  0.37218585  0.50450275  1
  O  O265  1  0.74891149  0.86419131  0.01097019  1
  O  O266  1  0.75365617  0.86840711  0.51546408  1
  O  O267  1  0.13134311  0.48696195  0.25033422  1
  O  O268  1  0.12355600  0.49100543  0.73617126  1
  O  O269  1  0.13275193  0.99540530  0.24779332  1
  O  O270  1  0.11936001  0.98793957  0.74409600  1
  O  O271  1  0.62426877  0.48964080  0.25562908  1
  O  O272  1  0.63471815  0.48484579  0.75782060  1
  O  O273  1  0.61978188  1.00060292  0.23682211  1
  O  O274  1  0.62829478  0.99489389  0.74558763  1
  O  O275  1  0.36931082  0.00819085  0.25710719  1
  O  O276  1  0.37989271  0.01214882  0.75955141  1
  O  O277  1  0.37927071  0.51260103  0.25745547  1
  O  O278  1  0.37988286  0.49635996  0.76274391  1
  O  O279  1  0.87814741  -0.02179328  0.25355735  1
  O  O280  1  0.87002921  0.00257271  0.75905619  1
  O  O281  1  0.86745511  0.49722148  0.24680269  1
  O  O282  1  0.86010072  0.49498214  0.74630708  1
  O  O283  1  0.11845806  0.36523362  0.37148754  1
  O  O284  1  0.12074313  0.37525918  0.85593764  1
  O  O285  1  0.13011736  0.88303160  0.35966671  1
  O  O286  1  0.12091834  0.87251807  0.86716764  1
  O  O287  1  0.62166062  0.36783841  0.36645283  1
  O  O288  1  0.62061007  0.36632570  0.87115715  1
  O  O289  1  0.62131435  0.86847425  0.37537940  1
  O  O290  1  0.61829859  0.86822889  0.87042676  1
  O  O291  1  0.38262376  0.13141236  0.12837951  1
  O  O292  1  0.37907123  0.12664250  0.63223186  1
  O  O293  1  0.38689840  0.62981607  0.12927074  1
  O  O294  1  0.36864201  0.63815192  0.62528123  1
  O  O295  1  0.85920214  0.13418711  0.14143611  1
  O  O296  1  0.87781823  0.12970936  0.62908580  1
  O  O297  1  0.86939396  0.64668712  0.14175182  1
  O  O298  1  0.87960224  0.63466439  0.63386379  1
  O  O299  1  0.26349257  0.24393594  0.11582288  1
  O  O300  1  0.26423604  0.24154635  0.62100793  1
  O  O301  1  0.25523134  0.75036394  0.10330721  1
  O  O302  1  0.25687676  0.76060531  0.61743796  1
  O  O303  1  0.75981784  0.26224616  0.13595514  1
  O  O304  1  0.75366444  0.25741700  0.61785594  1
  O  O305  1  0.74228400  0.75494402  0.11842242  1
  O  O306  1  0.75786968  0.75659960  0.62579210  1
  O  O307  1  0.24048240  0.24513820  0.37859440  1
  O  O308  1  0.24852436  0.23926624  0.88142019  1
  O  O309  1  0.25758424  0.75736588  0.38748208  1
  O  O310  1  0.24487642  0.74857293  0.87975637  1
  O  O311  1  0.73815627  0.24538984  0.38129615  1
  O  O312  1  0.73515543  0.24108393  0.86766633  1
  O  O313  1  0.74885344  0.75205197  0.39625162  1
  O  O314  1  0.73536213  0.75759635  0.89217937  1
  O  O315  1  0.01474893  0.13515145  -0.01392513  1
  O  O316  1  0.00281139  0.12012205  0.50529021  1
  O  O317  1  0.00422581  0.60391975  0.00528126  1
  O  O318  1  0.01019389  0.61924560  0.50026256  1
  O  O319  1  0.50977350  0.12339422  0.00817783  1
  O  O320  1  0.50529472  0.11928563  0.50799224  1
  O  O321  1  0.50552757  0.61736120  0.00597779  1
  O  O322  1  0.51253940  0.62057623  0.49887202  1
  O  O323  1  0.48965936  0.38412819  0.49863686  1
  O  O324  1  0.49369646  0.38038968  0.99683339  1
  O  O325  1  0.49174392  0.88226274  0.50231563  1
  O  O326  1  0.50556767  0.87305501  0.98628671  1
  O  O327  1  0.99450963  0.38274918  0.49283255  1
  O  O328  1  0.99737397  0.38968748  0.99498485  1
  O  O329  1  0.99200957  0.88490191  0.50756229  1
  O  O330  1  1.00261796  0.87722848  0.98552465  1
  O  O331  1  0.48873623  0.50065268  0.38774092  1
  O  O332  1  0.49289230  0.49297488  0.88508058  1
  O  O333  1  0.49327801  1.00255280  0.38311599  1
  O  O334  1  0.49293191  0.98963187  0.87690383  1
  O  O335  1  1.00686462  0.48674587  0.38306141  1
  O  O336  1  0.99587762  0.50679213  0.88094368  1
  O  O337  1  1.00413805  1.00566747  0.38872444  1
  O  O338  1  0.98962225  0.99457049  0.87473951  1
  O  O339  1  0.00473355  0.00408364  0.11039712  1
  O  O340  1  0.00663501  0.00661767  0.62097829  1
  O  O341  1  0.00554928  0.49415322  0.12255275  1
  O  O342  1  0.00856300  0.50192516  0.61368140  1
  O  O343  1  0.50410523  0.01252990  0.12461053  1
  O  O344  1  0.50341561  0.00576740  0.62328237  1
  O  O345  1  0.49270668  0.50562416  0.11146106  1
  O  O346  1  0.49232948  0.50066209  0.61093715  1
  O  O347  1  0.23326923  0.36553936  0.25120988  1
  O  O348  1  0.23898994  0.37002556  0.75052316  1
  O  O349  1  0.24375315  0.88553050  0.25025224  1
  O  O350  1  0.24163466  0.87135796  0.74045278  1
  O  O351  1  0.74317186  0.38347323  0.24515801  1
  O  O352  1  0.74414937  0.38036560  0.74223011  1
  O  O353  1  0.74475839  0.86292683  0.23516517  1
  O  O354  1  0.74291918  0.88123052  0.73934159  1
  O  O355  1  0.25415149  0.12168465  0.25676053  1
  O  O356  1  0.25861087  0.12842660  0.75824514  1
  O  O357  1  0.25650264  0.62206161  0.24024890  1
  O  O358  1  0.25711768  0.63443680  0.76376906  1
  O  O359  1  0.74599341  0.12221237  0.26691573  1
  O  O360  1  0.75400299  0.11836096  0.75420931  1
  O  O361  1  0.74477201  0.60227189  0.24722453  1
  O  O362  1  0.74476133  0.60263172  0.74715811  1
  O  O363  1  0.37044954  0.12228747  0.37162060  1
  O  O364  1  0.37005134  0.12099203  0.86743648  1
  O  O365  1  0.37579991  0.61809887  0.36394465  1
  O  O366  1  0.37109831  0.61286695  0.87131699  1
  O  O367  1  0.85835701  0.12776126  0.37260240  1
  O  O368  1  0.86824281  0.11939155  0.86721500  1
  O  O369  1  0.86566771  0.62899170  0.36742825  1
  O  O370  1  0.87063567  0.65588825  0.85722436  1
  O  O371  1  0.12515376  0.36186975  0.13787021  1
  O  O372  1  0.12349441  0.38849990  0.63281429  1
  O  O373  1  0.13752782  0.88169779  0.13496227  1
  O  O374  1  0.13192031  0.87800020  0.63090047  1
  O  O375  1  0.63758503  0.36590582  0.13402994  1
  O  O376  1  0.63234033  0.36727242  0.63424418  1
  O  O377  1  0.63070822  0.88467428  0.12653095  1
  O  O378  1  0.63139000  0.87899864  0.63136874  1
  O  O379  1  0.11627373  0.25534266  0.25616723  1
  O  O380  1  0.11859800  0.26538176  0.73976235  1
  O  O381  1  0.11846192  0.76435132  0.25225157  1
  O  O382  1  0.12081324  0.76176285  0.75243752  1
  O  O383  1  0.62361813  0.25854515  0.25852157  1
  O  O384  1  0.62205014  0.26053937  0.75769909  1
  O  O385  1  0.61158266  0.74602807  0.25218703  1
  O  O386  1  0.62152764  0.75115320  0.75858186  1
  O  O387  1  0.37517951  0.24695300  0.24196564  1
  O  O388  1  0.37785458  0.23979810  0.74331162  1
  O  O389  1  0.38480618  0.73887639  0.24930373  1
  O  O390  1  0.38502441  0.74915723  0.74163497  1
  O  O391  1  0.88194930  0.25525722  0.24384472  1
  O  O392  1  0.88084416  0.24570281  0.74002790  1
  O  O393  1  0.90019739  0.76723433  0.24056850  1
  O  O394  1  0.88864304  0.76236956  0.73810343  1
  O  O395  1  0.37953490  0.49602186  0.49541468  1
  O  O396  1  0.38016276  0.49173189  0.99074687  1
  O  O397  1  0.37848266  0.99644913  0.49554435  1
  O  O398  1  0.37847791  1.00849667  0.98459465  1
  O  O399  1  0.88716804  0.49662781  0.50482651  1
  O  O400  1  0.87926589  0.50645147  1.00303416  1
  O  O401  1  0.88554954  0.99050176  0.50708749  1
  O  O402  1  0.87228143  0.99960924  0.98560704  1
  O  O403  1  0.12691939  0.01933665  -0.00279227  1
  O  O404  1  0.11774808  0.00531873  0.50667974  1
  O  O405  1  0.12128387  0.49451159  0.00706381  1
  O  O406  1  0.12030063  0.50729994  0.50855348  1
  O  O407  1  0.61943317  0.00780892  0.01114960  1
  O  O408  1  0.61907620  0.00508270  0.50944024  1
  O  O409  1  0.61446443  0.50689437  -0.00518223  1
  O  O410  1  0.61655509  0.51085880  0.49904455  1
  O  O411  1  0.37887848  0.36717829  0.11166488  1
  O  O412  1  0.37798692  0.36394398  0.61766259  1
  O  O413  1  0.36809000  0.87286854  0.12675454  1
  O  O414  1  0.36764402  0.86965470  0.62192270  1
  O  O415  1  0.86209331  0.36321946  0.11885290  1
  O  O416  1  0.86559108  0.36946664  0.61474511  1
  O  O417  1  0.86820085  0.86165236  0.11956552  1
  O  O418  1  0.86693542  0.87099699  0.62140779  1
  O  O419  1  0.12756005  0.13722913  0.37871287  1
  O  O420  1  0.13454381  0.12808489  0.87839447  1
  O  O421  1  0.12578103  0.61568437  0.38880166  1
  O  O422  1  0.13512106  0.63789602  0.86616305  1
  O  O423  1  0.63125142  0.13191346  0.38172945  1
  O  O424  1  0.62569840  0.12981173  0.88226630  1
  O  O425  1  0.63384330  0.62848999  0.38920388  1
  O  O426  1  0.62027325  0.63283966  0.88683557  1
