# generated using pymatgen
data_V85Zn86O256
_symmetry_space_group_name_H-M   'P 1'
_cell_length_a   16.96315472
_cell_length_b   16.95318144
_cell_length_c   16.95115635
_cell_angle_alpha   90.02538332
_cell_angle_beta   90.01659016
_cell_angle_gamma   90.07872901
_symmetry_Int_Tables_number   1
_chemical_formula_structural   V85Zn86O256
_chemical_formula_sum   'V85 Zn86 O256'
_cell_volume   4874.79876156
_cell_formula_units_Z   1
loop_
 _symmetry_equiv_pos_site_id
 _symmetry_equiv_pos_as_xyz
  1  'x, y, z'
loop_
 _atom_site_type_symbol
 _atom_site_label
 _atom_site_symmetry_multiplicity
 _atom_site_fract_x
 _atom_site_fract_y
 _atom_site_fract_z
 _atom_site_occupancy
  V  V0  1  0.50205528  0.87509620  0.87363457  1
  V  V1  1  0.25024218  0.62432235  0.87597898  1
  V  V2  1  0.11913409  0.00246470  0.62717721  1
  V  V3  1  0.62731201  0.74939387  0.87422218  1
  V  V4  1  0.12469536  0.38180512  0.24492979  1
  V  V5  1  0.00057193  0.00345071  -0.00100149  1
  V  V6  1  0.37657795  0.00174014  0.87474663  1
  V  V7  1  0.50280468  0.38464932  0.87647469  1
  V  V8  1  0.62944344  0.37754116  0.73569549  1
  V  V9  1  0.62848339  0.74816498  0.37563139  1
  V  V10  1  0.62022149  0.00577112  0.61549492  1
  V  V11  1  0.37974241  0.25242225  0.12978590  1
  V  V12  1  0.75745282  0.74688223  0.00192949  1
  V  V13  1  0.62032446  0.37034512  0.24882180  1
  V  V14  1  0.12192691  0.87264132  0.74939246  1
  V  V15  1  0.37853861  0.63571266  0.25211675  1
  V  V16  1  -0.00292936  0.74711358  0.24154320  1
  V  V17  1  0.00348401  0.24698181  0.24527237  1
  V  V18  1  0.69385549  0.56448157  0.43269333  1
  V  V19  1  0.74700360  0.50317751  0.73798700  1
  V  V20  1  0.00127191  0.49889417  -0.01326359  1
  V  V21  1  0.75417440  0.87199217  0.12754601  1
  V  V22  1  0.87184577  0.88042830  0.49239490  1
  V  V23  1  0.74989061  0.25841840  0.01482896  1
  V  V24  1  0.25252341  0.12466543  0.37785391  1
  V  V25  1  0.12641647  0.62051350  0.00564008  1
  V  V26  1  0.37730140  0.12913218  0.74168293  1
  V  V27  1  0.49743106  0.36069832  0.36797433  1
  V  V28  1  0.87768890  0.87438412  0.00013631  1
  V  V29  1  0.88588806  0.49891723  0.38503943  1
  V  V30  1  0.25169890  0.75051238  0.00110863  1
  V  V31  1  0.62292469  0.49917040  0.12159232  1
  V  V32  1  0.75148035  0.87669039  0.62329887  1
  V  V33  1  0.25203663  0.12580066  0.87698239  1
  V  V34  1  -0.00379202  0.00041073  0.49657187  1
  V  V35  1  0.50041405  0.62999855  0.12765727  1
  V  V36  1  0.37964873  0.38346416  0.00021384  1
  V  V37  1  0.12320786  0.74563022  0.87108796  1
  V  V38  1  0.25212295  0.87498401  0.62520576  1
  V  V39  1  0.62570485  0.86737599  0.24716254  1
  V  V40  1  0.77370814  0.10724915  0.36538799  1
  V  V41  1  0.75742640  0.13022026  0.87750998  1
  V  V42  1  0.12801453  0.00524316  0.12394099  1
  V  V43  1  0.25287537  0.87464175  0.12664027  1
  V  V44  1  0.75212993  0.00497263  0.74821905  1
  V  V45  1  0.87551962  0.25041645  0.13484563  1
  V  V46  1  0.37733884  0.37819566  0.50543645  1
  V  V47  1  0.38501048  0.00170133  0.37954728  1
  V  V48  1  0.86856562  0.62636985  0.25018770  1
  V  V49  1  0.24704830  0.49907275  0.74869286  1
  V  V50  1  0.61894173  0.62147333  -0.00143173  1
  V  V51  1  0.12101920  0.75071518  0.37479707  1
  V  V52  1  0.62493919  0.25222413  0.87696832  1
  V  V53  1  0.50061689  0.86981951  0.36767122  1
  V  V54  1  0.12722895  0.25527545  0.37463059  1
  V  V55  1  0.49755006  0.25078139  0.74649285  1
  V  V56  1  0.24836172  0.62555964  0.38010946  1
  V  V57  1  0.62950531  0.12434053  0.00225683  1
  V  V58  1  0.37865978  0.50296877  0.37641640  1
  V  V59  1  0.25060811  0.25380381  0.00161988  1
  V  V60  1  0.62712882  -0.00069155  0.12945325  1
  V  V61  1  0.37650199  0.87624937  0.00013976  1
  V  V62  1  0.37747767  0.62313751  0.74878010  1
  V  V63  1  0.51224879  0.61781371  0.61709402  1
  V  V64  1  0.12089529  0.24888503  0.87811273  1
  V  V65  1  0.24744958  0.50400215  0.24382488  1
  V  V66  1  0.74649686  0.75072985  0.50023178  1
  V  V67  1  0.25269857  0.00116933  0.25349852  1
  V  V68  1  0.25009451  0.00062610  0.75091066  1
  V  V69  1  0.50283526  0.00214704  -0.00124400  1
  V  V70  1  -0.00604050  0.23927870  0.74293977  1
  V  V71  1  0.11211904  0.62408545  0.51294608  1
  V  V72  1  0.74920421  0.49724531  0.24378336  1
  V  V73  1  -0.00342815  0.61260613  0.12533668  1
  V  V74  1  0.25172361  0.37588271  0.62641862  1
  V  V75  1  0.37794679  0.74706373  0.62251978  1
  V  V76  1  0.38301956  0.87759657  0.50143440  1
  V  V77  1  0.25542009  0.25111922  0.50659844  1
  V  V78  1  0.62769769  0.87627546  0.75053089  1
  V  V79  1  0.81634873  0.27777197  0.57356591  1
  V  V80  1  0.88641629  0.74781716  0.62590790  1
  V  V81  1  -0.00052159  0.87022347  0.86983914  1
  V  V82  1  0.12232223  0.37033760  0.74682431  1
  V  V83  1  0.12311192  0.12569326  0.50578575  1
  V  V84  1  0.88685184  0.62856136  0.74939177  1
  Zn  Zn85  1  -0.00209346  0.37450220  0.38565389  1
  Zn  Zn86  1  -0.00800421  0.37130882  0.87519396  1
  Zn  Zn87  1  0.24882793  0.75027744  0.50044390  1
  Zn  Zn88  1  0.87824961  0.00148714  0.86823759  1
  Zn  Zn89  1  0.86900283  0.49649186  0.87383637  1
  Zn  Zn90  1  0.01139166  0.48838098  0.54220901  1
  Zn  Zn91  1  0.24751421  0.38312105  0.12143594  1
  Zn  Zn92  1  0.87374000  0.13228835  0.71769262  1
  Zn  Zn93  1  0.50672477  0.13556664  0.12715674  1
  Zn  Zn94  1  0.74853568  0.61979773  0.87461621  1
  Zn  Zn95  1  0.51904640  0.49826524  0.49941345  1
  Zn  Zn96  1  0.37964551  0.50441916  0.87994665  1
  Zn  Zn97  1  0.49965081  0.12325712  0.61191660  1
  Zn  Zn98  1  -0.03904666  0.08753350  0.17068580  1
  Zn  Zn99  1  0.63034369  0.16203227  0.46433125  1
  Zn  Zn100  1  -0.00387379  0.87654038  0.37067098  1
  Zn  Zn101  1  0.86819952  0.38046403  0.00425204  1
  Zn  Zn102  1  0.38400148  0.75683839  0.13067405  1
  Zn  Zn103  1  0.50427919  0.74759821  0.74684920  1
  Zn  Zn104  1  0.12122235  0.12910357  0.00511129  1
  Zn  Zn105  1  0.38063269  0.13672773  0.25650909  1
  Zn  Zn106  1  0.12505355  0.87337532  0.25095905  1
  Zn  Zn107  1  0.19214183  0.18903303  0.18876693  1
  Zn  Zn108  1  0.18904288  0.18935980  0.68815276  1
  Zn  Zn109  1  0.18674721  0.68760319  0.18757144  1
  Zn  Zn110  1  0.18964868  0.68902617  0.68892597  1
  Zn  Zn111  1  0.72800045  0.22544559  0.24025271  1
  Zn  Zn112  1  0.68965036  0.18757300  0.68756950  1
  Zn  Zn113  1  0.68920541  0.68707630  0.18699735  1
  Zn  Zn114  1  0.69199201  0.68879814  0.68543469  1
  Zn  Zn115  1  0.30943508  0.31796612  0.31400594  1
  Zn  Zn116  1  0.31496989  0.31276435  0.81611213  1
  Zn  Zn117  1  0.30913423  0.81362060  0.31544834  1
  Zn  Zn118  1  0.31311797  0.81102306  0.81143687  1
  Zn  Zn119  1  0.81672745  0.30184373  0.40315791  1
  Zn  Zn120  1  0.81149400  0.31567288  0.81438468  1
  Zn  Zn121  1  0.81064841  0.81201420  0.31248348  1
  Zn  Zn122  1  0.81294919  0.81045494  0.81213337  1
  Zn  Zn123  1  0.18285724  0.44149365  0.43939904  1
  Zn  Zn124  1  0.18701307  0.43832695  0.93321204  1
  Zn  Zn125  1  0.18957488  0.93517981  0.44031555  1
  Zn  Zn126  1  0.18651125  0.93675375  0.93764915  1
  Zn  Zn127  1  0.67125945  0.37108373  0.45968188  1
  Zn  Zn128  1  0.68762161  0.43934719  0.93351513  1
  Zn  Zn129  1  0.67071814  0.97506678  0.41339285  1
  Zn  Zn130  1  0.69343451  0.93922074  0.93735502  1
  Zn  Zn131  1  0.31333213  0.06634150  0.06264255  1
  Zn  Zn132  1  0.31147348  0.06001629  0.56308554  1
  Zn  Zn133  1  0.31607745  0.56578828  0.06474397  1
  Zn  Zn134  1  0.30981489  0.56073422  0.56305678  1
  Zn  Zn135  1  0.80257528  0.05814956  0.18171083  1
  Zn  Zn136  1  0.80711804  0.07556844  0.55254213  1
  Zn  Zn137  1  0.81273451  0.56292657  0.06471783  1
  Zn  Zn138  1  0.82090770  0.55959607  0.56830394  1
  Zn  Zn139  1  0.43707813  0.44531230  0.18502739  1
  Zn  Zn140  1  0.44040889  0.43956269  0.68673560  1
  Zn  Zn141  1  0.44185639  0.94769717  0.19156265  1
  Zn  Zn142  1  0.44066835  0.93862726  0.68929375  1
  Zn  Zn143  1  0.93518196  0.43225810  0.19041641  1
  Zn  Zn144  1  0.92305977  0.42087944  0.68645555  1
  Zn  Zn145  1  0.93720265  0.92104705  0.18371528  1
  Zn  Zn146  1  0.93598437  0.93720942  0.68462983  1
  Zn  Zn147  1  0.06765102  0.06119973  0.31827507  1
  Zn  Zn148  1  0.06142722  0.06402169  0.81443474  1
  Zn  Zn149  1  0.06339233  0.56646614  0.31357526  1
  Zn  Zn150  1  0.03629453  0.53173998  0.75712081  1
  Zn  Zn151  1  0.56399614  0.07599842  0.30107751  1
  Zn  Zn152  1  0.56632220  0.06496977  0.81073651  1
  Zn  Zn153  1  0.55728743  0.56111895  0.30708156  1
  Zn  Zn154  1  0.56517447  0.56188165  0.80730496  1
  Zn  Zn155  1  0.44078593  0.18849857  0.44170645  1
  Zn  Zn156  1  0.43905191  0.19202757  0.93715807  1
  Zn  Zn157  1  0.44233128  0.68860071  0.43982784  1
  Zn  Zn158  1  0.43985136  0.68948011  0.93838013  1
  Zn  Zn159  1  0.94452415  0.17997450  0.43426851  1
  Zn  Zn160  1  0.93396873  0.18918895  0.94500585  1
  Zn  Zn161  1  0.93494672  0.68545477  0.43482087  1
  Zn  Zn162  1  0.93841814  0.68334002  0.93148502  1
  Zn  Zn163  1  0.06049307  0.31653732  0.06604261  1
  Zn  Zn164  1  0.05879506  0.30909915  0.56491306  1
  Zn  Zn165  1  0.06464506  0.81144161  0.06287048  1
  Zn  Zn166  1  0.06210825  0.81395639  0.55957579  1
  Zn  Zn167  1  0.56221146  0.31629736  0.06290936  1
  Zn  Zn168  1  0.55727543  0.29972477  0.56295989  1
  Zn  Zn169  1  0.56454434  0.81016829  0.05970213  1
  Zn  Zn170  1  0.56391658  0.81501119  0.56088379  1
  O  O171  1  0.13585724  0.11044446  0.12333051  1
  O  O172  1  0.13539281  0.11448265  0.61761201  1
  O  O173  1  0.11870062  0.63003476  0.11180908  1
  O  O174  1  0.12951496  0.63288862  0.61127025  1
  O  O175  1  0.62368644  0.11068930  0.11452591  1
  O  O176  1  0.62650858  0.10913920  0.62782278  1
  O  O177  1  0.61941998  0.62113329  0.11787395  1
  O  O178  1  0.60956067  0.63080719  0.62829374  1
  O  O179  1  0.38076617  0.38500457  0.37891716  1
  O  O180  1  0.38411957  0.37733833  0.88295160  1
  O  O181  1  0.38095838  0.87685253  0.38226234  1
  O  O182  1  0.38105690  0.88153172  0.87811023  1
  O  O183  1  0.87816910  0.39609094  0.36778294  1
  O  O184  1  0.87546562  0.37739121  0.88549038  1
  O  O185  1  0.87714510  0.86775915  0.38955516  1
  O  O186  1  0.88433624  0.87510319  0.87724590  1
  O  O187  1  0.25538025  0.00309943  0.36985590  1
  O  O188  1  0.25454258  0.00488977  0.86947234  1
  O  O189  1  0.25919925  0.50873518  0.36942722  1
  O  O190  1  0.25616215  0.50730535  0.86698663  1
  O  O191  1  0.77017824  0.00353960  0.36956604  1
  O  O192  1  0.75209396  0.00860700  0.86491559  1
  O  O193  1  0.75755671  0.51319501  0.37046554  1
  O  O194  1  0.74991433  0.50199646  0.86254067  1
  O  O195  1  0.25344659  0.50433230  0.13990026  1
  O  O196  1  0.25307188  0.48638801  0.63341626  1
  O  O197  1  0.24993894  0.99446538  0.13249880  1
  O  O198  1  0.24217307  0.99328197  0.63191888  1
  O  O199  1  0.73872717  0.50265076  0.13278975  1
  O  O200  1  0.75218883  0.49856923  0.63826797  1
  O  O201  1  0.73871716  0.98291053  0.11746947  1
  O  O202  1  0.74336764  0.99749513  0.63146701  1
  O  O203  1  0.01059852  0.36611330  0.25536002  1
  O  O204  1  0.00886176  0.35932447  0.75629687  1
  O  O205  1  0.00592152  0.86185063  0.25178866  1
  O  O206  1  0.00728398  0.88067840  0.75921207  1
  O  O207  1  0.50339646  0.38732866  0.26087544  1
  O  O208  1  0.50470276  0.37042466  0.75690291  1
  O  O209  1  0.50415996  0.87295773  0.26069892  1
  O  O210  1  0.50782975  0.87125712  0.75711217  1
  O  O211  1  0.48577678  0.10363372  0.23344441  1
  O  O212  1  0.49251835  0.13319712  0.75349636  1
  O  O213  1  0.48933576  0.62675196  0.24305349  1
  O  O214  1  0.49239754  0.62520470  0.73953631  1
  O  O215  1  1.02105055  0.14171375  0.25210237  1
  O  O216  1  0.99404138  0.13339875  0.75399217  1
  O  O217  1  0.99527163  0.62713417  0.24036889  1
  O  O218  1  0.98516368  0.63374412  0.75869516  1
  O  O219  1  0.36804676  0.26116885  0.00552860  1
  O  O220  1  0.36162489  0.26218887  0.49211163  1
  O  O221  1  0.36932559  0.75876833  0.00182083  1
  O  O222  1  0.37329136  0.75619109  0.50765760  1
  O  O223  1  0.86409881  0.25325422  0.01011272  1
  O  O224  1  0.88201045  0.25387655  0.48943560  1
  O  O225  1  0.86380359  0.75548688  -0.01115439  1
  O  O226  1  0.86562115  0.75204176  0.50547597  1
  O  O227  1  0.13514367  0.24268060  0.49613422  1
  O  O228  1  0.13190984  0.25086620  0.99601343  1
  O  O229  1  0.12640183  0.74151004  0.49354959  1
  O  O230  1  0.13257824  0.74596186  0.99191649  1
  O  O231  1  0.61445892  0.27372595  0.47436060  1
  O  O232  1  0.62782550  0.24296516  1.00029068  1
  O  O233  1  0.63853645  0.75490354  0.49485948  1
  O  O234  1  0.63374503  0.74404443  0.99099193  1
  O  O235  1  0.48319383  0.25279886  0.12004436  1
  O  O236  1  0.49831201  0.24610624  0.64258475  1
  O  O237  1  0.50039467  0.73739681  0.12017587  1
  O  O238  1  0.49087711  0.74246887  0.62425893  1
  O  O239  1  0.99632860  0.24863892  0.13262991  1
  O  O240  1  1.00759558  0.24430311  0.64422037  1
  O  O241  1  1.00716512  0.74067470  0.13607145  1
  O  O242  1  0.98540937  0.75704471  0.62270528  1
  O  O243  1  0.01699586  0.25107115  0.36962467  1
  O  O244  1  0.01061951  0.24790339  0.87637075  1
  O  O245  1  0.00713847  0.74747465  0.36486441  1
  O  O246  1  0.01043008  0.76065923  0.88129986  1
  O  O247  1  0.48286760  0.26342967  0.36041015  1
  O  O248  1  0.50630088  0.25877873  0.86714629  1
  O  O249  1  0.51687785  0.75598958  0.38204080  1
  O  O250  1  0.51220804  0.75562980  0.87334624  1
  O  O251  1  0.24606942  0.13344279  0.49890204  1
  O  O252  1  0.24941376  0.13470387  0.99296860  1
  O  O253  1  0.24635329  0.62701994  0.48975431  1
  O  O254  1  0.24482748  0.62973962  0.99813507  1
  O  O255  1  0.74399132  0.12353852  0.47181024  1
  O  O256  1  0.73636209  0.13792040  0.99355538  1
  O  O257  1  0.74725060  0.62479366  0.49838263  1
  O  O258  1  0.74091360  0.63294526  0.99949067  1
  O  O259  1  0.25633740  0.36997294  -0.00005147  1
  O  O260  1  0.25267940  0.37125000  0.50788496  1
  O  O261  1  0.25726383  0.87270911  0.00708978  1
  O  O262  1  0.26204874  0.87187522  0.50784317  1
  O  O263  1  0.74161411  0.36043554  0.00082780  1
  O  O264  1  0.77343685  0.35171673  0.49989634  1
  O  O265  1  0.75947080  0.86811222  0.00249925  1
  O  O266  1  0.75841178  0.86571399  0.50743082  1
  O  O267  1  0.13517896  0.49477620  0.25893944  1
  O  O268  1  0.14021077  0.48543796  0.75833454  1
  O  O269  1  0.13676624  0.99713923  0.24492287  1
  O  O270  1  0.12991436  0.99655957  0.74428106  1
  O  O271  1  0.62986536  0.50270428  0.23950372  1
  O  O272  1  0.63395796  0.48820290  0.75094017  1
  O  O273  1  0.61835626  0.98238824  0.23357056  1
  O  O274  1  0.63674128  0.99508299  0.74631024  1
  O  O275  1  0.36207115  -0.00491297  0.26100939  1
  O  O276  1  0.37030809  0.00597250  0.75666494  1
  O  O277  1  0.36769089  0.51252509  0.25770665  1
  O  O278  1  0.36686290  0.51013675  0.74961463  1
  O  O279  1  0.89440315  0.01187967  0.22647104  1
  O  O280  1  0.86520777  0.01010466  0.74484434  1
  O  O281  1  0.86433859  0.50407798  0.25272271  1
  O  O282  1  0.86189326  0.51012437  0.75049240  1
  O  O283  1  0.13097912  0.36781155  0.36587204  1
  O  O284  1  0.12921246  0.36161867  0.86448216  1
  O  O285  1  0.12560901  0.86067550  0.37687209  1
  O  O286  1  0.11990836  0.86759862  0.87007951  1
  O  O287  1  0.60505434  0.38313391  0.35978070  1
  O  O288  1  0.61679680  0.37023943  0.86937374  1
  O  O289  1  0.61842302  0.87264194  0.36590219  1
  O  O290  1  0.62324686  0.86908460  0.87025773  1
  O  O291  1  0.37386514  0.14463375  0.12104724  1
  O  O292  1  0.37842943  0.11669011  0.63818617  1
  O  O293  1  0.38276891  0.62931062  0.13405866  1
  O  O294  1  0.37870215  0.63119090  0.63003138  1
  O  O295  1  0.87546430  0.14432244  0.11916551  1
  O  O296  1  0.84234097  0.16594044  0.61335431  1
  O  O297  1  0.88450451  0.62347977  0.13621654  1
  O  O298  1  0.87169416  0.63377742  0.63903436  1
  O  O299  1  0.25622152  0.25422530  0.11296750  1
  O  O300  1  0.25074818  0.26135567  0.61834106  1
  O  O301  1  0.25181506  0.75965354  0.12023919  1
  O  O302  1  0.26385338  0.75597234  0.62582539  1
  O  O303  1  0.76423798  0.25139766  0.12837061  1
  O  O304  1  0.72146855  0.26085208  0.61018308  1
  O  O305  1  0.74270111  0.75935167  0.11176393  1
  O  O306  1  0.75550412  0.75612877  0.61691073  1
  O  O307  1  0.24316904  0.24674858  0.38245776  1
  O  O308  1  0.24523432  0.24674258  0.88575584  1
  O  O309  1  0.24174271  0.74171862  0.37678380  1
  O  O310  1  0.24564261  0.74517951  0.88155829  1
  O  O311  1  0.75192962  0.22807044  0.35116560  1
  O  O312  1  0.74317542  0.24494274  0.88304853  1
  O  O313  1  0.73772215  0.75286637  0.38297130  1
  O  O314  1  0.73902606  0.74921400  0.88129752  1
  O  O315  1  0.00187992  0.10794335  -0.00628618  1
  O  O316  1  0.01603524  0.11726819  0.50014416  1
  O  O317  1  0.00655102  0.61792835  0.00384042  1
  O  O318  1  0.01068178  0.62547844  0.50241581  1
  O  O319  1  0.51078162  0.12044577  -0.00029629  1
  O  O320  1  0.51806804  0.14208913  0.50245461  1
  O  O321  1  0.51272550  0.62855280  0.00483282  1
  O  O322  1  0.49940920  0.61999883  0.51250340  1
  O  O323  1  0.49003305  0.38017276  0.48618967  1
  O  O324  1  0.49171468  0.37142637  0.98911211  1
  O  O325  1  0.48903713  0.87072308  0.48997190  1
  O  O326  1  0.49569709  0.87993091  0.99211244  1
  O  O327  1  1.01888542  0.38508149  0.49706019  1
  O  O328  1  1.00802468  0.39193640  0.99720019  1
  O  O329  1  0.99095531  0.88253774  0.49839587  1
  O  O330  1  0.99619700  0.87801916  0.99388692  1
  O  O331  1  0.48669314  0.50270107  0.37957866  1
  O  O332  1  0.49833582  0.48907584  0.86851820  1
  O  O333  1  0.48647073  0.98827228  0.37178495  1
  O  O334  1  0.49807953  0.99561598  0.88034398  1
  O  O335  1  0.98858000  0.50004342  0.36908605  1
  O  O336  1  0.99681818  0.49816553  0.87550049  1
  O  O337  1  1.01090083  0.99461672  0.39189421  1
  O  O338  1  1.00238865  0.98762530  0.88123490  1
  O  O339  1  0.01418328  -0.00531280  0.11501897  1
  O  O340  1  0.01407055  -0.00505310  0.61742081  1
  O  O341  1  -0.00144214  0.50987979  0.11779122  1
  O  O342  1  -0.00252445  0.49610888  0.65336502  1
  O  O343  1  0.51003700  -0.00808385  0.10965071  1
  O  O344  1  0.51572299  0.00250490  0.63292606  1
  O  O345  1  0.50822712  0.51703597  0.12687521  1
  O  O346  1  0.49889158  0.51295745  0.61928925  1
  O  O347  1  0.24502556  0.38846260  0.24923714  1
  O  O348  1  0.24921178  0.37865103  0.74511629  1
  O  O349  1  0.24757415  0.88126631  0.24293704  1
  O  O350  1  0.24444059  0.88061320  0.74532453  1
  O  O351  1  0.72625312  0.39114639  0.25635148  1
  O  O352  1  0.73613294  0.38191466  0.75126678  1
  O  O353  1  0.74210435  0.86770440  0.23783376  1
  O  O354  1  0.74816062  0.88478162  0.74520240  1
  O  O355  1  0.25544941  0.11722946  0.25835484  1
  O  O356  1  0.25875408  0.12196031  0.75628016  1
  O  O357  1  0.25321129  0.62161533  0.26121706  1
  O  O358  1  0.25632534  0.61673579  0.75312610  1
  O  O359  1  0.74149931  0.11337569  0.25736330  1
  O  O360  1  0.75124161  0.12138106  0.75976516  1
  O  O361  1  0.75870976  0.61545925  0.24418651  1
  O  O362  1  0.74660580  0.61217180  0.75075549  1
  O  O363  1  0.37058854  0.11705049  0.37723191  1
  O  O364  1  0.37094176  0.11914198  0.87056514  1
  O  O365  1  0.36924709  0.62319469  0.37169545  1
  O  O366  1  0.37140727  0.62631849  0.86654570  1
  O  O367  1  0.87405791  0.11980766  0.36916590  1
  O  O368  1  0.86086814  0.12172501  0.88379689  1
  O  O369  1  0.88059082  0.61299514  0.36013812  1
  O  O370  1  0.86781573  0.62604918  0.86058791  1
  O  O371  1  0.12956522  0.37398666  0.14034314  1
  O  O372  1  0.13591359  0.36594088  0.64099129  1
  O  O373  1  0.13885999  0.88458901  0.12386891  1
  O  O374  1  0.13127883  0.87987847  0.62983281  1
  O  O375  1  0.61028220  0.39116233  0.13589394  1
  O  O376  1  0.60997232  0.37764220  0.63927329  1
  O  O377  1  0.63077113  0.87483684  0.12925192  1
  O  O378  1  0.63080541  0.87915085  0.63505589  1
  O  O379  1  0.12836390  0.25972265  0.25758641  1
  O  O380  1  0.11903685  0.25036591  0.75981942  1
  O  O381  1  0.11774963  0.74823354  0.25816729  1
  O  O382  1  0.13203171  0.75495469  0.76376272  1
  O  O383  1  0.61981475  0.27254633  0.23579944  1
  O  O384  1  0.61903467  0.26136340  0.75620177  1
  O  O385  1  0.62871874  0.75848720  0.25843393  1
  O  O386  1  0.62707621  0.75661829  0.75787141  1
  O  O387  1  0.36319761  0.25375418  0.23308342  1
  O  O388  1  0.38299832  0.23913877  0.75904696  1
  O  O389  1  0.36854097  0.73927420  0.25056058  1
  O  O390  1  0.37669039  0.73846407  0.74295167  1
  O  O391  1  0.89065616  0.25371880  0.23929651  1
  O  O392  1  0.89140265  0.24554408  0.76366676  1
  O  O393  1  0.88410119  0.73960287  0.25618971  1
  O  O394  1  0.86480062  0.73643997  0.74122892  1
  O  O395  1  0.36987940  0.49200475  0.49086048  1
  O  O396  1  0.37089869  0.48805107  1.00042818  1
  O  O397  1  0.36997222  0.99032511  0.49185920  1
  O  O398  1  0.38202655  0.99656633  0.99485818  1
  O  O399  1  0.88389316  0.50961445  0.48745167  1
  O  O400  1  0.88491664  0.50282579  0.99697368  1
  O  O401  1  0.88582463  0.99266812  0.51382485  1
  O  O402  1  0.88678321  0.98184287  0.99332518  1
  O  O403  1  0.11972337  0.00027823  0.00688442  1
  O  O404  1  0.12378169  0.00589747  0.50885113  1
  O  O405  1  0.11904946  0.51206796  -0.00823665  1
  O  O406  1  0.12453736  0.51995829  0.49873619  1
  O  O407  1  0.62192800  0.00582332  0.00206335  1
  O  O408  1  0.62605372  -0.01570446  0.51917132  1
  O  O409  1  0.63098266  0.50994896  0.00852572  1
  O  O410  1  0.63961474  0.49245269  0.48209764  1
  O  O411  1  0.37318841  0.36966484  0.11836324  1
  O  O412  1  0.37146875  0.37920872  0.61281279  1
  O  O413  1  0.36690347  0.87734359  0.12233086  1
  O  O414  1  0.37575138  0.86887075  0.61990876  1
  O  O415  1  0.88378578  0.35975418  0.11851879  1
  O  O416  1  0.86282836  0.34210174  0.63550397  1
  O  O417  1  0.86656750  0.86685795  0.11185561  1
  O  O418  1  0.86832416  0.86775822  0.61882683  1
  O  O419  1  0.13560983  0.13172508  0.38616665  1
  O  O420  1  0.13349598  0.13436473  0.87768797  1
  O  O421  1  0.13126588  0.63479219  0.38198013  1
  O  O422  1  0.13408030  0.63566620  0.88652796  1
  O  O423  1  0.63442535  0.08297826  0.38050923  1
  O  O424  1  0.63329674  0.13143278  0.88112104  1
  O  O425  1  0.62871433  0.62602014  0.37782488  1
  O  O426  1  0.62353898  0.63251118  0.88088449  1
