# generated using pymatgen
data_V85Zn86O256
_symmetry_space_group_name_H-M   'P 1'
_cell_length_a   16.97053544
_cell_length_b   16.98696930
_cell_length_c   16.98185917
_cell_angle_alpha   89.99576460
_cell_angle_beta   90.05449030
_cell_angle_gamma   89.94712452
_symmetry_Int_Tables_number   1
_chemical_formula_structural   V85Zn86O256
_chemical_formula_sum   'V85 Zn86 O256'
_cell_volume   4895.49148287
_cell_formula_units_Z   1
loop_
 _symmetry_equiv_pos_site_id
 _symmetry_equiv_pos_as_xyz
  1  'x, y, z'
loop_
 _atom_site_type_symbol
 _atom_site_label
 _atom_site_symmetry_multiplicity
 _atom_site_fract_x
 _atom_site_fract_y
 _atom_site_fract_z
 _atom_site_occupancy
  V  V0  1  0.37787258  0.75957222  0.13051665  1
  V  V1  1  0.12129154  0.13288172  -0.00452670  1
  V  V2  1  0.62780126  0.61794288  0.00008786  1
  V  V3  1  0.00866117  0.61367120  0.11598103  1
  V  V4  1  0.37770002  0.62323982  0.25141256  1
  V  V5  1  0.49977333  0.50035234  0.49871212  1
  V  V6  1  0.00139810  0.00050484  0.00023070  1
  V  V7  1  0.75531106  0.87487141  0.12445220  1
  V  V8  1  0.92929020  0.30554997  0.07091009  1
  V  V9  1  0.74889395  0.00179753  0.75197180  1
  V  V10  1  0.24576190  0.24783499  -0.00676566  1
  V  V11  1  0.50230593  0.75511860  0.25196358  1
  V  V12  1  -0.00042627  0.25328410  0.25251794  1
  V  V13  1  0.12453518  0.00116958  0.12467250  1
  V  V14  1  0.63066295  0.12727714  0.50295500  1
  V  V15  1  0.37106547  -0.00160020  0.37733626  1
  V  V16  1  0.00539117  0.86953712  0.37196963  1
  V  V17  1  0.74844990  0.62577821  0.37112953  1
  V  V18  1  0.88051063  -0.00138993  0.37697149  1
  V  V19  1  0.00686566  0.74415338  0.24958324  1
  V  V20  1  0.86919402  0.49996772  0.37339042  1
  V  V21  1  0.63106102  0.24358354  0.87324954  1
  V  V22  1  0.87847971  0.74362366  0.12447432  1
  V  V23  1  -0.00421553  0.12389048  0.12660786  1
  V  V24  1  0.75129502  0.74619007  -0.00599657  1
  V  V25  1  0.38231675  0.62558302  0.75683229  1
  V  V26  1  0.12716074  0.63076263  0.49627136  1
  V  V27  1  0.37495696  0.25179231  0.62609332  1
  V  V28  1  0.24848210  0.63362324  0.37365811  1
  V  V29  1  0.50586156  0.48999305  0.00221693  1
  V  V30  1  0.43833751  0.82730963  -0.05784902  1
  V  V31  1  0.12643291  0.87258706  0.25130309  1
  V  V32  1  0.61883470  0.50150112  0.63161579  1
  V  V33  1  0.87032696  0.87443337  0.49992929  1
  V  V34  1  0.37323168  0.49236476  0.87360325  1
  V  V35  1  0.37977531  0.37663341  0.49588602  1
  V  V36  1  0.12924723  0.49757890  0.62671115  1
  V  V37  1  0.13247102  0.74080623  0.88166056  1
  V  V38  1  0.00054488  0.37931681  0.37683594  1
  V  V39  1  0.87861707  0.87441263  -0.00121163  1
  V  V40  1  0.62847451  0.88093934  0.25185905  1
  V  V41  1  0.75143097  0.12711260  0.38113271  1
  V  V42  1  0.49750776  0.25388595  0.75948874  1
  V  V43  1  0.62123546  -0.00193366  0.11118910  1
  V  V44  1  0.36909400  0.87567892  0.51168573  1
  V  V45  1  0.87424236  0.62461470  0.75608442  1
  V  V46  1  0.50206502  0.12592367  0.62720336  1
  V  V47  1  0.73228334  0.28325494  0.48663375  1
  V  V48  1  0.24981566  0.00302923  0.25107449  1
  V  V49  1  0.49937412  0.12161945  0.11538102  1
  V  V50  1  0.02000386  -0.02471832  0.52365974  1
  V  V51  1  0.61904966  0.63168235  0.51095936  1
  V  V52  1  0.38183699  0.36772862  -0.00512669  1
  V  V53  1  0.11525985  0.13106701  0.50278316  1
  V  V54  1  0.87688579  0.38231958  0.51075427  1
  V  V55  1  0.87380778  0.75030796  0.62844139  1
  V  V56  1  0.38598293  0.00011049  0.88664558  1
  V  V57  1  0.88413171  0.48418439  0.88355353  1
  V  V58  1  0.50110023  0.88313797  0.37682379  1
  V  V59  1  0.75215573  0.49428410  0.74590390  1
  V  V60  1  0.62737778  0.75489937  0.37940432  1
  V  V61  1  0.75054077  0.25307986  -0.00027216  1
  V  V62  1  0.87542234  0.13424258  0.25057229  1
  V  V63  1  0.01202160  0.75089089  0.75211514  1
  V  V64  1  0.12572996  0.36790870  0.76022156  1
  V  V65  1  0.50022220  0.00310498  0.50089729  1
  V  V66  1  0.87041051  0.00824918  0.87579377  1
  V  V67  1  0.24311208  0.12724873  0.37355019  1
  V  V68  1  0.00811604  0.87796727  0.87028321  1
  V  V69  1  0.12825217  0.38327187  0.24552275  1
  V  V70  1  0.75109279  0.00188821  0.24853368  1
  V  V71  1  0.62529017  0.37328454  0.75192129  1
  V  V72  1  0.25018308  0.38413459  0.11955484  1
  V  V73  1  -0.00335142  0.25481319  0.75724158  1
  V  V74  1  0.24307629  0.11623550  0.86984715  1
  V  V75  1  0.73686807  0.37188645  0.13564491  1
  V  V76  1  0.00115504  0.50326366  0.50090319  1
  V  V77  1  0.24801919  0.25509542  0.49615784  1
  V  V78  1  0.38184583  0.73588981  0.62562536  1
  V  V79  1  0.00281781  0.62470257  0.62712892  1
  V  V80  1  0.25353457  0.87684910  0.11442214  1
  V  V81  1  0.37308155  0.24427484  0.12800901  1
  V  V82  1  0.60768002  0.86953565  0.75455194  1
  V  V83  1  0.36926541  0.11477798  0.74823728  1
  V  V84  1  0.86550194  0.25319243  0.62291572  1
  Zn  Zn85  1  0.62797891  -0.00276241  0.62885715  1
  Zn  Zn86  1  0.15049313  -0.01570638  0.65264508  1
  Zn  Zn87  1  0.14490852  0.60550529  -0.00083151  1
  Zn  Zn88  1  0.63099364  0.11901687  -0.01012659  1
  Zn  Zn89  1  0.12598377  0.25737631  0.37408078  1
  Zn  Zn90  1  -0.00295467  0.12972390  0.62475464  1
  Zn  Zn91  1  0.37570738  0.50324471  0.37813498  1
  Zn  Zn92  1  0.61046381  0.74939559  0.87142879  1
  Zn  Zn93  1  0.24803101  0.75485931  0.50415919  1
  Zn  Zn94  1  0.64031216  0.50576607  0.14804108  1
  Zn  Zn95  1  0.74767479  0.87392072  0.63110985  1
  Zn  Zn96  1  0.50568327  0.62256272  0.12874847  1
  Zn  Zn97  1  0.52185982  0.27097721  0.25703990  1
  Zn  Zn98  1  0.24893639  0.37418363  0.62526611  1
  Zn  Zn99  1  0.86905115  0.12916921  0.74928050  1
  Zn  Zn100  1  0.24929132  0.50334048  0.75474144  1
  Zn  Zn101  1  0.25741816  0.74748597  -0.00329087  1
  Zn  Zn102  1  0.24660177  0.50471985  0.24765431  1
  Zn  Zn103  1  0.39825370  0.13611263  0.27045153  1
  Zn  Zn104  1  0.74927270  0.74985663  0.50316440  1
  Zn  Zn105  1  0.87136658  0.62131702  0.24760685  1
  Zn  Zn106  1  0.74776561  0.61999748  0.87411415  1
  Zn  Zn107  1  0.18519017  0.19364134  0.18438265  1
  Zn  Zn108  1  0.18488667  0.18577164  0.68293748  1
  Zn  Zn109  1  0.18973971  0.68738519  0.18253868  1
  Zn  Zn110  1  0.19919238  0.68817556  0.68727231  1
  Zn  Zn111  1  0.68885763  0.18497345  0.17824151  1
  Zn  Zn112  1  0.69147776  0.18812254  0.68402261  1
  Zn  Zn113  1  0.68800028  0.68930998  0.18699220  1
  Zn  Zn114  1  0.68666125  0.68930919  0.69185253  1
  Zn  Zn115  1  0.34474232  0.33531519  0.28932086  1
  Zn  Zn116  1  0.30889410  0.30888868  0.81365902  1
  Zn  Zn117  1  0.31179148  0.81522706  0.31550190  1
  Zn  Zn118  1  0.31263499  0.80396961  0.80334706  1
  Zn  Zn119  1  0.69375131  0.30790670  0.31291312  1
  Zn  Zn120  1  0.80917754  0.31398112  0.81278549  1
  Zn  Zn121  1  0.81550818  0.80923470  0.31211538  1
  Zn  Zn122  1  0.81526054  0.81709334  0.81280841  1
  Zn  Zn123  1  0.19158193  0.44361497  0.43341007  1
  Zn  Zn124  1  0.19047187  0.43370120  0.93402751  1
  Zn  Zn125  1  0.18363958  0.93708426  0.44527107  1
  Zn  Zn126  1  0.18525917  0.93614197  0.82036917  1
  Zn  Zn127  1  0.68917618  0.44873332  0.44559713  1
  Zn  Zn128  1  0.69441577  0.43190995  0.93372362  1
  Zn  Zn129  1  0.68891523  0.94399379  0.43937174  1
  Zn  Zn130  1  0.68916276  0.92905346  0.93061764  1
  Zn  Zn131  1  0.30948570  0.06218264  0.05861845  1
  Zn  Zn132  1  0.31134832  0.07056665  0.55683923  1
  Zn  Zn133  1  0.32044908  0.56391753  0.06159039  1
  Zn  Zn134  1  0.31114679  0.56554874  0.56601064  1
  Zn  Zn135  1  0.81158089  0.06638394  0.06043308  1
  Zn  Zn136  1  0.81748637  0.05873397  0.56700175  1
  Zn  Zn137  1  0.81376598  0.55477623  0.06275605  1
  Zn  Zn138  1  0.80686749  0.56590149  0.56530612  1
  Zn  Zn139  1  0.48816937  0.45032245  0.21367467  1
  Zn  Zn140  1  0.43935212  0.43743085  0.68565036  1
  Zn  Zn141  1  0.44024563  0.94839238  0.18864722  1
  Zn  Zn142  1  0.31925870  0.93615597  0.68613119  1
  Zn  Zn143  1  0.93053513  0.43937059  0.19498964  1
  Zn  Zn144  1  0.94200508  0.43899030  0.69333318  1
  Zn  Zn145  1  0.93646421  0.93733901  0.18907796  1
  Zn  Zn146  1  0.93633394  0.93671591  0.69254766  1
  Zn  Zn147  1  0.06355467  0.06071291  0.31734126  1
  Zn  Zn148  1  0.05544458  0.07079602  0.80998572  1
  Zn  Zn149  1  0.06194957  0.56438614  0.31296517  1
  Zn  Zn150  1  0.06358868  0.55905130  0.81506963  1
  Zn  Zn151  1  0.55897490  0.10399717  0.31384691  1
  Zn  Zn152  1  0.56226943  0.06077521  0.80945225  1
  Zn  Zn153  1  0.56380614  0.56839490  0.32037992  1
  Zn  Zn154  1  0.55934859  0.56004895  0.81958201  1
  Zn  Zn155  1  0.43638606  0.19060785  0.43820011  1
  Zn  Zn156  1  0.43889668  0.18120026  0.93763834  1
  Zn  Zn157  1  0.43920401  0.69079953  0.43918540  1
  Zn  Zn158  1  0.43516107  0.66390530  0.94154551  1
  Zn  Zn159  1  0.93065237  0.19568043  0.43791518  1
  Zn  Zn160  1  0.93840307  0.18783699  0.93303674  1
  Zn  Zn161  1  0.93694542  0.68801494  0.43783317  1
  Zn  Zn162  1  0.94123687  0.68422778  0.93670058  1
  Zn  Zn163  1  0.06527689  0.43932476  0.06421803  1
  Zn  Zn164  1  0.05887515  0.31351377  0.56874007  1
  Zn  Zn165  1  0.06555173  0.81196619  0.06171859  1
  Zn  Zn166  1  0.06151592  0.80762200  0.56428943  1
  Zn  Zn167  1  0.56275519  0.30547154  0.06405830  1
  Zn  Zn168  1  0.56209959  0.31721112  0.56871257  1
  Zn  Zn169  1  0.57226850  0.80909557  0.06662090  1
  Zn  Zn170  1  0.55965607  0.81760721  0.56993000  1
  O  O171  1  0.11162948  0.12270094  0.12247809  1
  O  O172  1  0.11959709  0.12107721  0.61268192  1
  O  O173  1  0.11163586  0.62605221  0.12353260  1
  O  O174  1  0.12163660  0.61770655  0.62156914  1
  O  O175  1  0.62033218  0.11232410  0.11901174  1
  O  O176  1  0.61753300  0.12000924  0.62218649  1
  O  O177  1  0.62709024  0.62095247  0.11770969  1
  O  O178  1  0.62869974  0.61988037  0.61984475  1
  O  O179  1  0.36578152  0.38170894  0.39333238  1
  O  O180  1  0.37357080  0.37377539  0.88676348  1
  O  O181  1  0.38370604  0.88207996  0.38077588  1
  O  O182  1  0.37726875  0.88261863  0.87639264  1
  O  O183  1  0.88382717  0.38991955  0.39310744  1
  O  O184  1  0.87322783  0.38495630  0.87394885  1
  O  O185  1  0.88136785  0.87846835  0.38038312  1
  O  O186  1  0.88716706  0.87988918  0.88283067  1
  O  O187  1  0.24830694  0.00618411  0.36884870  1
  O  O188  1  0.25895635  0.01296076  0.87260195  1
  O  O189  1  0.25644557  0.51503286  0.36878114  1
  O  O190  1  0.26821235  0.49112465  0.87298002  1
  O  O191  1  0.75923323  0.00729343  0.36866705  1
  O  O192  1  0.76205711  -0.00566591  0.86894778  1
  O  O193  1  0.75777981  0.51239061  0.38213399  1
  O  O194  1  0.75956450  0.50093332  0.86216514  1
  O  O195  1  0.26261781  0.48633631  0.12764268  1
  O  O196  1  0.23739525  0.49782139  0.62534783  1
  O  O197  1  0.24594721  0.99608791  0.13268731  1
  O  O198  1  0.25481563  1.00198192  0.62092962  1
  O  O199  1  0.75096612  0.47945466  0.12183374  1
  O  O200  1  0.73799026  0.50774633  0.63896036  1
  O  O201  1  0.75134157  0.99393146  0.13259230  1
  O  O202  1  0.75101103  0.99424972  0.63513839  1
  O  O203  1  0.00543948  0.36980256  0.25407555  1
  O  O204  1  0.01215567  0.36448302  0.74441989  1
  O  O205  1  0.00467257  0.86728562  0.25478889  1
  O  O206  1  -0.00729739  0.86182894  0.75925720  1
  O  O207  1  0.45188580  0.35541266  0.25313701  1
  O  O208  1  0.50780075  0.36233581  0.74406024  1
  O  O209  1  0.50802946  0.87636581  0.25755101  1
  O  O210  1  0.51306100  0.87858277  0.75001389  1
  O  O211  1  0.49452706  0.09193685  0.22092018  1
  O  O212  1  0.49236787  0.13060250  0.74153793  1
  O  O213  1  0.49555390  0.64147786  0.25277435  1
  O  O214  1  0.48291724  0.61239551  0.75126674  1
  O  O215  1  0.99782745  0.13052521  0.24582464  1
  O  O216  1  0.99376372  0.14263591  0.74507196  1
  O  O217  1  0.99806249  0.63176304  0.24137476  1
  O  O218  1  0.99428589  0.63178923  0.74472337  1
  O  O219  1  0.36937531  0.25089352  0.00317263  1
  O  O220  1  0.36998567  0.25658849  0.50415430  1
  O  O221  1  0.38426256  0.75877992  0.00614978  1
  O  O222  1  0.37488873  0.75764229  0.50734881  1
  O  O223  1  0.87163858  0.25062428  0.00304537  1
  O  O224  1  0.86331982  0.26631198  0.50338793  1
  O  O225  1  0.87294973  0.75102882  0.00967995  1
  O  O226  1  0.87469845  0.75574784  0.51048173  1
  O  O227  1  0.13123634  0.24756471  0.49974163  1
  O  O228  1  0.13276226  0.23480922  1.00428871  1
  O  O229  1  0.12709336  0.73479799  0.50721236  1
  O  O230  1  0.12471370  0.74807237  0.98632092  1
  O  O231  1  0.63440012  0.23611999  0.51722510  1
  O  O232  1  0.63327025  0.24871305  0.98935555  1
  O  O233  1  0.62497681  0.74766236  0.49889505  1
  O  O234  1  0.63641668  0.74043966  0.99922670  1
  O  O235  1  0.49168759  0.23663978  0.13019725  1
  O  O236  1  0.49534957  0.24034624  0.63123323  1
  O  O237  1  0.49838844  0.75575774  0.13977266  1
  O  O238  1  0.48092294  0.75396975  0.61963706  1
  O  O239  1  0.98909061  0.24293854  0.13610837  1
  O  O240  1  0.98409462  0.25104136  0.62961998  1
  O  O241  1  0.99474962  0.74242378  0.13012038  1
  O  O242  1  0.99315226  0.74572675  0.63395914  1
  O  O243  1  -0.00079026  0.25940154  0.36535281  1
  O  O244  1  -0.00653516  0.25152281  0.85645648  1
  O  O245  1  -0.00865500  0.75666057  0.36099984  1
  O  O246  1  0.00679662  0.75524098  0.86886931  1
  O  O247  1  0.48377224  0.19457487  0.33859656  1
  O  O248  1  0.50536905  0.24434160  0.86282800  1
  O  O249  1  0.50660457  0.76047297  0.36743021  1
  O  O250  1  0.48901762  0.75624254  0.88868858  1
  O  O251  1  0.23741042  0.13369277  0.49119445  1
  O  O252  1  0.24008306  0.12765154  0.99167355  1
  O  O253  1  0.24305323  0.62579287  0.49204139  1
  O  O254  1  0.25335730  0.63596221  1.01135555  1
  O  O255  1  0.74421085  0.11676753  0.49465495  1
  O  O256  1  0.74928561  0.14463056  1.00848088  1
  O  O257  1  0.73759668  0.62871276  0.49323801  1
  O  O258  1  0.74353026  0.62876250  0.99989769  1
  O  O259  1  0.25500569  0.36378575  0.00277077  1
  O  O260  1  0.25325037  0.36821695  0.50211550  1
  O  O261  1  0.24949583  0.86844707  0.01632880  1
  O  O262  1  0.26373084  0.87229027  0.48962393  1
  O  O263  1  0.74781708  0.36066706  0.00849916  1
  O  O264  1  0.76450121  0.38363192  0.51383550  1
  O  O265  1  0.75880155  0.86459923  0.00529993  1
  O  O266  1  0.76141582  0.87517361  0.50109749  1
  O  O267  1  0.12476468  0.48738415  0.25311855  1
  O  O268  1  0.12660138  0.48772511  0.74518315  1
  O  O269  1  0.12910994  0.99317723  0.24510864  1
  O  O270  1  0.11066522  0.99209222  0.75493013  1
  O  O271  1  0.59071295  0.49010404  0.24784006  1
  O  O272  1  0.62881881  0.49428146  0.74923497  1
  O  O273  1  0.64215089  0.99816140  0.24292976  1
  O  O274  1  0.63230905  0.99010958  0.75204680  1
  O  O275  1  0.36320112  0.00280357  0.25952757  1
  O  O276  1  0.37581307  0.01320039  0.75697476  1
  O  O277  1  0.38476213  0.51967407  0.25092083  1
  O  O278  1  0.37522463  0.49954831  0.75784039  1
  O  O279  1  0.86785095  0.00507542  0.25665068  1
  O  O280  1  0.86931441  0.00208146  0.75996132  1
  O  O281  1  0.87630819  0.50434093  0.26926704  1
  O  O282  1  0.86750048  0.50722527  0.74961972  1
  O  O283  1  0.11857415  0.37663080  0.36890831  1
  O  O284  1  0.12882144  0.36890848  0.85822552  1
  O  O285  1  0.11095685  0.87571041  0.37243828  1
  O  O286  1  0.11137322  0.86236111  0.87732237  1
  O  O287  1  0.66433077  0.34297622  0.41665797  1
  O  O288  1  0.62866123  0.36279550  0.86027398  1
  O  O289  1  0.62172500  0.87478632  0.37222313  1
  O  O290  1  0.62545880  0.86689639  0.86258110  1
  O  O291  1  0.38309366  0.13058595  0.11369525  1
  O  O292  1  0.38153710  0.13266420  0.63105619  1
  O  O293  1  0.38260429  0.64247293  0.13477523  1
  O  O294  1  0.38131898  0.63059595  0.63047747  1
  O  O295  1  0.88798645  0.11522906  0.13603944  1
  O  O296  1  0.87412490  0.13968477  0.62549581  1
  O  O297  1  0.88247897  0.62915660  0.12690203  1
  O  O298  1  0.88077256  0.63193347  0.63406894  1
  O  O299  1  0.25343960  0.25123154  0.10963236  1
  O  O300  1  0.25683446  0.24737662  0.61085712  1
  O  O301  1  0.26268373  0.76151679  0.13087662  1
  O  O302  1  0.27077257  0.74863218  0.62057126  1
  O  O303  1  0.74914029  0.26069087  0.11496677  1
  O  O304  1  0.75936268  0.25336146  0.61279272  1
  O  O305  1  0.75980016  0.75353694  0.11740332  1
  O  O306  1  0.76406878  0.75168371  0.62562309  1
  O  O307  1  0.24976837  0.24252512  0.38633891  1
  O  O308  1  0.25566155  0.23616225  0.88728380  1
  O  O309  1  0.25251779  0.73799388  0.37696213  1
  O  O310  1  0.23474386  0.75395583  0.87585425  1
  O  O311  1  0.76192245  0.23264244  0.38744659  1
  O  O312  1  0.74391014  0.25256326  0.88534970  1
  O  O313  1  0.74455917  0.74644495  0.37982721  1
  O  O314  1  0.75892796  0.74766715  0.88954256  1
  O  O315  1  0.00232593  0.12356826  0.00800402  1
  O  O316  1  0.00808944  0.13371957  0.49804231  1
  O  O317  1  0.00179948  0.62770254  0.01609791  1
  O  O318  1  0.00678138  0.62198098  0.50623215  1
  O  O319  1  0.50950906  0.12473158  0.00908826  1
  O  O320  1  0.50918467  0.12470727  0.50637890  1
  O  O321  1  0.51390860  0.61594312  0.00650110  1
  O  O322  1  0.51315847  0.62177828  0.49840937  1
  O  O323  1  0.49246480  0.38423201  0.50505947  1
  O  O324  1  0.49232776  0.37610069  1.00482213  1
  O  O325  1  0.49555861  0.88780187  0.49572225  1
  O  O326  1  0.50428182  0.87449273  0.99823617  1
  O  O327  1  0.99736479  0.38399287  0.49626755  1
  O  O328  1  0.99349079  0.35862089  1.01939413  1
  O  O329  1  0.98682232  0.86894214  0.48859806  1
  O  O330  1  0.99677939  0.88100102  0.99494807  1
  O  O331  1  0.49608509  0.50630373  0.39472362  1
  O  O332  1  0.48924183  0.50102355  0.89181880  1
  O  O333  1  0.49322504  1.00545830  0.38717669  1
  O  O334  1  0.48469080  1.00668332  0.87515436  1
  O  O335  1  0.99267401  0.50001685  0.38362515  1
  O  O336  1  0.98208561  0.49866008  0.86278870  1
  O  O337  1  0.99406723  0.98705753  0.37727388  1
  O  O338  1  0.99247406  0.99280753  0.88145714  1
  O  O339  1  0.00385914  0.00615921  0.12236730  1
  O  O340  1  -0.01520885  0.00917413  0.61546929  1
  O  O341  1  -0.00390075  0.51031150  0.12961395  1
  O  O342  1  0.01074483  0.50640647  0.62214846  1
  O  O343  1  0.51668274  -0.00605331  0.11459238  1
  O  O344  1  0.49813091  0.01646917  0.61012066  1
  O  O345  1  0.50021770  0.50239899  0.10918594  1
  O  O346  1  0.51254917  0.49957759  0.61824313  1
  O  O347  1  0.24579448  0.37723083  0.23930805  1
  O  O348  1  0.23680332  0.37008167  0.74482639  1
  O  O349  1  0.24361344  0.88632731  0.24899997  1
  O  O350  1  0.24934655  0.87640475  0.74998478  1
  O  O351  1  0.75282459  0.36662693  0.23453037  1
  O  O352  1  0.74137382  0.38408750  0.74853513  1
  O  O353  1  0.75008347  0.88224479  0.24576030  1
  O  O354  1  0.75082175  0.88691545  0.75011122  1
  O  O355  1  0.23823093  0.11310293  0.25684222  1
  O  O356  1  0.25789298  0.13680824  0.75822717  1
  O  O357  1  0.25876451  0.62589295  0.25366767  1
  O  O358  1  0.27126842  0.61673563  0.74169708  1
  O  O359  1  0.75952921  0.11822337  0.25608371  1
  O  O360  1  0.74993936  0.10903141  0.74562013  1
  O  O361  1  0.75028178  0.63238221  0.26578282  1
  O  O362  1  0.75934272  0.61940690  0.75274966  1
  O  O363  1  0.35394604  0.11509770  0.38137856  1
  O  O364  1  0.36861985  0.11561524  0.86891637  1
  O  O365  1  0.36968102  0.62907222  0.36747529  1
  O  O366  1  0.37355025  0.61200294  0.86440737  1
  O  O367  1  0.87314186  0.11671487  0.37025153  1
  O  O368  1  0.87898016  0.11148762  0.87265499  1
  O  O369  1  0.86508099  0.61953450  0.37827462  1
  O  O370  1  0.87580203  0.62391645  0.86246679  1
  O  O371  1  0.13748634  0.37562172  0.13249539  1
  O  O372  1  0.12613640  0.38444067  0.63012693  1
  O  O373  1  0.13261787  0.88100187  0.13078978  1
  O  O374  1  0.09873369  0.91182486  0.57609696  1
  O  O375  1  0.63372791  0.37400465  0.12651448  1
  O  O376  1  0.62387384  0.38669875  0.63846245  1
  O  O377  1  0.63696987  0.88116603  0.13179480  1
  O  O378  1  0.62781906  0.87809160  0.63790023  1
  O  O379  1  0.11577485  0.26233357  0.25019233  1
  O  O380  1  0.11167974  0.26006682  0.73957051  1
  O  O381  1  0.11388648  0.75596409  0.24337847  1
  O  O382  1  0.11623330  0.74194968  0.75663145  1
  O  O383  1  0.62764715  0.23567913  0.25750082  1
  O  O384  1  0.62063305  0.25498745  0.75200510  1
  O  O385  1  0.61998522  0.76035953  0.25550528  1
  O  O386  1  0.62685843  0.76260363  0.75354132  1
  O  O387  1  0.34900601  0.23331056  0.22905974  1
  O  O388  1  0.38231650  0.24408435  0.74608634  1
  O  O389  1  0.38422991  0.74903897  0.24697107  1
  O  O390  1  0.37906419  0.73410233  0.74185264  1
  O  O391  1  0.88435960  0.23470359  0.25534350  1
  O  O392  1  0.88012090  0.25452305  0.74156764  1
  O  O393  1  0.88321318  0.74861160  0.23678471  1
  O  O394  1  0.88230387  0.74317897  0.74515516  1
  O  O395  1  0.38358934  0.49453329  0.50700177  1
  O  O396  1  0.38305912  0.48742240  0.99527315  1
  O  O397  1  0.38102670  0.99454608  0.49521519  1
  O  O398  1  0.37282661  1.00024436  0.98539349  1
  O  O399  1  0.88153158  0.50065489  0.50023082  1
  O  O400  1  0.87447753  0.50447245  0.98176047  1
  O  O401  1  0.88644521  0.98858392  0.49596050  1
  O  O402  1  0.87996282  0.99591607  0.99432521  1
  O  O403  1  0.11415161  0.01420843  0.01188529  1
  O  O404  1  0.11105274  0.02054809  0.47892800  1
  O  O405  1  0.11995236  0.49740120  -0.01098751  1
  O  O406  1  0.12045330  0.50901080  0.50754136  1
  O  O407  1  0.64366844  -0.00038167  0.00885794  1
  O  O408  1  0.61747098  0.00924608  0.50419707  1
  O  O409  1  0.62231065  0.50475553  -0.00535495  1
  O  O410  1  0.61877917  0.50988699  0.51213336  1
  O  O411  1  0.36332296  0.35786219  0.10840986  1
  O  O412  1  0.37175793  0.36776184  0.61625698  1
  O  O413  1  0.37010035  0.86773521  0.13563908  1
  O  O414  1  0.38035279  0.86992983  0.61314549  1
  O  O415  1  0.87127538  0.36997125  0.12506653  1
  O  O416  1  0.88439640  0.37323926  0.61639799  1
  O  O417  1  0.87396116  0.86618413  0.11905818  1
  O  O418  1  0.87766320  0.86580301  0.61662178  1
  O  O419  1  0.13099672  0.13445759  0.37824391  1
  O  O420  1  0.13050547  0.12122855  0.88342033  1
  O  O421  1  0.13282243  0.62085360  0.38489027  1
  O  O422  1  0.11964778  0.63804211  0.87739172  1
  O  O423  1  0.64013010  0.11891337  0.39018866  1
  O  O424  1  0.62261850  0.13852598  0.87087426  1
  O  O425  1  0.63117581  0.63600623  0.38459238  1
  O  O426  1  0.62697536  0.63093291  0.88414844  1
