# generated using pymatgen
data_V85Zn86O256
_symmetry_space_group_name_H-M   'P 1'
_cell_length_a   16.92685469
_cell_length_b   16.91927770
_cell_length_c   16.92524534
_cell_angle_alpha   90.01621905
_cell_angle_beta   89.94915422
_cell_angle_gamma   89.99831230
_symmetry_Int_Tables_number   1
_chemical_formula_structural   V85Zn86O256
_chemical_formula_sum   'V85 Zn86 O256'
_cell_volume   4847.22153453
_cell_formula_units_Z   1
loop_
 _symmetry_equiv_pos_site_id
 _symmetry_equiv_pos_as_xyz
  1  'x, y, z'
loop_
 _atom_site_type_symbol
 _atom_site_label
 _atom_site_symmetry_multiplicity
 _atom_site_fract_x
 _atom_site_fract_y
 _atom_site_fract_z
 _atom_site_occupancy
  V  V0  1  0.00401655  0.36045906  0.87247103  1
  V  V1  1  0.74864623  0.25327835  0.00358640  1
  V  V2  1  0.12934773  0.13531253  -0.00463695  1
  V  V3  1  0.00356161  0.13097008  0.62993844  1
  V  V4  1  0.23777451  0.49705814  0.74507425  1
  V  V5  1  0.24900089  0.37151555  0.11571418  1
  V  V6  1  0.49661815  0.75872527  0.25434983  1
  V  V7  1  0.00213838  0.87142828  0.88197106  1
  V  V8  1  0.12624328  -0.00134192  0.62755547  1
  V  V9  1  0.37257897  0.62291590  0.74838695  1
  V  V10  1  0.49662326  0.61966854  0.62198817  1
  V  V11  1  0.87546086  0.87609504  0.49900034  1
  V  V12  1  0.37590608  -0.00569776  0.87223080  1
  V  V13  1  -0.00237701  0.62747551  0.12608097  1
  V  V14  1  0.74969939  0.62654976  0.87662641  1
  V  V15  1  0.62561994  0.49803263  0.63450925  1
  V  V16  1  0.37795759  0.12670995  0.24945712  1
  V  V17  1  0.12644304  0.37561717  0.24954913  1
  V  V18  1  0.87473529  0.37368848  0.00119553  1
  V  V19  1  0.25579968  0.13010093  0.37841082  1
  V  V20  1  0.24951183  0.37204567  0.61266518  1
  V  V21  1  0.37456950  0.48942161  0.38342930  1
  V  V22  1  0.87489482  0.62656554  0.25053306  1
  V  V23  1  0.87726933  0.00450454  0.37703034  1
  V  V24  1  0.37557398  0.24923462  0.60953908  1
  V  V25  1  -0.00093789  0.37859614  0.37938025  1
  V  V26  1  0.87523236  0.49852522  0.87548603  1
  V  V27  1  0.49800822  0.49646254  0.00045090  1
  V  V28  1  0.38107858  0.12651877  0.74624393  1
  V  V29  1  0.37324255  0.62339852  0.25728791  1
  V  V30  1  0.13157212  0.13065737  0.50209425  1
  V  V31  1  0.50531846  0.01035560  0.49717666  1
  V  V32  1  0.24265034  0.75182040  -0.00506876  1
  V  V33  1  0.00839759  0.12238437  0.12748973  1
  V  V34  1  0.37336352  0.74807779  0.62239392  1
  V  V35  1  0.49950631  0.62289257  0.12681840  1
  V  V36  1  0.75082513  0.12269204  0.87062731  1
  V  V37  1  0.00268605  -0.00475051  0.49788709  1
  V  V38  1  0.74975874  0.76504046  0.00342578  1
  V  V39  1  0.25034261  0.50433787  0.25047285  1
  V  V40  1  0.25127301  0.13778251  0.87630635  1
  V  V41  1  0.62037067  0.61961329  0.49950483  1
  V  V42  1  0.50046605  -0.00786882  -0.00612315  1
  V  V43  1  0.87452136  0.62673081  0.75062161  1
  V  V44  1  0.62583245  0.25816744  0.86629397  1
  V  V45  1  -0.00130552  0.49958468  -0.00060797  1
  V  V46  1  0.73528809  0.13091415  0.38085243  1
  V  V47  1  0.88281325  0.12627815  0.75331599  1
  V  V48  1  0.74685058  0.48957565  0.24872704  1
  V  V49  1  0.62463094  0.62498389  0.00162444  1
  V  V50  1  0.51119021  0.37806785  0.38543868  1
  V  V51  1  0.23995458  0.62750961  0.87291067  1
  V  V52  1  0.37236212  0.49827532  0.87308557  1
  V  V53  1  0.61811784  0.75699339  0.87860303  1
  V  V54  1  0.12344587  0.50185739  0.12475883  1
  V  V55  1  0.24662736  0.00021108  0.24717873  1
  V  V56  1  0.49546355  0.75708768  0.75459626  1
  V  V57  1  0.86819911  0.76191346  0.12207353  1
  V  V58  1  0.62588310  0.12467107  -0.00277018  1
  V  V59  1  0.13025073  0.25121397  0.37781912  1
  V  V60  1  0.74720050  -0.00265514  0.24720995  1
  V  V61  1  0.50425523  0.12029605  0.12481235  1
  V  V62  1  0.74901396  0.62504136  0.37453789  1
  V  V63  1  0.74901579  0.75413885  0.50496062  1
  V  V64  1  0.87306314  0.75604454  0.62901692  1
  V  V65  1  0.24640341  0.87967399  0.12426072  1
  V  V66  1  0.12433457  0.35511581  0.75118945  1
  V  V67  1  0.63203677  0.87487919  0.74283401  1
  V  V68  1  0.11441314  0.76487990  0.37130460  1
  V  V69  1  0.37180515  0.74871235  0.12349657  1
  V  V70  1  0.87345741  0.25336323  0.12731997  1
  V  V71  1  0.00182860  0.25083600  0.25150699  1
  V  V72  1  0.00385457  0.62046516  0.62479298  1
  V  V73  1  0.01132622  0.75114628  0.75359658  1
  V  V74  1  0.25113447  0.87567547  0.62261784  1
  V  V75  1  0.87457949  0.25269757  0.62566764  1
  V  V76  1  0.62024327  0.75754744  0.37528886  1
  V  V77  1  0.51427641  0.26006780  0.24975355  1
  V  V78  1  0.00276963  -0.00272804  0.00303619  1
  V  V79  1  0.37266147  0.24845846  0.11681632  1
  V  V80  1  0.24769291  0.74887449  0.48923187  1
  V  V81  1  0.62871033  0.48600330  0.12801532  1
  V  V82  1  0.38596153  0.87204935  0.49057994  1
  V  V83  1  0.12690076  0.62020565  0.49406957  1
  V  V84  1  0.50183569  0.25670008  0.74285349  1
  Zn  Zn85  1  0.63728624  -0.01022385  0.11536524  1
  Zn  Zn86  1  0.75836035  -0.00615027  0.74130523  1
  Zn  Zn87  1  0.00037691  0.49795567  0.50754793  1
  Zn  Zn88  1  0.87390919  0.12844841  0.25397846  1
  Zn  Zn89  1  0.50358815  0.37849601  0.86912742  1
  Zn  Zn90  1  0.63035410  0.00218677  0.62032737  1
  Zn  Zn91  1  0.74518668  0.25890298  0.49699182  1
  Zn  Zn92  1  0.12953769  0.87347630  0.75623768  1
  Zn  Zn93  1  0.87476942  0.50049022  0.38011135  1
  Zn  Zn94  1  0.87383519  0.37888579  0.50492461  1
  Zn  Zn95  1  0.12017151  0.62724478  -0.00506920  1
  Zn  Zn96  1  -0.00114960  0.76883999  0.25078787  1
  Zn  Zn97  1  0.61618311  0.14334939  0.51598312  1
  Zn  Zn98  1  0.25216955  0.00101745  0.75163311  1
  Zn  Zn99  1  0.37062880  0.36801781  -0.00647640  1
  Zn  Zn100  1  0.62637018  0.87472794  0.24598252  1
  Zn  Zn101  1  0.37671086  0.87190593  -0.00692715  1
  Zn  Zn102  1  0.87384464  -0.00577606  0.88044576  1
  Zn  Zn103  1  0.74547690  0.49015866  0.75582397  1
  Zn  Zn104  1  0.74035382  0.36726146  0.63111869  1
  Zn  Zn105  1  0.08072530  -0.06392472  0.19160897  1
  Zn  Zn106  1  0.38066548  -0.00589836  0.37019525  1
  Zn  Zn107  1  0.18855424  0.18662314  0.18649383  1
  Zn  Zn108  1  0.19666391  0.18647944  0.68647763  1
  Zn  Zn109  1  0.18567314  0.68976135  0.19038930  1
  Zn  Zn110  1  0.18767318  0.68559595  0.68098514  1
  Zn  Zn111  1  0.69001690  0.18096826  0.18776800  1
  Zn  Zn112  1  0.68826697  0.18157457  0.68507218  1
  Zn  Zn113  1  0.68542093  0.68518536  0.18825024  1
  Zn  Zn114  1  0.68610309  0.68722860  0.68926581  1
  Zn  Zn115  1  0.31565438  0.31250917  0.30651395  1
  Zn  Zn116  1  0.31469994  0.31290638  0.80690522  1
  Zn  Zn117  1  0.30572953  0.81234463  0.31044830  1
  Zn  Zn118  1  0.31026958  0.81333173  0.81127313  1
  Zn  Zn119  1  0.81441714  0.31211730  0.31529981  1
  Zn  Zn120  1  0.81384909  0.31040839  0.80821613  1
  Zn  Zn121  1  0.81559446  0.81426289  0.31563680  1
  Zn  Zn122  1  0.81544780  0.81244630  0.81818909  1
  Zn  Zn123  1  0.18845053  0.44152029  0.43368612  1
  Zn  Zn124  1  0.18385842  0.43755728  0.93465710  1
  Zn  Zn125  1  0.19354960  0.94172405  0.43700205  1
  Zn  Zn126  1  0.18462690  0.94352221  0.93848110  1
  Zn  Zn127  1  0.68900642  0.43730484  0.44513991  1
  Zn  Zn128  1  0.68848330  0.43629150  0.94002737  1
  Zn  Zn129  1  0.69041810  0.93773095  0.43636351  1
  Zn  Zn130  1  0.68393626  0.93847452  0.92906983  1
  Zn  Zn131  1  0.31276817  0.06205855  0.05941621  1
  Zn  Zn132  1  0.31851074  0.06120834  0.56085433  1
  Zn  Zn133  1  0.31067319  0.56331661  0.06104642  1
  Zn  Zn134  1  0.30603221  0.55947633  0.56118264  1
  Zn  Zn135  1  0.81910835  0.06737110  0.06238226  1
  Zn  Zn136  1  0.80812729  0.06359263  0.56722828  1
  Zn  Zn137  1  0.81015133  0.56460127  0.06374990  1
  Zn  Zn138  1  0.81233103  0.56286465  0.56305835  1
  Zn  Zn139  1  0.43569331  0.43554182  0.18615874  1
  Zn  Zn140  1  0.43374550  0.43447511  0.68300516  1
  Zn  Zn141  1  0.43392560  0.93776061  0.18266580  1
  Zn  Zn142  1  0.44022943  0.93819313  0.68234913  1
  Zn  Zn143  1  0.93435314  0.43792759  0.19107831  1
  Zn  Zn144  1  0.93930497  0.43768901  0.69374796  1
  Zn  Zn145  1  0.92034455  0.94128650  0.18496473  1
  Zn  Zn146  1  0.93930792  0.93828386  0.68990919  1
  Zn  Zn147  1  0.06229600  0.06537759  0.31813625  1
  Zn  Zn148  1  0.06459896  0.06024947  0.81601626  1
  Zn  Zn149  1  0.06277511  0.56731089  0.31460781  1
  Zn  Zn150  1  0.05913271  0.55833497  0.81052767  1
  Zn  Zn151  1  0.56055750  0.05797769  0.31612586  1
  Zn  Zn152  1  0.56164255  0.06514354  0.80837530  1
  Zn  Zn153  1  0.56102922  0.56000564  0.31250099  1
  Zn  Zn154  1  0.55877555  0.56866616  0.81324868  1
  Zn  Zn155  1  0.44362759  0.19303948  0.43062199  1
  Zn  Zn156  1  0.44057010  0.18342309  0.93256479  1
  Zn  Zn157  1  0.43635693  0.68332167  0.43560387  1
  Zn  Zn158  1  0.43288757  0.68332941  0.93757709  1
  Zn  Zn159  1  0.93902985  0.18810233  0.44333551  1
  Zn  Zn160  1  0.93755662  0.18304106  0.94113483  1
  Zn  Zn161  1  0.93958346  0.68835733  0.43769039  1
  Zn  Zn162  1  0.93616508  0.69162135  0.93920411  1
  Zn  Zn163  1  0.06138000  0.31180628  0.06157801  1
  Zn  Zn164  1  0.06597139  0.31339843  0.56480103  1
  Zn  Zn165  1  0.06053599  0.80841912  0.06084571  1
  Zn  Zn166  1  0.06177435  0.81067302  0.56335098  1
  Zn  Zn167  1  0.55994136  0.31061066  0.06027503  1
  Zn  Zn168  1  0.56114287  0.31427982  0.55949808  1
  Zn  Zn169  1  0.56278855  0.81495848  0.06808187  1
  Zn  Zn170  1  0.56151020  0.80775423  0.56550189  1
  O  O171  1  0.11583847  0.12968249  0.11586608  1
  O  O172  1  0.12436113  0.11955294  0.62016641  1
  O  O173  1  0.11014407  0.62370966  0.12743379  1
  O  O174  1  0.11558852  0.63372420  0.60875091  1
  O  O175  1  0.61852557  0.11866498  0.11696929  1
  O  O176  1  0.62073506  0.11678445  0.62620549  1
  O  O177  1  0.61655664  0.62077608  0.11779978  1
  O  O178  1  0.61491355  0.62332447  0.61963073  1
  O  O179  1  0.38100268  0.38522674  0.36778804  1
  O  O180  1  0.37336975  0.38751539  0.87553248  1
  O  O181  1  0.36626264  0.87404396  0.38781107  1
  O  O182  1  0.37241473  0.88913454  0.87242723  1
  O  O183  1  0.88651475  0.37692555  0.37869820  1
  O  O184  1  0.88340267  0.37878815  0.88031597  1
  O  O185  1  0.87108947  0.88678718  0.39036168  1
  O  O186  1  0.89380699  0.87698961  0.87067021  1
  O  O187  1  0.25648535  0.01176222  0.36675993  1
  O  O188  1  0.25918938  0.00838547  0.87292902  1
  O  O189  1  0.26213642  0.49428842  0.36258877  1
  O  O190  1  0.25483571  0.50610980  0.86758868  1
  O  O191  1  0.75661411  0.01052912  0.37067696  1
  O  O192  1  0.75319780  0.00921945  0.87063684  1
  O  O193  1  0.74839297  0.51334997  0.37023101  1
  O  O194  1  0.75497681  0.50907664  0.87704401  1
  O  O195  1  0.24320823  0.49470466  0.12973069  1
  O  O196  1  0.25694787  0.48392477  0.63322898  1
  O  O197  1  0.25643839  0.99131175  0.13172580  1
  O  O198  1  0.24462919  0.99218385  0.62344693  1
  O  O199  1  0.74073588  0.50567331  0.13465595  1
  O  O200  1  0.73313452  0.51075336  0.63146675  1
  O  O201  1  0.75473319  1.01167288  0.14230870  1
  O  O202  1  0.74597184  0.99568512  0.62877189  1
  O  O203  1  0.00696776  0.37005704  0.25631398  1
  O  O204  1  0.01702874  0.37710284  0.75645880  1
  O  O205  1  -0.00213465  0.88142079  0.24111343  1
  O  O206  1  0.00488595  0.86684894  0.75680814  1
  O  O207  1  0.50006792  0.36257048  0.24738664  1
  O  O208  1  0.49403258  0.36230782  0.75194625  1
  O  O209  1  0.49429212  0.86148734  0.24715390  1
  O  O210  1  0.50514317  0.86084045  0.74541678  1
  O  O211  1  0.49615257  0.13028447  0.24463818  1
  O  O212  1  0.48736228  0.13599309  0.75315999  1
  O  O213  1  0.49112057  0.63161213  0.24410840  1
  O  O214  1  0.49120961  0.63505916  0.74340685  1
  O  O215  1  1.00137602  0.13205854  0.24399630  1
  O  O216  1  0.99704099  0.11923103  0.74205525  1
  O  O217  1  0.98773790  0.62747830  0.24506138  1
  O  O218  1  0.99576324  0.63305354  0.74600857  1
  O  O219  1  0.38493379  0.24926088  0.01251806  1
  O  O220  1  0.37711018  0.24407383  0.51081219  1
  O  O221  1  0.36643918  0.74886378  0.00775195  1
  O  O222  1  0.36661764  0.75458705  0.49994828  1
  O  O223  1  0.86842539  0.25261607  0.00729372  1
  O  O224  1  0.87255820  0.25190692  0.51147703  1
  O  O225  1  0.86428826  0.74508460  0.01348368  1
  O  O226  1  0.87011324  0.75710093  0.50553025  1
  O  O227  1  0.12420009  0.23689227  0.49644686  1
  O  O228  1  0.12208964  0.23495529  1.00034333  1
  O  O229  1  0.12916768  0.74620803  0.49117611  1
  O  O230  1  0.13859147  0.74490389  1.00295583  1
  O  O231  1  0.63013060  0.25356070  0.49880718  1
  O  O232  1  0.63171983  0.24421644  0.99440645  1
  O  O233  1  0.63129781  0.74337364  0.49511635  1
  O  O234  1  0.62728663  0.74530784  0.99506530  1
  O  O235  1  0.49634296  0.24027974  0.13210198  1
  O  O236  1  0.48431839  0.25851124  0.62901005  1
  O  O237  1  0.48684232  0.74424837  0.12945504  1
  O  O238  1  0.49180751  0.73964383  0.63241910  1
  O  O239  1  0.99626445  0.24461828  0.13220043  1
  O  O240  1  0.99841186  0.23506642  0.62016232  1
  O  O241  1  0.98694717  0.74356012  0.12514688  1
  O  O242  1  0.99341371  0.74332239  0.63344403  1
  O  O243  1  0.00739122  0.25843013  0.37179181  1
  O  O244  1  -0.00338559  0.26154046  0.88055146  1
  O  O245  1  0.00984475  0.75515531  0.37409730  1
  O  O246  1  -0.00153185  0.75932899  0.86892570  1
  O  O247  1  0.49717832  0.26573241  0.35968038  1
  O  O248  1  0.50929553  0.25172779  0.86679947  1
  O  O249  1  0.50733637  0.74279247  0.36570463  1
  O  O250  1  0.50566835  0.74093189  0.86733035  1
  O  O251  1  0.24400618  0.11767652  0.49016131  1
  O  O252  1  0.23700382  0.12086323  0.99506361  1
  O  O253  1  0.23600048  0.63398854  0.50502196  1
  O  O254  1  0.24802847  0.63123681  0.98968615  1
  O  O255  1  0.74902625  0.12391356  0.48617242  1
  O  O256  1  0.74775830  0.13330610  0.99157165  1
  O  O257  1  0.74416897  0.63490235  0.49274506  1
  O  O258  1  0.74444112  0.63160117  0.99083071  1
  O  O259  1  0.24932282  0.38053634  0.01169288  1
  O  O260  1  0.23931122  0.37719034  0.51435009  1
  O  O261  1  0.25289948  0.86857715  0.00335377  1
  O  O262  1  0.25771619  0.86932209  0.50724877  1
  O  O263  1  0.75683322  0.36041477  -0.00381383  1
  O  O264  1  0.75568905  0.37769738  0.51368071  1
  O  O265  1  0.74474288  0.86417461  -0.00622520  1
  O  O266  1  0.75675194  0.86148825  0.49669776  1
  O  O267  1  0.13207661  0.49816344  0.24583331  1
  O  O268  1  0.13588406  0.49693440  0.74928478  1
  O  O269  1  0.14113972  1.01220147  0.25136583  1
  O  O270  1  0.12900021  0.99940120  0.73686017  1
  O  O271  1  0.63431720  0.50902493  0.23924508  1
  O  O272  1  0.62455572  0.51094421  0.73874105  1
  O  O273  1  0.63810166  0.99935345  0.25217863  1
  O  O274  1  0.61900932  0.98037232  0.75373334  1
  O  O275  1  0.37038475  0.01187445  0.24927373  1
  O  O276  1  0.37820056  0.00736116  0.75279277  1
  O  O277  1  0.36772713  0.50581607  0.25131918  1
  O  O278  1  0.36684494  0.50368487  0.75608743  1
  O  O279  1  0.86447261  0.00679690  0.26086553  1
  O  O280  1  0.87679208  0.01163608  0.75309281  1
  O  O281  1  0.86666143  0.51049691  0.25250627  1
  O  O282  1  0.87404358  0.51007862  0.75862891  1
  O  O283  1  0.12252438  0.36965783  0.36906482  1
  O  O284  1  0.11930578  0.37685668  0.86179014  1
  O  O285  1  0.12928371  0.86360813  0.38104283  1
  O  O286  1  0.11070024  0.87982772  0.87222327  1
  O  O287  1  0.61016100  0.39023295  0.37524443  1
  O  O288  1  0.62480947  0.36189452  0.87890489  1
  O  O289  1  0.63010748  0.85994783  0.37047461  1
  O  O290  1  0.62083678  0.86138214  0.86682223  1
  O  O291  1  0.38206634  0.13005979  0.12932908  1
  O  O292  1  0.36722789  0.13901637  0.63182090  1
  O  O293  1  0.37806287  0.63025359  0.13301011  1
  O  O294  1  0.37802869  0.62781487  0.62669819  1
  O  O295  1  0.89007367  0.13730408  0.12662337  1
  O  O296  1  0.88573194  0.13078840  0.63093611  1
  O  O297  1  0.88271955  0.62912863  0.13186133  1
  O  O298  1  0.88153478  0.63657056  0.62998141  1
  O  O299  1  0.26004162  0.25885986  0.13012742  1
  O  O300  1  0.26140339  0.26142534  0.62670229  1
  O  O301  1  0.25764467  0.75279765  0.11972945  1
  O  O302  1  0.25442373  0.75636887  0.61387256  1
  O  O303  1  0.76062961  0.24113016  0.11667148  1
  O  O304  1  0.76309792  0.24709624  0.62465470  1
  O  O305  1  0.76025283  0.74149559  0.11815456  1
  O  O306  1  0.75944892  0.74285579  0.61675981  1
  O  O307  1  0.24754539  0.23842996  0.36704106  1
  O  O308  1  0.26136669  0.23744984  0.87659416  1
  O  O309  1  0.24057426  0.75056370  0.38465499  1
  O  O310  1  0.25659035  0.74039867  0.88242651  1
  O  O311  1  0.75677113  0.23329635  0.37451126  1
  O  O312  1  0.74468025  0.24185234  0.88082571  1
  O  O313  1  0.74396380  0.74079045  0.37978290  1
  O  O314  1  0.74272627  0.74479506  0.88404034  1
  O  O315  1  0.01085147  0.12108661  0.00696517  1
  O  O316  1  0.01061221  0.11471039  0.50789341  1
  O  O317  1  -0.00128575  0.61995458  0.00822919  1
  O  O318  1  0.00904848  0.62642367  0.50767839  1
  O  O319  1  0.50639501  0.11892987  0.00752990  1
  O  O320  1  0.49936696  0.11382488  0.49451227  1
  O  O321  1  0.50223612  0.61394938  0.00500087  1
  O  O322  1  0.50758754  0.63128082  0.50969964  1
  O  O323  1  0.49617512  0.37567298  0.48351789  1
  O  O324  1  0.49642547  0.38679204  0.99630296  1
  O  O325  1  0.48721030  0.86575111  0.49859328  1
  O  O326  1  0.49691440  0.88824606  1.00360858  1
  O  O327  1  1.00396858  0.37836536  0.49299958  1
  O  O328  1  0.99642278  0.38082508  0.99290084  1
  O  O329  1  0.99333083  0.88730113  0.50692435  1
  O  O330  1  1.00388270  0.88003187  0.99161733  1
  O  O331  1  0.48566157  0.48854676  0.36468893  1
  O  O332  1  0.49163701  0.50130131  0.88096387  1
  O  O333  1  0.49639434  0.99525442  0.38836650  1
  O  O334  1  0.49076337  1.00907966  0.88389038  1
  O  O335  1  1.00180725  0.48731453  0.37267204  1
  O  O336  1  0.99316095  0.49416752  0.88119981  1
  O  O337  1  0.99273105  1.00497625  0.38672810  1
  O  O338  1  0.99896562  0.98974468  0.88295307  1
  O  O339  1  0.00119718  0.00720968  0.12283978  1
  O  O340  1  0.00941126  0.00719533  0.61944516  1
  O  O341  1  0.00305556  0.50722322  0.12162291  1
  O  O342  1  -0.00256836  0.51648029  0.62956255  1
  O  O343  1  0.49757173  0.01106322  0.11755713  1
  O  O344  1  0.50389569  -0.01223971  0.60179939  1
  O  O345  1  0.50458841  0.50314767  0.11836342  1
  O  O346  1  0.50571198  0.51270129  0.63174800  1
  O  O347  1  0.24620690  0.38472736  0.23862512  1
  O  O348  1  0.23942018  0.37951967  0.74706027  1
  O  O349  1  0.25487098  0.88732336  0.24030565  1
  O  O350  1  0.24899386  0.87549945  0.73558201  1
  O  O351  1  0.75519179  0.39046298  0.25663036  1
  O  O352  1  0.75455213  0.37805540  0.74334605  1
  O  O353  1  0.75292798  0.89379013  0.25873744  1
  O  O354  1  0.73509234  0.87184029  0.75804081  1
  O  O355  1  0.26031702  0.12123119  0.25359134  1
  O  O356  1  0.26167112  0.12340597  0.75820390  1
  O  O357  1  0.25719105  0.61307642  0.24302733  1
  O  O358  1  0.25313413  0.61864382  0.75227466  1
  O  O359  1  0.75164427  0.11708978  0.26364830  1
  O  O360  1  0.75967979  0.12419824  0.76096475  1
  O  O361  1  0.75833106  0.62268589  0.25744842  1
  O  O362  1  0.75422729  0.62878451  0.76500225  1
  O  O363  1  0.37144323  0.12672953  0.36553426  1
  O  O364  1  0.36929162  0.11697997  0.86772618  1
  O  O365  1  0.37886216  0.61307113  0.36214815  1
  O  O366  1  0.36445097  0.61425240  0.86936587  1
  O  O367  1  0.87405559  0.11420340  0.37793750  1
  O  O368  1  0.86880506  0.12465388  0.86923817  1
  O  O369  1  0.86756061  0.62742803  0.36759673  1
  O  O370  1  0.86743843  0.62206870  0.87256332  1
  O  O371  1  0.13006235  0.37940367  0.13014665  1
  O  O372  1  0.13660365  0.36787768  0.63884703  1
  O  O373  1  0.14057317  0.86863567  0.12037269  1
  O  O374  1  0.13342354  0.88242922  0.62310118  1
  O  O375  1  0.62299449  0.38685651  0.11887662  1
  O  O376  1  0.61799109  0.39648176  0.62281193  1
  O  O377  1  0.62542661  0.87872121  0.13243753  1
  O  O378  1  0.62463297  0.86793464  0.64064456  1
  O  O379  1  0.12103590  0.25521122  0.25609206  1
  O  O380  1  0.12939708  0.25668084  0.75214632  1
  O  O381  1  0.12246630  0.74685341  0.26698467  1
  O  O382  1  0.11438872  0.74972396  0.74525166  1
  O  O383  1  0.61213699  0.24674089  0.24323787  1
  O  O384  1  0.61550280  0.24481403  0.75619696  1
  O  O385  1  0.61401992  0.74710993  0.25757585  1
  O  O386  1  0.61716429  0.75612555  0.75753047  1
  O  O387  1  0.38375169  0.24074912  0.23864434  1
  O  O388  1  0.38220543  0.24362789  0.74253102  1
  O  O389  1  0.37630276  0.74194711  0.24572092  1
  O  O390  1  0.37893122  0.74420019  0.74470634  1
  O  O391  1  0.88254554  0.24936388  0.24345706  1
  O  O392  1  0.87727988  0.23456527  0.74345668  1
  O  O393  1  0.87364461  0.74480960  0.24011864  1
  O  O394  1  0.88184371  0.74643828  0.74433035  1
  O  O395  1  0.36865684  0.50435340  0.48147588  1
  O  O396  1  0.38134760  0.49987653  0.99183735  1
  O  O397  1  0.38543892  0.98766904  0.49812483  1
  O  O398  1  0.38299753  1.00007864  0.98996337  1
  O  O399  1  0.88163509  0.50037257  0.49855730  1
  O  O400  1  0.87772641  0.49371272  0.99662105  1
  O  O401  1  0.88260701  0.99475713  0.49765178  1
  O  O402  1  0.89466365  1.00969789  0.99909493  1
  O  O403  1  0.11165680  0.01212290  -0.00043649  1
  O  O404  1  0.12135851  0.00649428  0.50771440  1
  O  O405  1  0.11767301  0.50385197  0.00736875  1
  O  O406  1  0.12355894  0.51650098  0.49441335  1
  O  O407  1  0.61832949  0.00656194  -0.00340482  1
  O  O408  1  0.61151686  -0.00567889  0.49638373  1
  O  O409  1  0.61804851  0.50528776  0.00489434  1
  O  O410  1  0.62788326  0.51584650  0.51191139  1
  O  O411  1  0.36642013  0.36671151  0.12156172  1
  O  O412  1  0.36107251  0.36360408  0.62583487  1
  O  O413  1  0.36534112  0.86437120  0.12085185  1
  O  O414  1  0.36885423  0.86770511  0.61482983  1
  O  O415  1  0.88311835  0.36159640  0.11839195  1
  O  O416  1  0.88782750  0.35864793  0.62932175  1
  O  O417  1  0.86749404  0.86063377  0.12222878  1
  O  O418  1  0.88078961  0.86344981  0.61740293  1
  O  O419  1  0.13443278  0.13057361  0.38377705  1
  O  O420  1  0.13433018  0.12254352  0.88598741  1
  O  O421  1  0.11893517  0.63740196  0.38917026  1
  O  O422  1  0.13643422  0.62005747  0.87335746  1
  O  O423  1  0.63425218  0.12373050  0.37910025  1
  O  O424  1  0.63331188  0.13301914  0.87711806  1
  O  O425  1  0.62947104  0.63060873  0.38212439  1
  O  O426  1  0.63081897  0.63455146  0.88051005  1
