# generated using pymatgen
data_V85Zn86O256
_symmetry_space_group_name_H-M   'P 1'
_cell_length_a   16.95170510
_cell_length_b   16.95836646
_cell_length_c   16.96052336
_cell_angle_alpha   90.02072622
_cell_angle_beta   89.97486417
_cell_angle_gamma   89.94104072
_symmetry_Int_Tables_number   1
_chemical_formula_structural   V85Zn86O256
_chemical_formula_sum   'V85 Zn86 O256'
_cell_volume   4875.69301211
_cell_formula_units_Z   1
loop_
 _symmetry_equiv_pos_site_id
 _symmetry_equiv_pos_as_xyz
  1  'x, y, z'
loop_
 _atom_site_type_symbol
 _atom_site_label
 _atom_site_symmetry_multiplicity
 _atom_site_fract_x
 _atom_site_fract_y
 _atom_site_fract_z
 _atom_site_occupancy
  V  V0  1  0.62363628  0.50042322  0.12664407  1
  V  V1  1  0.75288288  0.87258732  0.62345269  1
  V  V2  1  0.38925457  0.62652022  0.74522779  1
  V  V3  1  0.62542806  0.38423327  0.75160008  1
  V  V4  1  0.24839199  0.37507159  0.62455421  1
  V  V5  1  0.00315855  0.61938842  0.12609586  1
  V  V6  1  0.87268487  0.12489704  0.74748694  1
  V  V7  1  0.87399331  0.50145372  0.88005818  1
  V  V8  1  0.12785505  -0.00058160  0.12446365  1
  V  V9  1  0.51129636  0.86175227  0.37596044  1
  V  V10  1  0.13493871  0.74910501  0.87780053  1
  V  V11  1  0.24394461  -0.01233850  0.74467608  1
  V  V12  1  -0.01422067  0.24596274  0.24699855  1
  V  V13  1  0.38685967  -0.00058885  0.87231666  1
  V  V14  1  0.61827373  0.11985545  0.01074860  1
  V  V15  1  0.37644782  0.38048706  0.49871763  1
  V  V16  1  0.24935643  0.24666348  0.49210271  1
  V  V17  1  0.49892558  0.37336384  0.87682661  1
  V  V18  1  0.87325616  0.36742364  0.50108416  1
  V  V19  1  0.50100632  0.50152804  0.00542075  1
  V  V20  1  0.12541926  0.25146826  0.87315899  1
  V  V21  1  0.63131683  0.87895846  0.23726549  1
  V  V22  1  0.12824722  0.62157620  0.00305641  1
  V  V23  1  0.00783363  0.75076061  0.74843773  1
  V  V24  1  0.73938950  0.62721018  0.37778118  1
  V  V25  1  -0.00130909  0.12763867  0.12929377  1
  V  V26  1  0.25927577  0.62518339  0.37309546  1
  V  V27  1  0.37469352  0.86584897  -0.00426556  1
  V  V28  1  0.12089238  0.75074665  0.37485474  1
  V  V29  1  0.74885169  -0.00363022  0.74887010  1
  V  V30  1  0.87579676  -0.00293907  0.86891657  1
  V  V31  1  0.25674908  0.62694570  0.87778075  1
  V  V32  1  0.37596521  0.12346154  0.24954741  1
  V  V33  1  0.00319337  -0.00047655  -0.00252472  1
  V  V34  1  0.12755079  0.62253011  0.49831602  1
  V  V35  1  0.62453772  0.14430673  0.49689484  1
  V  V36  1  0.87229586  0.75094188  0.12887307  1
  V  V37  1  0.12623944  0.12063413  0.50070674  1
  V  V38  1  0.25254915  0.12269448  0.87071312  1
  V  V39  1  0.00316046  0.11430580  0.62401308  1
  V  V40  1  0.37589515  0.25009902  0.62481577  1
  V  V41  1  0.50307177  0.24504912  0.25153166  1
  V  V42  1  0.74389638  0.37563185  0.61899841  1
  V  V43  1  0.25216573  0.86166710  0.11906863  1
  V  V44  1  0.37139556  0.87431010  0.49962618  1
  V  V45  1  0.37859779  0.00435530  0.37394020  1
  V  V46  1  0.24953622  0.00599638  0.25204173  1
  V  V47  1  0.81610634  0.06378180  0.20458076  1
  V  V48  1  0.37490951  0.37527280  0.00780514  1
  V  V49  1  0.62503453  0.24850219  0.87645221  1
  V  V50  1  0.12520447  0.12468807  -0.00020886  1
  V  V51  1  0.74832916  0.50029968  0.25113255  1
  V  V52  1  0.12459288  0.49931316  0.62540248  1
  V  V53  1  0.87352463  -0.00132399  0.38032260  1
  V  V54  1  0.87301029  0.62544647  0.25271754  1
  V  V55  1  -0.00194768  0.49810880  0.49994992  1
  V  V56  1  0.74567150  0.12449617  0.87137746  1
  V  V57  1  0.60686987  0.64842130  0.02157536  1
  V  V58  1  0.23873128  0.50059690  0.24203871  1
  V  V59  1  0.12535917  0.24358999  0.36827632  1
  V  V60  1  0.37953926  0.24436258  0.12434893  1
  V  V61  1  0.61309216  0.75688604  0.86610884  1
  V  V62  1  0.87725342  0.87414550  -0.00203508  1
  V  V63  1  0.73247693  0.74690735  0.49708135  1
  V  V64  1  0.75461064  0.75223988  -0.00114218  1
  V  V65  1  -0.00035650  0.62245814  0.62561434  1
  V  V66  1  0.50229956  0.37376052  0.37515458  1
  V  V67  1  0.00841538  0.87351749  0.87042609  1
  V  V68  1  0.37073091  0.49608766  0.36748606  1
  V  V69  1  0.62082314  0.37305415  0.25405011  1
  V  V70  1  0.88046836  0.86776119  0.49431411  1
  V  V71  1  0.12359769  0.87418707  0.25310122  1
  V  V72  1  -0.00252478  0.37566282  0.87382080  1
  V  V73  1  -0.00179792  0.25111049  0.74522067  1
  V  V74  1  0.75474105  0.13519051  0.38711753  1
  V  V75  1  0.87393865  0.62560112  0.75054341  1
  V  V76  1  0.25110793  0.24931934  0.00001319  1
  V  V77  1  0.74614236  0.62854470  0.87882944  1
  V  V78  1  0.24943268  0.50296045  0.75153424  1
  V  V79  1  0.56394130  0.55434827  0.56026589  1
  V  V80  1  0.49726839  -0.00075547  0.02284148  1
  V  V81  1  0.75340527  0.36748344  0.12656873  1
  V  V82  1  0.62454188  0.00316139  0.61837220  1
  V  V83  1  0.87321047  0.36578223  0.00216462  1
  V  V84  1  0.00073675  0.37483603  0.37258968  1
  Zn  Zn85  1  0.00466567  0.49495310  0.00681450  1
  Zn  Zn86  1  0.74430352  0.50565835  0.74455842  1
  Zn  Zn87  1  0.75066552  0.88925723  0.12580163  1
  Zn  Zn88  1  0.87396842  0.50102638  0.37696776  1
  Zn  Zn89  1  0.38022660  0.76047736  0.64191466  1
  Zn  Zn90  1  0.11846582  0.37554404  0.23598928  1
  Zn  Zn91  1  -0.00249918  0.75386353  0.25416974  1
  Zn  Zn92  1  0.00701915  -0.00890949  0.49835575  1
  Zn  Zn93  1  0.37653805  0.12580311  0.74695398  1
  Zn  Zn94  1  0.25007024  0.74917094  0.50629878  1
  Zn  Zn95  1  0.74906555  0.24720754  0.00261268  1
  Zn  Zn96  1  0.60578957  0.87695431  0.75058510  1
  Zn  Zn97  1  0.24125049  0.37703453  0.12161116  1
  Zn  Zn98  1  0.49768422  0.25137837  0.74839814  1
  Zn  Zn99  1  0.12365303  0.37622376  0.75019926  1
  Zn  Zn100  1  0.37381479  0.49787401  0.87749783  1
  Zn  Zn101  1  0.45831165  0.71946100  0.26294053  1
  Zn  Zn102  1  0.49973720  0.00441206  0.49780082  1
  Zn  Zn103  1  0.87214814  0.74541536  0.62264929  1
  Zn  Zn104  1  0.86839352  0.24579967  0.62011345  1
  Zn  Zn105  1  0.49972147  0.12795225  0.62389437  1
  Zn  Zn106  1  0.23643543  0.87438932  0.62212805  1
  Zn  Zn107  1  0.18796090  0.18955119  0.18773277  1
  Zn  Zn108  1  0.18800957  0.18696320  0.68546189  1
  Zn  Zn109  1  0.18975182  0.68523263  0.18955289  1
  Zn  Zn110  1  0.19402983  0.69173248  0.68686219  1
  Zn  Zn111  1  0.68463234  0.19062265  0.18867533  1
  Zn  Zn112  1  0.68458119  0.19360007  0.68633300  1
  Zn  Zn113  1  0.67931659  0.69495091  0.19618119  1
  Zn  Zn114  1  0.68089305  0.68424695  0.68307822  1
  Zn  Zn115  1  0.31014395  0.31451048  0.30765250  1
  Zn  Zn116  1  0.31271034  0.31485922  0.81300410  1
  Zn  Zn117  1  0.30921004  0.81503861  0.31647091  1
  Zn  Zn118  1  0.43402279  0.81019894  0.81904041  1
  Zn  Zn119  1  0.81249279  0.31312229  0.31402506  1
  Zn  Zn120  1  0.80896163  0.31344319  0.80951019  1
  Zn  Zn121  1  0.80325227  0.81358109  0.31430578  1
  Zn  Zn122  1  0.81530658  0.81263050  0.80851196  1
  Zn  Zn123  1  0.18600471  0.43417866  0.43399869  1
  Zn  Zn124  1  0.18540688  0.43889274  0.93941720  1
  Zn  Zn125  1  0.19028664  0.93899483  0.43335650  1
  Zn  Zn126  1  0.19259465  0.93635213  0.93367922  1
  Zn  Zn127  1  0.68859734  0.43697484  0.43513186  1
  Zn  Zn128  1  0.68692389  0.44058872  0.94055137  1
  Zn  Zn129  1  0.69116162  0.94226039  0.43417190  1
  Zn  Zn130  1  0.68146552  0.93713045  0.93881695  1
  Zn  Zn131  1  0.31534767  0.06038722  0.06427190  1
  Zn  Zn132  1  0.31011957  0.06350066  0.56215572  1
  Zn  Zn133  1  0.30978775  0.56411406  0.06247167  1
  Zn  Zn134  1  0.31546403  0.56300995  0.56257851  1
  Zn  Zn135  1  0.81508605  0.06615755  0.04299690  1
  Zn  Zn136  1  0.81367050  0.06005506  0.56131499  1
  Zn  Zn137  1  0.80892890  0.56217463  0.06413718  1
  Zn  Zn138  1  0.80727355  0.55916155  0.56136012  1
  Zn  Zn139  1  0.44036918  0.55264294  0.19561378  1
  Zn  Zn140  1  0.43741044  0.44141117  0.68865131  1
  Zn  Zn141  1  0.42177454  0.90153223  0.20391987  1
  Zn  Zn142  1  0.43515749  0.94489634  0.68470332  1
  Zn  Zn143  1  0.93524757  0.43752058  0.18820440  1
  Zn  Zn144  1  0.93091772  0.43804660  0.68746922  1
  Zn  Zn145  1  0.94323464  0.93352388  0.18389813  1
  Zn  Zn146  1  1.06640346  0.93541638  0.68950316  1
  Zn  Zn147  1  0.05817340  0.06136698  0.31483432  1
  Zn  Zn148  1  0.06399079  0.06688073  0.81302344  1
  Zn  Zn149  1  0.06203173  0.56494454  0.31283845  1
  Zn  Zn150  1  0.06344758  0.56265825  0.81569333  1
  Zn  Zn151  1  0.56643442  0.06089738  0.31277823  1
  Zn  Zn152  1  0.56155350  0.06612621  0.80609289  1
  Zn  Zn153  1  0.53259853  0.58733477  0.36706433  1
  Zn  Zn154  1  0.56321637  0.56483439  0.82585628  1
  Zn  Zn155  1  0.43759256  0.18914817  0.43443848  1
  Zn  Zn156  1  0.43961872  0.18319169  0.93851060  1
  Zn  Zn157  1  0.46637701  0.70878320  0.48733461  1
  Zn  Zn158  1  0.43485515  0.68715976  1.05860766  1
  Zn  Zn159  1  0.94002930  0.18544224  0.43617992  1
  Zn  Zn160  1  0.93725723  0.18674110  0.93432443  1
  Zn  Zn161  1  0.93708510  0.68742839  0.43618129  1
  Zn  Zn162  1  0.94271705  0.68643681  0.93823311  1
  Zn  Zn163  1  0.06022309  0.31029018  0.06222944  1
  Zn  Zn164  1  0.06269237  0.30941117  0.56158156  1
  Zn  Zn165  1  0.06363830  0.80711143  0.06231901  1
  Zn  Zn166  1  0.06133793  0.80534690  0.55989260  1
  Zn  Zn167  1  0.56245435  0.31137361  0.06568490  1
  Zn  Zn168  1  0.55999212  0.32380684  0.56359904  1
  Zn  Zn169  1  0.56715028  0.82477406  0.05845202  1
  Zn  Zn170  1  0.55667065  0.82142949  0.57552822  1
  O  O171  1  0.11689505  0.12041337  0.11896344  1
  O  O172  1  0.11598264  0.13297346  0.61343387  1
  O  O173  1  0.11465324  0.63319601  0.11721973  1
  O  O174  1  0.12084787  0.61972833  0.61709569  1
  O  O175  1  0.63008272  0.12937015  0.10920459  1
  O  O176  1  0.62738531  0.12284899  0.61227362  1
  O  O177  1  0.64300263  0.61227876  0.11941789  1
  O  O178  1  0.62117466  0.61232320  0.62152139  1
  O  O179  1  0.37629492  0.37822168  0.38052211  1
  O  O180  1  0.38339329  0.37338434  0.88631050  1
  O  O181  1  0.38183117  0.88702301  0.38143785  1
  O  O182  1  0.37176901  0.88429715  0.88888344  1
  O  O183  1  0.88460620  0.37588731  0.38195350  1
  O  O184  1  0.87528270  0.38366745  0.88017981  1
  O  O185  1  0.86694692  0.88024183  0.38752327  1
  O  O186  1  0.88677747  0.87831592  0.87741337  1
  O  O187  1  0.26102692  -0.00470398  0.35885700  1
  O  O188  1  0.25740906  0.00698012  0.86758201  1
  O  O189  1  0.25092734  0.50378598  0.36763320  1
  O  O190  1  0.24877310  0.50593560  0.86705263  1
  O  O191  1  0.76349631  0.01269536  0.37881944  1
  O  O192  1  0.75134954  0.00290497  0.86701940  1
  O  O193  1  0.75420129  0.50681274  0.36850096  1
  O  O194  1  0.75481446  0.51486970  0.87801631  1
  O  O195  1  0.25093611  0.49981753  0.13994969  1
  O  O196  1  0.24451225  0.49451907  0.63160215  1
  O  O197  1  0.24259158  0.99716630  0.13186081  1
  O  O198  1  0.25239569  1.00326060  0.64197011  1
  O  O199  1  0.74439077  0.48876564  0.12963664  1
  O  O200  1  0.75632162  0.48254177  0.63014137  1
  O  O201  1  0.76333740  1.01057274  0.13478772  1
  O  O202  1  0.74570491  0.99318958  0.63036068  1
  O  O203  1  -0.00121576  0.36851450  0.25679625  1
  O  O204  1  -0.00287134  0.36719797  0.75513499  1
  O  O205  1  0.01831005  0.87210402  0.24163626  1
  O  O206  1  0.00178886  0.86462088  0.75894035  1
  O  O207  1  0.50992617  0.36388033  0.25646363  1
  O  O208  1  0.50508279  0.37429616  0.76029570  1
  O  O209  1  0.51240666  0.88059090  0.27042792  1
  O  O210  1  0.49279196  0.86931339  0.74304250  1
  O  O211  1  0.49733537  0.13731409  0.25600869  1
  O  O212  1  0.49598060  0.13383653  0.74317344  1
  O  O213  1  0.50060428  0.62002485  0.26396516  1
  O  O214  1  0.48700569  0.61419008  0.75783259  1
  O  O215  1  1.00259152  0.13166955  0.24033226  1
  O  O216  1  0.99528998  0.13157185  0.74371787  1
  O  O217  1  0.99142094  0.62853129  0.24433360  1
  O  O218  1  0.99279325  0.62887737  0.74707368  1
  O  O219  1  0.37314634  0.25210734  0.00650579  1
  O  O220  1  0.36555099  0.25685739  0.50289519  1
  O  O221  1  0.38177136  0.76732768  -0.00469120  1
  O  O222  1  0.36600486  0.77056280  0.48493471  1
  O  O223  1  0.87110257  0.26193299  -0.00748127  1
  O  O224  1  0.88320348  0.26375403  0.50126725  1
  O  O225  1  0.86916757  0.75278796  0.00434550  1
  O  O226  1  0.87088415  0.75860528  0.50043539  1
  O  O227  1  0.13050535  0.24365854  0.49115608  1
  O  O228  1  0.12929682  0.24198735  0.99222390  1
  O  O229  1  0.12854264  0.73976384  0.49170808  1
  O  O230  1  0.11690087  0.73568641  0.98881363  1
  O  O231  1  0.62325651  0.24238017  0.50381549  1
  O  O232  1  0.62238136  0.24290684  0.99009522  1
  O  O233  1  0.63527573  0.75284071  0.50491860  1
  O  O234  1  0.64351258  0.75655656  0.98532245  1
  O  O235  1  0.48641420  0.25607228  0.13362151  1
  O  O236  1  0.48530035  0.25549331  0.62317182  1
  O  O237  1  0.54222075  0.71747121  0.08311844  1
  O  O238  1  0.48255578  0.74349841  0.59533416  1
  O  O239  1  0.99880770  0.23485089  0.12863624  1
  O  O240  1  0.99785553  0.24520903  0.63671278  1
  O  O241  1  0.98572937  0.74123968  0.12513350  1
  O  O242  1  0.99608416  0.73987808  0.63310504  1
  O  O243  1  0.00446697  0.25495276  0.36595372  1
  O  O244  1  0.00361576  0.25338242  0.86367316  1
  O  O245  1  0.01561538  0.74389790  0.37283237  1
  O  O246  1  0.00604025  0.75601643  0.86776479  1
  O  O247  1  0.49205761  0.26277403  0.36418648  1
  O  O248  1  0.50531480  0.26031737  0.87735116  1
  O  O249  1  0.49428306  0.76046784  0.37909870  1
  O  O250  1  0.51543435  0.75106631  0.88023312  1
  O  O251  1  0.24213558  0.13889613  0.50352739  1
  O  O252  1  0.24684843  0.12810709  0.98960468  1
  O  O253  1  0.24294390  0.62392181  0.49264330  1
  O  O254  1  0.24204193  0.62107539  0.98995883  1
  O  O255  1  0.74271287  0.12873891  0.49463352  1
  O  O256  1  0.73906936  0.12647910  0.98772627  1
  O  O257  1  0.75715858  0.63841701  0.49364307  1
  O  O258  1  0.74332702  0.63594072  0.99644955  1
  O  O259  1  0.25835731  0.36745430  -0.00387957  1
  O  O260  1  0.25260421  0.36443114  0.50386638  1
  O  O261  1  0.25982224  0.87926835  0.00857781  1
  O  O262  1  0.26066789  0.87795067  0.49868988  1
  O  O263  1  0.75593698  0.37405323  0.00760979  1
  O  O264  1  0.75702658  0.37664093  0.51000672  1
  O  O265  1  0.75869231  0.87159293  0.00233126  1
  O  O266  1  0.75313228  0.86293795  0.50315525  1
  O  O267  1  0.13509198  0.49602579  0.25567766  1
  O  O268  1  0.13075415  0.49887013  0.74356122  1
  O  O269  1  0.13088774  0.99543189  0.24712792  1
  O  O270  1  0.13695830  1.00099170  0.75621774  1
  O  O271  1  0.63295618  0.48652492  0.23967674  1
  O  O272  1  0.62622173  0.48748859  0.76507091  1
  O  O273  1  0.62695427  0.97844362  0.26539838  1
  O  O274  1  0.63475609  1.00093773  0.73926384  1
  O  O275  1  0.36929092  0.00422104  0.25299063  1
  O  O276  1  0.36343685  0.00486572  0.75802986  1
  O  O277  1  0.35930480  0.49512881  0.26242654  1
  O  O278  1  0.36608171  0.50523284  0.75541111  1
  O  O279  1  0.87542169  -0.00311421  0.25661264  1
  O  O280  1  0.85979591  0.00779914  0.75420638  1
  O  O281  1  0.86697051  0.50933347  0.25135887  1
  O  O282  1  0.87309860  0.51060474  0.76293694  1
  O  O283  1  0.11065682  0.36426530  0.37569554  1
  O  O284  1  0.11608255  0.36873630  0.87421465  1
  O  O285  1  0.13252396  0.86534451  0.36461724  1
  O  O286  1  0.11557885  0.86579304  0.88305232  1
  O  O287  1  0.61663509  0.37889687  0.36530868  1
  O  O288  1  0.61966257  0.36794954  0.87420589  1
  O  O289  1  0.61131483  0.87438680  0.38664415  1
  O  O290  1  0.63199761  0.86136819  0.86800819  1
  O  O291  1  0.37438163  0.13143470  0.13657013  1
  O  O292  1  0.37562273  0.13720219  0.62302733  1
  O  O293  1  0.37996057  0.62118652  0.12711284  1
  O  O294  1  0.37112905  0.62067553  0.64362002  1
  O  O295  1  0.87622374  0.11515063  0.13599656  1
  O  O296  1  0.88264029  0.12691224  0.62925367  1
  O  O297  1  0.87673987  0.63130416  0.13527130  1
  O  O298  1  0.87883052  0.62239864  0.63528592  1
  O  O299  1  0.26091818  0.24826918  0.11695895  1
  O  O300  1  0.25685291  0.25713927  0.61775527  1
  O  O301  1  0.24563728  0.76333587  0.12378995  1
  O  O302  1  0.26086274  0.75635792  0.62365491  1
  O  O303  1  0.74794917  0.26297243  0.12304259  1
  O  O304  1  0.75360626  0.26870661  0.63285558  1
  O  O305  1  0.76098149  0.74963185  0.11620605  1
  O  O306  1  0.74974524  0.75445775  0.61602629  1
  O  O307  1  0.23925774  0.25633119  0.38140326  1
  O  O308  1  0.24652559  0.24304987  0.88004120  1
  O  O309  1  0.24056175  0.73948823  0.37240069  1
  O  O310  1  0.23554727  0.74102602  0.87003166  1
  O  O311  1  0.75434980  0.23369424  0.37210347  1
  O  O312  1  0.74035189  0.24449879  0.87604620  1
  O  O313  1  0.75105382  0.74308383  0.38956487  1
  O  O314  1  0.75531731  0.74034961  0.88029074  1
  O  O315  1  0.00222057  0.11939267  0.00572489  1
  O  O316  1  0.00797110  0.12622824  0.50962760  1
  O  O317  1  0.00528053  0.62148932  0.00906422  1
  O  O318  1  0.00460812  0.61762081  0.50497003  1
  O  O319  1  0.50478587  0.11012915  -0.00020533  1
  O  O320  1  0.51404982  0.12699968  0.49851181  1
  O  O321  1  0.50438351  0.60738960  -0.01012831  1
  O  O322  1  0.51172805  0.60586688  0.48125357  1
  O  O323  1  0.48640937  0.36821035  0.48930452  1
  O  O324  1  0.49498933  0.38137967  0.99719785  1
  O  O325  1  0.48898576  0.88263376  0.48935723  1
  O  O326  1  0.48713110  0.88877346  1.00389932  1
  O  O327  1  0.99494556  0.37900753  0.49365612  1
  O  O328  1  0.98963003  0.37504619  0.99239769  1
  O  O329  1  0.98329279  0.87281075  0.50227350  1
  O  O330  1  0.99590926  0.87922927  0.99361877  1
  O  O331  1  0.48393130  0.48121165  0.36887928  1
  O  O332  1  0.50021212  0.48573295  0.88603267  1
  O  O333  1  0.48808320  0.99960184  0.37677281  1
  O  O334  1  0.48799012  1.00344300  0.87126222  1
  O  O335  1  0.99867307  0.49092870  0.37976985  1
  O  O336  1  0.98997221  0.49337990  0.87667891  1
  O  O337  1  0.98121347  1.00815203  0.38035488  1
  O  O338  1  0.99816730  0.99148121  0.87587992  1
  O  O339  1  0.00655824  0.00939698  0.11925213  1
  O  O340  1  0.00182432  0.01196699  0.62416244  1
  O  O341  1  -0.00766485  0.51532483  0.12513782  1
  O  O342  1  0.00418425  0.50348627  0.62136939  1
  O  O343  1  0.49008913  -0.00401462  0.11895483  1
  O  O344  1  0.51057606  0.00661123  0.61924989  1
  O  O345  1  0.51448371  0.49731714  0.11951099  1
  O  O346  1  0.49892710  0.49693762  0.61325857  1
  O  O347  1  0.24323241  0.38749038  0.24899151  1
  O  O348  1  0.24860111  0.38688771  0.74579992  1
  O  O349  1  0.24013358  0.88367126  0.23553136  1
  O  O350  1  0.25002084  0.89004144  0.74748346  1
  O  O351  1  0.74557894  0.37815727  0.24474210  1
  O  O352  1  0.74186932  0.38065307  0.74400264  1
  O  O353  1  0.73940336  0.87393272  0.24337264  1
  O  O354  1  0.75237883  0.88225624  0.74017026  1
  O  O355  1  0.25878302  0.11579581  0.24447231  1
  O  O356  1  0.24933106  0.12461945  0.76245284  1
  O  O357  1  0.24321552  0.61169697  0.25948170  1
  O  O358  1  0.24913361  0.61353857  0.75670756  1
  O  O359  1  0.75098504  0.12352074  0.25833765  1
  O  O360  1  0.75100654  0.11924356  0.75280300  1
  O  O361  1  0.75613087  0.62332252  0.25585635  1
  O  O362  1  0.75671848  0.62552592  0.75834166  1
  O  O363  1  0.37692799  0.12027517  0.36045628  1
  O  O364  1  0.36726629  0.11817589  0.87395321  1
  O  O365  1  0.36104294  0.61266717  0.38038926  1
  O  O366  1  0.35981546  0.61943017  0.86616744  1
  O  O367  1  0.86255995  0.11875594  0.38430858  1
  O  O368  1  0.86764428  0.11721917  0.86918926  1
  O  O369  1  0.87047495  0.62580092  0.36293914  1
  O  O370  1  0.86955115  0.61953733  0.87221841  1
  O  O371  1  0.12739002  0.37286970  0.12215713  1
  O  O372  1  0.13070076  0.38023931  0.62588755  1
  O  O373  1  0.13447930  0.87973528  0.12465355  1
  O  O374  1  0.12328248  0.87834687  0.61416831  1
  O  O375  1  0.63306468  0.38115646  0.12927701  1
  O  O376  1  0.63459587  0.37158543  0.63634097  1
  O  O377  1  0.63014505  0.88521699  0.13102075  1
  O  O378  1  0.63476045  0.88554303  0.62728986  1
  O  O379  1  0.11658447  0.25116893  0.25590327  1
  O  O380  1  0.11645733  0.25169087  0.75540875  1
  O  O381  1  0.12522192  0.75748235  0.25623568  1
  O  O382  1  0.11281137  0.73983461  0.75820507  1
  O  O383  1  0.61570795  0.26062392  0.24450919  1
  O  O384  1  0.62239486  0.26084180  0.76290080  1
  O  O385  1  0.61916306  0.77347239  0.24886865  1
  O  O386  1  0.62905667  0.74880861  0.76338270  1
  O  O387  1  0.37833957  0.24268045  0.24293958  1
  O  O388  1  0.37302516  0.25167586  0.73802977  1
  O  O389  1  0.38225403  0.79180064  0.23471906  1
  O  O390  1  0.37617999  0.73061342  0.75655935  1
  O  O391  1  0.88662748  0.25134018  0.25105988  1
  O  O392  1  0.88254817  0.24243024  0.75148353  1
  O  O393  1  0.87427129  0.74618763  0.24392073  1
  O  O394  1  0.88521486  0.73823171  0.75024598  1
  O  O395  1  0.36091607  0.48518046  0.48857534  1
  O  O396  1  0.38235196  0.49033790  1.00024030  1
  O  O397  1  0.37254656  0.99778649  0.48911471  1
  O  O398  1  0.38506759  0.99921961  0.99280571  1
  O  O399  1  0.88241708  0.48938197  0.49911811  1
  O  O400  1  0.87413678  0.49446592  0.98995034  1
  O  O401  1  0.87515527  0.98526778  0.49636799  1
  O  O402  1  0.88442737  0.99430547  0.98883320  1
  O  O403  1  0.12116062  0.00565836  0.00251649  1
  O  O404  1  0.12433808  0.01638118  0.48694983  1
  O  O405  1  0.12056560  0.51514985  -0.00445973  1
  O  O406  1  0.11862284  0.50331870  0.50455989  1
  O  O407  1  0.60701231  0.00429471  -0.00261291  1
  O  O408  1  0.62874164  0.00757780  0.51047549  1
  O  O409  1  0.61857479  0.50675093  0.00896559  1
  O  O410  1  0.62412320  0.49139503  0.50929982  1
  O  O411  1  0.36707834  0.36460649  0.11137472  1
  O  O412  1  0.36765088  0.37180469  0.61637856  1
  O  O413  1  0.35850558  0.88595398  0.10869418  1
  O  O414  1  0.37244927  0.88285929  0.60598123  1
  O  O415  1  0.86718920  0.38071752  0.11346273  1
  O  O416  1  0.86641968  0.37163926  0.61791397  1
  O  O417  1  0.87422835  0.86765044  0.11774292  1
  O  O418  1  0.85922647  0.87082995  0.60944454  1
  O  O419  1  0.11826832  0.13825118  0.38105622  1
  O  O420  1  0.13183785  0.13132705  0.88127265  1
  O  O421  1  0.13177963  0.62884921  0.38215604  1
  O  O422  1  0.13122604  0.63000045  0.88180446  1
  O  O423  1  0.63802252  0.12125685  0.39050618  1
  O  O424  1  0.62691592  0.13245514  0.87880996  1
  O  O425  1  0.64156602  0.62258872  0.37029297  1
  O  O426  1  0.63069717  0.63820730  0.88878236  1
