# generated using pymatgen
data_V85Zn86O256
_symmetry_space_group_name_H-M   'P 1'
_cell_length_a   16.96960117
_cell_length_b   16.97719825
_cell_length_c   16.96912221
_cell_angle_alpha   89.90026126
_cell_angle_beta   90.08624948
_cell_angle_gamma   90.10789753
_symmetry_Int_Tables_number   1
_chemical_formula_structural   V85Zn86O256
_chemical_formula_sum   'V85 Zn86 O256'
_cell_volume   4888.71944984
_cell_formula_units_Z   1
loop_
 _symmetry_equiv_pos_site_id
 _symmetry_equiv_pos_as_xyz
  1  'x, y, z'
loop_
 _atom_site_type_symbol
 _atom_site_label
 _atom_site_symmetry_multiplicity
 _atom_site_fract_x
 _atom_site_fract_y
 _atom_site_fract_z
 _atom_site_occupancy
  V  V0  1  0.86980342  0.13164726  0.74586130  1
  V  V1  1  0.37230900  0.51074239  0.87338782  1
  V  V2  1  0.14148713  0.87714489  0.75402803  1
  V  V3  1  0.74923207  0.12574663  0.87365343  1
  V  V4  1  0.00765127  0.75232704  0.74957456  1
  V  V5  1  -0.00599627  -0.00490905  0.50302531  1
  V  V6  1  0.62398607  0.12863498  0.50345679  1
  V  V7  1  0.62329699  0.87324235  0.25167190  1
  V  V8  1  0.75163849  0.36629359  0.11530731  1
  V  V9  1  0.79726997  -0.05473294  0.69878631  1
  V  V10  1  0.62793346  0.50024947  0.12073513  1
  V  V11  1  0.13093214  0.50825251  0.12452723  1
  V  V12  1  0.86829467  -0.00453956  0.88010752  1
  V  V13  1  0.43909941  0.67865273  0.66597099  1
  V  V14  1  0.75205534  0.75143788  -0.00288183  1
  V  V15  1  0.12396217  0.12875771  0.50241495  1
  V  V16  1  0.62960736  0.12716778  -0.00018256  1
  V  V17  1  0.87571871  0.49614603  0.37336829  1
  V  V18  1  0.25257863  0.87610534  0.13540299  1
  V  V19  1  0.25211362  0.37819058  0.62409754  1
  V  V20  1  0.00042181  0.37533888  0.87627436  1
  V  V21  1  0.74674802  -0.00217151  0.25803091  1
  V  V22  1  -0.00350887  -0.00242255  0.00037918  1
  V  V23  1  0.12520739  0.12255703  0.00101604  1
  V  V24  1  0.25839753  0.37361054  0.12480006  1
  V  V25  1  0.49197053  0.24918351  0.24824036  1
  V  V26  1  0.76333256  0.25865123  0.50285630  1
  V  V27  1  0.23628403  0.63698561  0.88313206  1
  V  V28  1  0.12616896  0.37652109  0.75049690  1
  V  V29  1  0.62770314  0.62511120  -0.00486855  1
  V  V30  1  0.49848251  -0.00328102  -0.00198957  1
  V  V31  1  0.00009962  0.75646193  0.25725974  1
  V  V32  1  -0.00552311  0.25114800  0.24480197  1
  V  V33  1  0.25992151  0.24874309  0.00359045  1
  V  V34  1  0.01803965  0.63995809  0.11382251  1
  V  V35  1  0.62011743  0.25154697  0.37910598  1
  V  V36  1  -0.00543442  0.63445902  0.62065416  1
  V  V37  1  0.62055882  0.00524667  0.63360428  1
  V  V38  1  0.62088344  0.88031057  0.74568439  1
  V  V39  1  0.37505979  0.74408474  0.11900222  1
  V  V40  1  -0.00682499  0.49935972  0.50039957  1
  V  V41  1  0.87507393  0.63068136  0.74970130  1
  V  V42  1  0.50182936  0.74703589  0.25214795  1
  V  V43  1  0.87202619  0.75084630  0.11390907  1
  V  V44  1  0.49683398  0.87012347  0.87187264  1
  V  V45  1  0.24974638  0.51210397  0.75036998  1
  V  V46  1  0.13008565  0.63051960  0.48940661  1
  V  V47  1  0.87894756  0.62639358  0.24231942  1
  V  V48  1  0.36536188  -0.00496495  0.87239776  1
  V  V49  1  0.12619472  0.25025767  0.87638022  1
  V  V50  1  0.75386476  0.62843167  0.37568267  1
  V  V51  1  0.87087612  0.12251432  0.24946145  1
  V  V52  1  0.12539481  0.37666859  0.24839100  1
  V  V53  1  0.00451767  0.87438620  0.87535449  1
  V  V54  1  0.62151961  0.75002079  0.86760718  1
  V  V55  1  0.49428837  0.12953160  0.12293170  1
  V  V56  1  0.50002414  0.25450286  0.75159842  1
  V  V57  1  0.49667062  0.38431715  0.37685004  1
  V  V58  1  0.62497251  0.37325297  0.24894429  1
  V  V59  1  0.75197752  0.87700307  0.12020226  1
  V  V60  1  0.12247701  0.25273492  0.37548856  1
  V  V61  1  0.74511855  0.76901538  0.52289146  1
  V  V62  1  -0.00445157  0.37545138  0.37668185  1
  V  V63  1  0.25020926  0.12217642  0.87511331  1
  V  V64  1  0.24856403  0.12220167  0.36365302  1
  V  V65  1  0.75260256  0.49864933  0.24373904  1
  V  V66  1  0.00522482  0.50102013  0.00144969  1
  V  V67  1  0.49735713  0.37887433  0.86922272  1
  V  V68  1  0.12195382  0.50408021  0.62411963  1
  V  V69  1  0.37799840  0.38563450  0.49466473  1
  V  V70  1  0.63106433  0.25332934  0.87867552  1
  V  V71  1  -0.00186730  0.25064272  0.74398430  1
  V  V72  1  0.25685148  0.49679945  0.26370456  1
  V  V73  1  0.13569429  0.00282620  0.63068186  1
  V  V74  1  0.62377063  0.60823082  0.49652502  1
  V  V75  1  0.76675147  0.37935125  0.62894085  1
  V  V76  1  0.26147320  0.86546923  0.60520363  1
  V  V77  1  0.12773520  0.00082477  0.13602764  1
  V  V78  1  0.49836968  0.12836639  0.62730305  1
  V  V79  1  0.75090355  0.62228690  0.86157378  1
  V  V80  1  0.62111801  0.49541790  0.62797256  1
  V  V81  1  0.49893948  0.50095162  -0.00201129  1
  V  V82  1  0.36945736  0.12535177  0.75080510  1
  V  V83  1  0.37824868  0.61567117  0.26445144  1
  V  V84  1  0.87320831  0.50322615  0.87331592  1
  Zn  Zn85  1  0.36819605  0.12331053  0.24117272  1
  Zn  Zn86  1  0.37696766  0.25881545  0.62485346  1
  Zn  Zn87  1  0.47207956  -0.01419022  0.49502276  1
  Zn  Zn88  1  0.20912960  0.73753898  0.02741835  1
  Zn  Zn89  1  0.15732474  0.77057277  0.39950829  1
  Zn  Zn90  1  0.86769322  -0.00676904  0.38462722  1
  Zn  Zn91  1  0.86928548  0.24325203  0.11344035  1
  Zn  Zn92  1  0.12781044  0.88041735  0.25945522  1
  Zn  Zn93  1  0.37706561  0.37373193  0.00151092  1
  Zn  Zn94  1  0.74757680  0.12881007  0.37530913  1
  Zn  Zn95  1  -0.00386005  0.13096680  0.62365062  1
  Zn  Zn96  1  -0.00588247  0.87083132  0.38460567  1
  Zn  Zn97  1  -0.00325976  0.12310807  0.12413340  1
  Zn  Zn98  1  0.87309202  0.36700556  -0.00548312  1
  Zn  Zn99  1  0.48483021  0.87494536  0.37565807  1
  Zn  Zn100  1  0.62296360  0.74365665  0.38011354  1
  Zn  Zn101  1  0.36048960  0.86529696  -0.00584342  1
  Zn  Zn102  1  0.63446376  0.38077260  0.75110212  1
  Zn  Zn103  1  0.62497227  -0.00076779  0.12264742  1
  Zn  Zn104  1  0.50036897  0.62338424  0.12406409  1
  Zn  Zn105  1  0.32369955  -0.04028326  0.32008706  1
  Zn  Zn106  1  0.25058515  0.25407557  0.49927242  1
  Zn  Zn107  1  0.18197426  0.19161894  0.18441739  1
  Zn  Zn108  1  0.18851653  0.19130919  0.68874365  1
  Zn  Zn109  1  0.20191473  0.69741609  0.22484916  1
  Zn  Zn110  1  0.18573689  0.69089768  0.68278900  1
  Zn  Zn111  1  0.68091963  0.18610105  0.18770797  1
  Zn  Zn112  1  0.68976402  0.19677344  0.68778800  1
  Zn  Zn113  1  0.68810012  0.68497209  0.18585994  1
  Zn  Zn114  1  0.63374338  0.71287734  0.65620262  1
  Zn  Zn115  1  0.31341315  0.30943754  0.31411420  1
  Zn  Zn116  1  0.31317380  0.31783297  0.81407591  1
  Zn  Zn117  1  0.32156461  0.79233757  0.32452375  1
  Zn  Zn118  1  0.32280675  0.79979424  0.79714460  1
  Zn  Zn119  1  0.80931685  0.31156829  0.31014440  1
  Zn  Zn120  1  0.81391279  0.31263204  0.81304778  1
  Zn  Zn121  1  0.81511696  0.81593844  0.31603310  1
  Zn  Zn122  1  0.81925608  0.80603403  0.81668022  1
  Zn  Zn123  1  0.18246330  0.43954317  0.44186600  1
  Zn  Zn124  1  0.18811302  0.43955039  0.93971210  1
  Zn  Zn125  1  0.17923925  0.94338425  0.44072718  1
  Zn  Zn126  1  0.18634365  0.93077942  0.94700664  1
  Zn  Zn127  1  0.69407658  0.43368269  0.43572448  1
  Zn  Zn128  1  0.68833874  0.43929411  0.93401517  1
  Zn  Zn129  1  0.62782872  0.92038498  0.45688492  1
  Zn  Zn130  1  0.68615846  0.93690577  0.93656788  1
  Zn  Zn131  1  0.31451966  0.05707431  0.06227117  1
  Zn  Zn132  1  0.30752012  0.06503771  0.56436589  1
  Zn  Zn133  1  0.31213970  0.56482203  0.06302238  1
  Zn  Zn134  1  0.31237617  0.57024903  0.55316203  1
  Zn  Zn135  1  0.81090284  0.06211423  0.06312243  1
  Zn  Zn136  1  0.80999714  0.07213357  0.56152793  1
  Zn  Zn137  1  0.81754686  0.56316089  0.05505603  1
  Zn  Zn138  1  0.81227169  0.56101264  0.56460927  1
  Zn  Zn139  1  0.43941437  0.43719512  0.18696956  1
  Zn  Zn140  1  0.42115795  0.48108449  0.66726073  1
  Zn  Zn141  1  0.43825069  0.93529356  0.18260242  1
  Zn  Zn142  1  0.43359179  0.94123761  0.68894298  1
  Zn  Zn143  1  0.93864097  0.43821283  0.18256319  1
  Zn  Zn144  1  0.93752857  0.44267748  0.69099854  1
  Zn  Zn145  1  0.93295768  0.93693493  0.18768515  1
  Zn  Zn146  1  0.95864739  0.94172047  0.68771584  1
  Zn  Zn147  1  0.05655936  0.06553980  0.31647471  1
  Zn  Zn148  1  0.06127999  0.06201087  0.81202308  1
  Zn  Zn149  1  0.06217717  0.56392691  0.30756736  1
  Zn  Zn150  1  0.06277879  0.56276640  0.81102260  1
  Zn  Zn151  1  0.55662700  0.06006352  0.31405118  1
  Zn  Zn152  1  0.55783029  0.06404552  0.81498133  1
  Zn  Zn153  1  0.56529765  0.56071823  0.31028917  1
  Zn  Zn154  1  0.56122719  0.56576055  0.80167752  1
  Zn  Zn155  1  0.41514467  0.16437173  0.45929042  1
  Zn  Zn156  1  0.44006796  0.18600506  0.93608060  1
  Zn  Zn157  1  0.44068960  0.68171003  0.44649817  1
  Zn  Zn158  1  0.43663724  0.68558489  0.93420281  1
  Zn  Zn159  1  0.93739050  0.18105684  0.43200215  1
  Zn  Zn160  1  0.93711568  0.18613467  0.93448097  1
  Zn  Zn161  1  0.92420135  0.69090694  0.44200999  1
  Zn  Zn162  1  1.04557362  0.68863605  0.93725958  1
  Zn  Zn163  1  0.06581281  0.31435525  0.06319679  1
  Zn  Zn164  1  0.06026258  0.31755626  0.56213761  1
  Zn  Zn165  1  0.05568850  0.82290570  0.07297827  1
  Zn  Zn166  1  0.06722670  0.81441921  0.56979776  1
  Zn  Zn167  1  0.56308157  0.31264551  0.06087925  1
  Zn  Zn168  1  0.56298094  0.31929560  0.56334935  1
  Zn  Zn169  1  0.56236483  0.81082383  0.06094997  1
  Zn  Zn170  1  0.46975960  0.80682714  0.56083073  1
  O  O171  1  0.12125123  0.11906298  0.11641636  1
  O  O172  1  0.12912775  0.12141810  0.61854086  1
  O  O173  1  0.12946311  0.61058173  0.14245117  1
  O  O174  1  0.11268726  0.62151282  0.61751365  1
  O  O175  1  0.61558786  0.12274895  0.11484842  1
  O  O176  1  0.62047275  0.12493132  0.62608825  1
  O  O177  1  0.62404276  0.61653921  0.11506288  1
  O  O178  1  0.63768446  0.60535420  0.60746776  1
  O  O179  1  0.38176704  0.36821968  0.38580266  1
  O  O180  1  0.38231265  0.38532475  0.88060763  1
  O  O181  1  0.37058791  0.87477919  0.37542885  1
  O  O182  1  0.37892447  0.87603423  0.87196266  1
  O  O183  1  0.87907371  0.38876011  0.36425223  1
  O  O184  1  0.88305506  0.38430265  0.87247950  1
  O  O185  1  0.88085914  0.88226755  0.37329997  1
  O  O186  1  0.88828449  0.88697999  0.86724751  1
  O  O187  1  0.23955448  0.01794975  0.37457367  1
  O  O188  1  0.26061563  0.00098687  0.88496213  1
  O  O189  1  0.24576941  0.49154214  0.36204339  1
  O  O190  1  0.25221990  0.51129739  0.87139469  1
  O  O191  1  0.74609523  0.00394221  0.36039029  1
  O  O192  1  0.76064159  0.00672633  0.88128646  1
  O  O193  1  0.75958045  0.50161073  0.36251401  1
  O  O194  1  0.76040589  0.50880423  0.87784503  1
  O  O195  1  0.24582626  0.49135948  0.12840536  1
  O  O196  1  0.24257015  0.49511530  0.63268100  1
  O  O197  1  0.23866570  0.99033228  0.11591912  1
  O  O198  1  0.24084210  0.99171797  0.62010592  1
  O  O199  1  0.74733965  0.49352679  0.12554110  1
  O  O200  1  0.74738501  0.48321418  0.62002013  1
  O  O201  1  0.74668266  0.99067861  0.12918838  1
  O  O202  1  0.74401085  1.00581538  0.63422971  1
  O  O203  1  0.00297017  0.36904028  0.25420793  1
  O  O204  1  0.00615291  0.37028719  0.75571362  1
  O  O205  1  -0.00336372  0.86347018  0.25046245  1
  O  O206  1  0.01162052  0.86931558  0.75617285  1
  O  O207  1  0.50596247  0.36697493  0.25248511  1
  O  O208  1  0.50144613  0.37094391  0.76295966  1
  O  O209  1  0.50747095  0.86372354  0.24738822  1
  O  O210  1  0.50587731  0.88425468  0.76413839  1
  O  O211  1  0.50509562  0.13322424  0.23986281  1
  O  O212  1  0.48996035  0.13536013  0.74911961  1
  O  O213  1  0.49336036  0.62628949  0.24693602  1
  O  O214  1  0.49427625  0.62296652  0.73333381  1
  O  O215  1  0.98953525  0.13358118  0.24888247  1
  O  O216  1  0.99375094  0.13478461  0.75035070  1
  O  O217  1  0.99530461  0.63423104  0.23890273  1
  O  O218  1  0.99862056  0.63470129  0.74362839  1
  O  O219  1  0.36281938  0.25055320  -0.00587297  1
  O  O220  1  0.36803486  0.26073904  0.50649938  1
  O  O221  1  0.37967606  0.74770370  0.01338528  1
  O  O222  1  0.40657108  0.71423321  0.54932639  1
  O  O223  1  0.88076372  0.25364999  0.00114309  1
  O  O224  1  0.86120240  0.24419449  0.49164810  1
  O  O225  1  0.86868938  0.74740401  0.01259892  1
  O  O226  1  0.84266288  0.74590660  0.49730546  1
  O  O227  1  0.12284513  0.24747904  0.49175569  1
  O  O228  1  0.12916092  0.23822038  0.99620117  1
  O  O229  1  0.11620878  0.73665691  0.50028059  1
  O  O230  1  0.09498872  0.72423199  1.03322517  1
  O  O231  1  0.63357733  0.25099105  0.49384668  1
  O  O232  1  0.61730662  0.24048369  0.98936785  1
  O  O233  1  0.64608377  0.72233395  0.49410581  1
  O  O234  1  0.62966235  0.74383689  0.98805200  1
  O  O235  1  0.50751021  0.24196294  0.13389879  1
  O  O236  1  0.49981763  0.25031796  0.63791152  1
  O  O237  1  0.49285415  0.74707657  0.13028466  1
  O  O238  1  0.52421237  0.74233971  0.63999198  1
  O  O239  1  1.00085392  0.25007200  0.13705605  1
  O  O240  1  1.00691422  0.25126894  0.63968643  1
  O  O241  1  0.98405978  0.75310807  0.13745690  1
  O  O242  1  0.99938493  0.74417077  0.63320168  1
  O  O243  1  0.00537250  0.25289871  0.36513351  1
  O  O244  1  0.00859151  0.25576926  0.86655295  1
  O  O245  1  -0.01119917  0.74652400  0.36111886  1
  O  O246  1  -0.00016950  0.76404696  0.86644328  1
  O  O247  1  0.51210482  0.25789838  0.36587003  1
  O  O248  1  0.50635391  0.25924143  0.87160438  1
  O  O249  1  0.50290654  0.74983697  0.36641765  1
  O  O250  1  0.50762731  0.75818374  0.87833174  1
  O  O251  1  0.23464274  0.13270829  0.48960382  1
  O  O252  1  0.24435206  0.13080429  0.99665875  1
  O  O253  1  0.22952803  0.62232495  0.50006435  1
  O  O254  1  0.24806987  0.63143759  0.98843843  1
  O  O255  1  0.74043273  0.14061920  0.50074230  1
  O  O256  1  0.73560556  0.12084771  0.99498470  1
  O  O257  1  0.74967033  0.61118621  0.48241830  1
  O  O258  1  0.74544203  0.63168705  0.98997480  1
  O  O259  1  0.24968860  0.36589835  0.00692659  1
  O  O260  1  0.25435351  0.37602357  0.50761904  1
  O  O261  1  0.24178906  0.85558145  0.01420642  1
  O  O262  1  0.24344185  0.87255521  0.50641595  1
  O  O263  1  0.74920913  0.37884826  0.01274364  1
  O  O264  1  0.75500423  0.36480706  0.50702289  1
  O  O265  1  0.74288741  0.86471569  0.00750385  1
  O  O266  1  0.72478346  0.86417419  0.49868393  1
  O  O267  1  0.13382511  0.49300386  0.24570320  1
  O  O268  1  0.12949196  0.49515319  0.74481164  1
  O  O269  1  0.11542710  1.00361938  0.23852350  1
  O  O270  1  0.12046543  0.99250995  0.74056345  1
  O  O271  1  0.63117871  0.49308398  0.23904303  1
  O  O272  1  0.62764188  0.49911796  0.73387643  1
  O  O273  1  0.63000430  0.98979850  0.24320786  1
  O  O274  1  0.62216503  1.00029758  0.74400160  1
  O  O275  1  0.38280880  0.01099494  0.24253203  1
  O  O276  1  0.37835877  0.01298269  0.76119900  1
  O  O277  1  0.37321476  0.50720581  0.24953975  1
  O  O278  1  0.35854575  0.49071278  0.76344987  1
  O  O279  1  0.86465243  0.00799800  0.24751215  1
  O  O280  1  0.86888160  0.00400209  0.75464578  1
  O  O281  1  0.87578258  0.51097569  0.25096200  1
  O  O282  1  0.88731492  0.51490622  0.76486475  1
  O  O283  1  0.11697006  0.36933412  0.36959497  1
  O  O284  1  0.11997339  0.37172949  0.87096510  1
  O  O285  1  0.11420690  0.87402397  0.37541036  1
  O  O286  1  0.11472664  0.88558684  0.86744061  1
  O  O287  1  0.62005069  0.36966534  0.36998634  1
  O  O288  1  0.61921090  0.37024824  0.87236305  1
  O  O289  1  0.63396408  0.86077231  0.35472346  1
  O  O290  1  0.61680246  0.87029257  0.86918697  1
  O  O291  1  0.39002355  0.12469655  0.11836108  1
  O  O292  1  0.37660164  0.13398294  0.63848882  1
  O  O293  1  0.38014594  0.62994986  0.12972320  1
  O  O294  1  0.38564905  0.58811440  0.63437884  1
  O  O295  1  0.87596711  0.12630135  0.13513448  1
  O  O296  1  0.87628331  0.12279095  0.64165318  1
  O  O297  1  0.88332093  0.63126137  0.12759575  1
  O  O298  1  0.88612995  0.61715775  0.63507640  1
  O  O299  1  0.24290184  0.25966071  0.11463726  1
  O  O300  1  0.24960273  0.26964295  0.62879644  1
  O  O301  1  0.25850790  0.75384034  0.13418517  1
  O  O302  1  0.24686994  0.76824114  0.62512541  1
  O  O303  1  0.74723948  0.26409039  0.12902839  1
  O  O304  1  0.74897788  0.26253515  0.61065665  1
  O  O305  1  0.75405111  0.75414518  0.11862345  1
  O  O306  1  0.73639950  0.75528287  0.62241283  1
  O  O307  1  0.23252025  0.24723264  0.37290357  1
  O  O308  1  0.24393332  0.24655200  0.88363944  1
  O  O309  1  0.23308218  0.73061325  0.33239331  1
  O  O310  1  0.25559732  0.73412502  0.86876977  1
  O  O311  1  0.73958585  0.25381627  0.38402646  1
  O  O312  1  0.73651295  0.24792038  0.87325470  1
  O  O313  1  0.74819139  0.73087653  0.35778185  1
  O  O314  1  0.74490180  0.74306040  0.88026887  1
  O  O315  1  0.00922980  0.11490668  -0.00129847  1
  O  O316  1  0.01040171  0.12428183  0.50290568  1
  O  O317  1  -0.00718784  0.60763004  0.00376880  1
  O  O318  1  -0.00162428  0.62171301  0.50687050  1
  O  O319  1  0.50748973  0.11807681  0.00249598  1
  O  O320  1  0.51824142  0.14484826  0.51347672  1
  O  O321  1  0.50713621  0.61269655  -0.00414480  1
  O  O322  1  0.52616333  0.61237511  0.48461965  1
  O  O323  1  0.48644847  0.37095744  0.49180884  1
  O  O324  1  0.50164947  0.38579921  0.98945351  1
  O  O325  1  0.51732105  0.88030113  0.49579943  1
  O  O326  1  0.50060044  0.88176874  0.98796084  1
  O  O327  1  1.00320406  0.38727826  0.49079301  1
  O  O328  1  1.00169638  0.38472894  0.99525578  1
  O  O329  1  1.00306573  0.89254387  0.50935470  1
  O  O330  1  1.00674942  0.88951570  0.99108647  1
  O  O331  1  0.50344900  0.48256686  0.36574831  1
  O  O332  1  0.49254703  0.49731782  0.87636441  1
  O  O333  1  0.53103318  0.98389369  0.39002058  1
  O  O334  1  0.48905368  0.99537878  0.88354606  1
  O  O335  1  0.99313871  0.49731919  0.37874615  1
  O  O336  1  0.99774201  0.49544541  0.88270197  1
  O  O337  1  1.00018577  1.00344960  0.39498228  1
  O  O338  1  0.99161898  0.99611412  0.88084220  1
  O  O339  1  0.00554866  -0.00090393  0.11610517  1
  O  O340  1  0.01341483  0.00995013  0.61686256  1
  O  O341  1  0.01091863  0.50617786  0.11874819  1
  O  O342  1  0.00272042  0.50730195  0.61652670  1
  O  O343  1  0.50298625  0.00358493  0.10913218  1
  O  O344  1  0.50545857  0.01205978  0.62422947  1
  O  O345  1  0.50814950  0.49759230  0.11310233  1
  O  O346  1  0.52301387  0.48451481  0.61853813  1
  O  O347  1  0.24807850  0.37757306  0.24239292  1
  O  O348  1  0.24325948  0.38456147  0.74555192  1
  O  O349  1  0.24946608  0.88069594  0.24027967  1
  O  O350  1  0.24274579  0.87045749  0.75078481  1
  O  O351  1  0.74407705  0.38060082  0.23922497  1
  O  O352  1  0.75061711  0.36526194  0.73329300  1
  O  O353  1  0.74445934  0.88108057  0.24054145  1
  O  O354  1  0.74363893  0.88124453  0.76041529  1
  O  O355  1  0.24317473  0.13079774  0.25954746  1
  O  O356  1  0.26160058  0.13378515  0.75911434  1
  O  O357  1  0.27118724  0.60694553  0.24216648  1
  O  O358  1  0.23739247  0.61600637  0.75846443  1
  O  O359  1  0.75321640  0.11742474  0.24774848  1
  O  O360  1  0.75806188  0.13622145  0.75988300  1
  O  O361  1  0.75998127  0.61574075  0.24863154  1
  O  O362  1  0.75967255  0.63061353  0.76026208  1
  O  O363  1  0.34947068  0.14307652  0.36449336  1
  O  O364  1  0.36952367  0.11608664  0.87207206  1
  O  O365  1  0.37969213  0.62670998  0.36297134  1
  O  O366  1  0.36367917  0.61482934  0.87757329  1
  O  O367  1  0.86841152  0.11883842  0.36210571  1
  O  O368  1  0.87130754  0.11436009  0.86521038  1
  O  O369  1  0.87166790  0.61406252  0.36354251  1
  O  O370  1  0.86631389  0.61774250  0.86857867  1
  O  O371  1  0.13429077  0.38354178  0.13161524  1
  O  O372  1  0.13115135  0.38517359  0.62874240  1
  O  O373  1  0.13138440  0.88560829  0.13274340  1
  O  O374  1  0.13620993  0.88477654  0.63360656  1
  O  O375  1  0.63493345  0.38033563  0.12604464  1
  O  O376  1  0.63791406  0.38322783  0.62498184  1
  O  O377  1  0.63475860  0.87151446  0.13252899  1
  O  O378  1  0.62235491  0.88922511  0.64412103  1
  O  O379  1  0.11432877  0.25660641  0.25581435  1
  O  O380  1  0.12044375  0.25687512  0.75776102  1
  O  O381  1  0.10138689  0.75435929  0.24073336  1
  O  O382  1  0.11517018  0.76039777  0.74575389  1
  O  O383  1  0.62077931  0.25619324  0.25881497  1
  O  O384  1  0.61306315  0.25330271  0.75936779  1
  O  O385  1  0.61227533  0.74936150  0.24460200  1
  O  O386  1  0.63077494  0.76389186  0.76382621  1
  O  O387  1  0.38905921  0.24793869  0.24944994  1
  O  O388  1  0.38563072  0.24736215  0.75421565  1
  O  O389  1  0.38794209  0.73489287  0.24084876  1
  O  O390  1  0.38143859  0.73516385  0.72588540  1
  O  O391  1  0.87970872  0.24267016  0.24733191  1
  O  O392  1  0.88693454  0.24220073  0.75888452  1
  O  O393  1  0.87776816  0.73800470  0.24212044  1
  O  O394  1  0.88813614  0.73767664  0.75464401  1
  O  O395  1  0.36828865  0.48452381  0.49462739  1
  O  O396  1  0.38305957  0.49947730  0.99320857  1
  O  O397  1  0.38770807  1.05437183  0.49057466  1
  O  O398  1  0.38133593  0.99075930  0.99133313  1
  O  O399  1  0.88590282  0.50534972  0.48805859  1
  O  O400  1  0.88368546  0.49344026  0.98872248  1
  O  O401  1  0.89045531  1.01306683  0.50433215  1
  O  O402  1  0.88452454  1.00595990  0.99208728  1
  O  O403  1  0.11927809  0.01001740  0.00614515  1
  O  O404  1  0.11599973  0.01193410  0.50968895  1
  O  O405  1  0.11887057  0.49787669  0.01188130  1
  O  O406  1  0.11192329  0.51045358  0.50396696  1
  O  O407  1  0.61500350  0.00791023  -0.00334297  1
  O  O408  1  0.63382774  0.01734765  0.52247811  1
  O  O409  1  0.61861459  0.50549650  0.00033370  1
  O  O410  1  0.63528710  0.50165325  0.50546501  1
  O  O411  1  0.36274715  0.37850223  0.12111076  1
  O  O412  1  0.36757428  0.38314070  0.61514513  1
  O  O413  1  0.36714000  0.86454308  0.12071398  1
  O  O414  1  0.36478521  0.88291186  0.61837870  1
  O  O415  1  0.86016202  0.37464507  0.12450775  1
  O  O416  1  0.86649700  0.37985485  0.62722447  1
  O  O417  1  0.85981951  0.86623031  0.12882778  1
  O  O418  1  0.86082850  0.89210547  0.64560866  1
  O  O419  1  0.12743978  0.13508979  0.38010635  1
  O  O420  1  0.13206010  0.12699613  0.88164702  1
  O  O421  1  0.11417311  0.62354694  0.38996667  1
  O  O422  1  0.13076391  0.62931277  0.87827010  1
  O  O423  1  0.62609147  0.13541365  0.38616981  1
  O  O424  1  0.62748623  0.13307946  0.88041336  1
  O  O425  1  0.63889404  0.61641048  0.37763690  1
  O  O426  1  0.63055635  0.63158518  0.87287476  1
