# generated using pymatgen
data_V85Zn86O256
_symmetry_space_group_name_H-M   'P 1'
_cell_length_a   16.93977067
_cell_length_b   16.94165069
_cell_length_c   16.94319392
_cell_angle_alpha   90.01239543
_cell_angle_beta   90.05514416
_cell_angle_gamma   90.00823065
_symmetry_Int_Tables_number   1
_chemical_formula_structural   V85Zn86O256
_chemical_formula_sum   'V85 Zn86 O256'
_cell_volume   4862.48545792
_cell_formula_units_Z   1
loop_
 _symmetry_equiv_pos_site_id
 _symmetry_equiv_pos_as_xyz
  1  'x, y, z'
loop_
 _atom_site_type_symbol
 _atom_site_label
 _atom_site_symmetry_multiplicity
 _atom_site_fract_x
 _atom_site_fract_y
 _atom_site_fract_z
 _atom_site_occupancy
  V  V0  1  0.37752280  0.50184404  0.37739026  1
  V  V1  1  0.87635628  0.49306411  0.37250160  1
  V  V2  1  0.50771068  0.37800171  0.37761549  1
  V  V3  1  0.24389185  0.74577058  0.49999842  1
  V  V4  1  -0.00403088  0.24599753  0.26039023  1
  V  V5  1  0.12476390  0.37477460  0.74950687  1
  V  V6  1  0.25034235  0.50229258  0.74976272  1
  V  V7  1  0.12367431  0.61885722  0.00204187  1
  V  V8  1  0.23860211  0.62283981  0.37819044  1
  V  V9  1  0.37546267  0.50151832  0.87656605  1
  V  V10  1  0.24931039  0.37605947  0.62440884  1
  V  V11  1  0.12475621  0.00092867  0.62032497  1
  V  V12  1  0.62427014  0.38996496  0.74674306  1
  V  V13  1  0.12191206  0.76447402  0.37219917  1
  V  V14  1  0.74636192  0.37562238  0.62334252  1
  V  V15  1  0.12252539  0.12244642  0.00250711  1
  V  V16  1  0.74905617  0.00307486  0.76287712  1
  V  V17  1  0.50121649  0.74892302  0.25266711  1
  V  V18  1  -0.00374026  0.11974989  0.12343123  1
  V  V19  1  0.38256680  0.87646080  0.50078500  1
  V  V20  1  0.50709202  0.37413379  0.87516192  1
  V  V21  1  0.76126912  0.50454429  0.74576780  1
  V  V22  1  0.00172824  0.76345789  0.25369261  1
  V  V23  1  -0.00221824  0.61991566  0.12645862  1
  V  V24  1  0.87617758  0.86536383  0.50125756  1
  V  V25  1  0.75785955  0.62599801  0.87089419  1
  V  V26  1  0.87964630  0.36880432  0.49972896  1
  V  V27  1  0.25250338  -0.00009144  0.74813110  1
  V  V28  1  0.74652600  0.49790198  0.24168602  1
  V  V29  1  0.74842504  0.87655296  0.12700711  1
  V  V30  1  0.52116651  0.62383250  0.62355449  1
  V  V31  1  0.37391772  0.75402363  0.12072126  1
  V  V32  1  0.87663072  -0.00499442  0.37171609  1
  V  V33  1  0.37459826  0.62534697  0.25011626  1
  V  V34  1  0.62921017  0.61941461  0.00250150  1
  V  V35  1  0.87356610  0.89540341  -0.00253249  1
  V  V36  1  0.75672224  0.12998239  0.38361188  1
  V  V37  1  0.50697610  0.24985128  0.75102107  1
  V  V38  1  0.24753971  0.49665071  0.24989216  1
  V  V39  1  0.51717038  0.50622869  0.50282930  1
  V  V40  1  0.00192198  0.50152517  0.49538317  1
  V  V41  1  0.25084799  0.87357510  0.62271771  1
  V  V42  1  0.38934497  0.87400726  -0.00434638  1
  V  V43  1  0.37509174  0.37587559  0.00017287  1
  V  V44  1  0.20318793  0.81036478  0.05542569  1
  V  V45  1  0.24529899  -0.01894122  0.24519971  1
  V  V46  1  0.37590369  0.74380774  0.62622048  1
  V  V47  1  0.12038030  0.87461216  0.74915281  1
  V  V48  1  0.12311678  0.75065969  0.87112090  1
  V  V49  1  0.87235092  0.74925096  0.12887489  1
  V  V50  1  0.38060479  -0.00227068  0.37579525  1
  V  V51  1  0.12402817  0.13201184  0.49113291  1
  V  V52  1  0.74707821  0.62173162  0.38100287  1
  V  V53  1  0.75119151  0.87331225  0.62624269  1
  V  V54  1  -0.01895128  0.63059569  0.62616269  1
  V  V55  1  0.62508690  0.37297650  0.24114110  1
  V  V56  1  0.50480589  0.62031550  0.12596714  1
  V  V57  1  0.00338813  0.38264631  0.88017677  1
  V  V58  1  0.37448125  0.25066069  0.62527900  1
  V  V59  1  0.25156743  0.12600563  0.87610399  1
  V  V60  1  0.62588580  0.74608246  0.38628299  1
  V  V61  1  0.49850660  0.11995168  0.11433823  1
  V  V62  1  0.37726632  0.12402910  0.74764487  1
  V  V63  1  0.11829022  0.49085349  0.12245760  1
  V  V64  1  0.63052948  0.13389891  -0.01244805  1
  V  V65  1  0.11958658  0.36802941  0.26667383  1
  V  V66  1  0.62120368  0.00086569  0.11600695  1
  V  V67  1  0.75179057  0.75069578  0.00005183  1
  V  V68  1  0.50627684  0.75458444  0.75572695  1
  V  V69  1  0.62384547  0.01074671  0.61000125  1
  V  V70  1  0.74970390  0.00908534  0.25136911  1
  V  V71  1  0.87140559  0.24876825  0.12350154  1
  V  V72  1  0.00101881  -0.00744015  0.49247435  1
  V  V73  1  0.12413005  0.51248505  0.62085613  1
  V  V74  1  0.87570139  0.37992385  -0.00045833  1
  V  V75  1  0.56800258  0.19024367  0.43438883  1
  V  V76  1  0.38816661  -0.00563920  0.87710221  1
  V  V77  1  0.62374392  0.87411306  0.25161396  1
  V  V78  1  0.36938334  0.11988278  0.24394029  1
  V  V79  1  0.00012482  0.24992777  0.74791626  1
  V  V80  1  0.50306456  0.24721033  0.24966128  1
  V  V81  1  0.37334453  0.24944526  0.12261003  1
  V  V82  1  0.24992861  0.62827698  0.87926411  1
  V  V83  1  0.87771011  0.11753439  0.76236010  1
  V  V84  1  0.50347485  0.50108361  0.00202895  1
  Zn  Zn85  1  0.74466304  0.37218382  0.11634845  1
  Zn  Zn86  1  0.62123425  0.75578058  0.87798572  1
  Zn  Zn87  1  0.88335736  0.50694375  0.87619421  1
  Zn  Zn88  1  0.37651260  0.38019753  0.50233370  1
  Zn  Zn89  1  0.23973424  0.25718581  0.49387844  1
  Zn  Zn90  1  0.50667888  0.87681468  0.38492418  1
  Zn  Zn91  1  0.61955352  0.88283698  0.75400106  1
  Zn  Zn92  1  0.24279039  0.12793329  0.36719732  1
  Zn  Zn93  1  0.24706129  0.37305967  0.12383162  1
  Zn  Zn94  1  0.87565689  0.62390112  0.25242431  1
  Zn  Zn95  1  0.87056047  0.24307659  0.62550574  1
  Zn  Zn96  1  0.12665044  0.25067364  0.87665932  1
  Zn  Zn97  1  0.37785829  0.62606748  0.75165200  1
  Zn  Zn98  1  -0.00197492  0.12444976  0.62297864  1
  Zn  Zn99  1  -0.01526073  0.88970938  0.87105421  1
  Zn  Zn100  1  0.50339271  0.12349446  0.61265983  1
  Zn  Zn101  1  0.74954205  0.25013943  -0.03872662  1
  Zn  Zn102  1  0.25015169  0.25105394  -0.00157356  1
  Zn  Zn103  1  0.12423889  -0.01047502  0.12907280  1
  Zn  Zn104  1  -0.01262097  0.74950504  0.74825140  1
  Zn  Zn105  1  0.74336533  0.24482202  0.50914256  1
  Zn  Zn106  1  0.75054965  0.74284263  0.50949492  1
  Zn  Zn107  1  0.18488560  0.18843307  0.18625497  1
  Zn  Zn108  1  0.18638056  0.18694503  0.68503721  1
  Zn  Zn109  1  0.18207741  0.68324092  0.19457500  1
  Zn  Zn110  1  0.18712132  0.68804447  0.69027588  1
  Zn  Zn111  1  0.68524681  0.18720978  0.18897694  1
  Zn  Zn112  1  0.71076922  0.21246874  0.74410520  1
  Zn  Zn113  1  0.68758073  0.68464571  0.19190270  1
  Zn  Zn114  1  0.80856211  0.69365077  0.69280722  1
  Zn  Zn115  1  0.31273711  0.31515588  0.30953705  1
  Zn  Zn116  1  0.31617754  0.31327029  0.81129649  1
  Zn  Zn117  1  0.31414922  0.80952556  0.31565116  1
  Zn  Zn118  1  0.31235034  0.81261817  0.81301199  1
  Zn  Zn119  1  0.81300789  0.31102542  0.31136850  1
  Zn  Zn120  1  0.82186056  0.31952158  0.80986258  1
  Zn  Zn121  1  0.81111829  0.81211094  0.31501012  1
  Zn  Zn122  1  0.80761472  0.81938252  0.81762226  1
  Zn  Zn123  1  0.18694292  0.43944161  0.44044883  1
  Zn  Zn124  1  0.18748188  0.43835243  0.93925214  1
  Zn  Zn125  1  0.19551947  0.94056396  0.43474239  1
  Zn  Zn126  1  0.15656699  0.95818156  0.92023153  1
  Zn  Zn127  1  0.69116439  0.43125806  0.43366877  1
  Zn  Zn128  1  0.69193204  0.43910634  0.93514279  1
  Zn  Zn129  1  0.69152579  0.93585993  0.43900739  1
  Zn  Zn130  1  0.68023667  0.93590542  0.93581242  1
  Zn  Zn131  1  0.30733920  0.05353290  0.05784655  1
  Zn  Zn132  1  0.31174022  0.06472169  0.55856616  1
  Zn  Zn133  1  0.30910897  0.56322293  0.06401854  1
  Zn  Zn134  1  0.31453663  0.56287041  0.55987468  1
  Zn  Zn135  1  0.80547864  0.07149527  0.06469364  1
  Zn  Zn136  1  0.81421921  0.05949276  0.56726749  1
  Zn  Zn137  1  0.81432684  0.56025748  0.06242336  1
  Zn  Zn138  1  0.80836182  0.55453347  0.55748948  1
  Zn  Zn139  1  0.43842886  0.43667849  0.18908358  1
  Zn  Zn140  1  0.43828292  0.44380108  0.68729375  1
  Zn  Zn141  1  0.43740142  0.93516394  0.18477760  1
  Zn  Zn142  1  0.44058859  0.93860547  0.68342262  1
  Zn  Zn143  1  0.93769122  0.43154641  0.18849048  1
  Zn  Zn144  1  0.93771758  0.43642691  0.68358841  1
  Zn  Zn145  1  0.93291091  0.94010781  0.18602211  1
  Zn  Zn146  1  0.93668516  0.93810950  0.68445265  1
  Zn  Zn147  1  0.06090171  0.05989787  0.30819968  1
  Zn  Zn148  1  0.06098483  0.06385009  0.81291183  1
  Zn  Zn149  1  0.05941481  0.56164468  0.30933527  1
  Zn  Zn150  1  0.06189831  0.56389797  0.80673610  1
  Zn  Zn151  1  0.55795631  0.05776734  0.30508526  1
  Zn  Zn152  1  0.56404456  0.06249929  0.80620630  1
  Zn  Zn153  1  0.56704445  0.56097139  0.31157284  1
  Zn  Zn154  1  0.56687122  0.57045460  0.81329005  1
  Zn  Zn155  1  0.39393658  0.20465796  0.42125097  1
  Zn  Zn156  1  0.43892697  0.18666149  0.93470751  1
  Zn  Zn157  1  0.43775072  0.68724978  0.44048070  1
  Zn  Zn158  1  0.43546607  0.68894172  0.94085387  1
  Zn  Zn159  1  0.93466838  0.18175230  0.44012353  1
  Zn  Zn160  1  0.94014273  0.19350301  0.93915760  1
  Zn  Zn161  1  0.94015179  0.68134739  0.43495669  1
  Zn  Zn162  1  0.93833132  0.69377596  0.93842928  1
  Zn  Zn163  1  0.05963197  0.30544177  0.06254946  1
  Zn  Zn164  1  0.06050599  0.31521681  0.56368774  1
  Zn  Zn165  1  0.04145449  0.80869677  0.05911074  1
  Zn  Zn166  1  0.06196323  0.81012869  0.55920757  1
  Zn  Zn167  1  0.56110546  0.30819887  0.06146194  1
  Zn  Zn168  1  0.55956453  0.31964208  0.57039274  1
  Zn  Zn169  1  0.56362691  0.80788447  0.06360454  1
  Zn  Zn170  1  0.56712749  0.81453924  0.57232738  1
  O  O171  1  0.11249825  0.12896625  0.11987899  1
  O  O172  1  0.12334100  0.11542630  0.61436089  1
  O  O173  1  0.11980632  0.61422149  0.12086350  1
  O  O174  1  0.12563987  0.61388607  0.62486350  1
  O  O175  1  0.61666419  0.11892504  0.11973051  1
  O  O176  1  0.62435960  0.11143514  0.61873469  1
  O  O177  1  0.61473971  0.62897775  0.11897505  1
  O  O178  1  0.61574055  0.62744130  0.62273861  1
  O  O179  1  0.38825851  0.38449322  0.37339849  1
  O  O180  1  0.38315884  0.38276286  0.88027229  1
  O  O181  1  0.37729637  0.87848666  0.38418639  1
  O  O182  1  0.37006885  0.88236024  0.88290449  1
  O  O183  1  0.86789396  0.38467532  0.38411756  1
  O  O184  1  0.88671741  0.37954277  0.88161773  1
  O  O185  1  0.86522736  0.88803150  0.38421215  1
  O  O186  1  0.86980712  0.88103403  0.89283794  1
  O  O187  1  0.26103991  0.00248879  0.36091171  1
  O  O188  1  0.25260745  0.01233812  0.86621692  1
  O  O189  1  0.25715458  0.50494470  0.37229345  1
  O  O190  1  0.25289852  0.50974827  0.87137721  1
  O  O191  1  0.75263546  0.00869613  0.36993135  1
  O  O192  1  0.74630033  0.00123770  0.86110601  1
  O  O193  1  0.75599500  0.50380154  0.36729829  1
  O  O194  1  0.75397485  0.50929894  0.86596803  1
  O  O195  1  0.24019206  0.49786534  0.13375640  1
  O  O196  1  0.24427386  0.49540336  0.62680829  1
  O  O197  1  0.25052938  0.99940800  0.14203106  1
  O  O198  1  0.24125302  0.99472654  0.62513226  1
  O  O199  1  0.75452678  0.49553014  0.13836278  1
  O  O200  1  0.75337992  0.48861543  0.63216347  1
  O  O201  1  0.74160164  0.99908489  0.13475617  1
  O  O202  1  0.74072392  0.99296249  0.62811655  1
  O  O203  1  0.01200151  0.36286668  0.24939067  1
  O  O204  1  0.00533629  0.36893203  0.75369207  1
  O  O205  1  -0.00295763  0.86272504  0.24258552  1
  O  O206  1  0.00836646  0.87345703  0.75095818  1
  O  O207  1  0.50536106  0.36931032  0.25715067  1
  O  O208  1  0.50534769  0.37588970  0.75581572  1
  O  O209  1  0.51210043  0.86893686  0.24871681  1
  O  O210  1  0.49741093  0.85776029  0.74284463  1
  O  O211  1  0.48948350  0.12745817  0.23808614  1
  O  O212  1  0.49411814  0.13639680  0.74895159  1
  O  O213  1  0.49536431  0.62709958  0.24340058  1
  O  O214  1  0.49892929  0.63004181  0.73729275  1
  O  O215  1  1.00706498  0.13846762  0.23842346  1
  O  O216  1  0.99521056  0.13022432  0.74824121  1
  O  O217  1  0.99860508  0.63064386  0.23807705  1
  O  O218  1  1.00118469  0.62479774  0.73019624  1
  O  O219  1  0.37641637  0.25698824  0.00672536  1
  O  O220  1  0.37727239  0.26008894  0.51882996  1
  O  O221  1  0.37258727  0.75622685  0.00849729  1
  O  O222  1  0.36511430  0.75533580  0.50563026  1
  O  O223  1  0.86941274  0.25794022  0.00540775  1
  O  O224  1  0.87225575  0.25535250  0.50365984  1
  O  O225  1  0.86334879  0.75350114  0.00886783  1
  O  O226  1  0.87645913  0.76270295  0.49027498  1
  O  O227  1  0.12123346  0.23612343  0.50321138  1
  O  O228  1  0.13096637  0.23960701  0.99854708  1
  O  O229  1  0.13777543  0.75166519  0.49383874  1
  O  O230  1  0.13380882  0.75009787  0.99689061  1
  O  O231  1  0.62250081  0.25124741  0.49672551  1
  O  O232  1  0.62661955  0.23802556  1.00002689  1
  O  O233  1  0.62668876  0.75711319  0.48869029  1
  O  O234  1  0.63642680  0.74019971  1.00343604  1
  O  O235  1  0.48936039  0.24160713  0.12839116  1
  O  O236  1  0.49209883  0.24901159  0.63359031  1
  O  O237  1  0.49249135  0.73919989  0.13095309  1
  O  O238  1  0.49433114  0.73947109  0.63045999  1
  O  O239  1  0.98950238  0.24202143  0.13182615  1
  O  O240  1  1.00062577  0.24951774  0.63801093  1
  O  O241  1  0.99214987  0.74048947  0.13442095  1
  O  O242  1  1.00246973  0.73197524  0.62054959  1
  O  O243  1  -0.00635395  0.24025848  0.35941788  1
  O  O244  1  0.00336505  0.26097875  0.86325926  1
  O  O245  1  0.01077644  0.74193388  0.36650439  1
  O  O246  1  0.01492216  0.75823068  0.87890881  1
  O  O247  1  0.49988839  0.25311521  0.37547888  1
  O  O248  1  0.49021162  0.26304768  0.86371822  1
  O  O249  1  0.50725350  0.75030832  0.36959425  1
  O  O250  1  0.49798207  0.73850349  0.85891611  1
  O  O251  1  0.23430120  0.12614857  0.49732987  1
  O  O252  1  0.24868620  0.12896434  0.99045303  1
  O  O253  1  0.25543582  0.63315380  0.48945702  1
  O  O254  1  0.23565202  0.62177612  0.99355476  1
  O  O255  1  0.75098320  0.12571294  0.48796321  1
  O  O256  1  0.73545486  0.13377886  0.99996170  1
  O  O257  1  0.75344968  0.62560600  0.48650976  1
  O  O258  1  0.74450823  0.63037421  0.99897840  1
  O  O259  1  0.26136573  0.37339852  0.00127367  1
  O  O260  1  0.25263632  0.37573574  0.51099645  1
  O  O261  1  0.25659451  0.87150932  -0.00119448  1
  O  O262  1  0.25927657  0.86674715  0.50437645  1
  O  O263  1  0.75614769  0.36711649  -0.00204794  1
  O  O264  1  0.75634195  0.36950351  0.50678809  1
  O  O265  1  0.75442235  0.86860135  0.00737951  1
  O  O266  1  0.75910961  0.87169297  0.50793006  1
  O  O267  1  0.12517612  0.48573185  0.24475228  1
  O  O268  1  0.13094107  0.49430053  0.74042326  1
  O  O269  1  0.14036138  0.99941917  0.24890156  1
  O  O270  1  0.13217291  0.99331851  0.73725888  1
  O  O271  1  0.63459206  0.48844688  0.25352698  1
  O  O272  1  0.63270890  0.49375550  0.75591667  1
  O  O273  1  0.62978129  0.99172372  0.24185562  1
  O  O274  1  0.63993327  1.00471625  0.74309025  1
  O  O275  1  0.36703627  0.00285134  0.25146277  1
  O  O276  1  0.36937698  0.00330850  0.75276134  1
  O  O277  1  0.37049716  0.50347017  0.25999195  1
  O  O278  1  0.36843124  0.50429530  0.75815715  1
  O  O279  1  0.86074718  -0.00596180  0.25760632  1
  O  O280  1  0.87040051  0.00959470  0.75005051  1
  O  O281  1  0.86870831  0.49610983  0.25758885  1
  O  O282  1  0.86479030  0.49568144  0.75291006  1
  O  O283  1  0.12780013  0.37386097  0.36505259  1
  O  O284  1  0.12135496  0.37369634  0.86887032  1
  O  O285  1  0.13035899  0.86345268  0.37911459  1
  O  O286  1  0.14550736  0.86096848  0.85669176  1
  O  O287  1  0.61255674  0.37601236  0.36561570  1
  O  O288  1  0.61141386  0.38209033  0.86993959  1
  O  O289  1  0.62558750  0.86830129  0.36713493  1
  O  O290  1  0.62696759  0.86881611  0.86714659  1
  O  O291  1  0.37990513  0.12787279  0.12480112  1
  O  O292  1  0.37831315  0.13261707  0.62805988  1
  O  O293  1  0.37902588  0.63480399  0.12889811  1
  O  O294  1  0.37401071  0.63694303  0.62577915  1
  O  O295  1  0.88763754  0.13107799  0.12066319  1
  O  O296  1  0.88099029  0.12452516  0.63486566  1
  O  O297  1  0.88270597  0.62900500  0.12630923  1
  O  O298  1  0.87723729  0.62472992  0.62303277  1
  O  O299  1  0.26348274  0.25093771  0.12491187  1
  O  O300  1  0.25539762  0.25978785  0.62403097  1
  O  O301  1  0.25358559  0.74866881  0.12424360  1
  O  O302  1  0.25546677  0.75216670  0.61827810  1
  O  O303  1  0.76641950  0.24881109  0.13588675  1
  O  O304  1  0.74973386  0.26404190  0.63340806  1
  O  O305  1  0.75347699  0.75448594  0.12214389  1
  O  O306  1  0.74862532  0.76678107  0.62567370  1
  O  O307  1  0.28127573  0.23888484  0.38671353  1
  O  O308  1  0.25325289  0.23741678  0.87197955  1
  O  O309  1  0.24424671  0.74155180  0.38056213  1
  O  O310  1  0.24073477  0.73465375  0.86779338  1
  O  O311  1  0.75366188  0.23241702  0.37436120  1
  O  O312  1  0.74482024  0.25025053  0.84834889  1
  O  O313  1  0.74218384  0.73930574  0.37501447  1
  O  O314  1  0.74801557  0.74345872  0.88676156  1
  O  O315  1  0.00767015  0.13091391  0.01276646  1
  O  O316  1  0.00961044  0.11289495  0.50050668  1
  O  O317  1  0.01392002  0.63639770  0.01243799  1
  O  O318  1  -0.00647548  0.61285290  0.51328284  1
  O  O319  1  0.50760856  0.12946465  0.00984046  1
  O  O320  1  0.50064984  0.14038676  0.48879057  1
  O  O321  1  0.50864688  0.62267631  0.00697590  1
  O  O322  1  0.49789892  0.62068561  0.51370313  1
  O  O323  1  0.49916422  0.38612196  0.49419469  1
  O  O324  1  0.49556441  0.37982776  0.99388259  1
  O  O325  1  0.48609516  0.86596090  0.50370124  1
  O  O326  1  0.48939774  0.86803468  1.00107784  1
  O  O327  1  0.98803832  0.38386621  0.50560476  1
  O  O328  1  0.99284025  0.36720263  0.98939157  1
  O  O329  1  0.99424843  0.88518692  0.50281685  1
  O  O330  1  0.97680342  0.87801997  1.00154467  1
  O  O331  1  0.49517102  0.49648926  0.37997622  1
  O  O332  1  0.49486021  0.49786151  0.88193258  1
  O  O333  1  0.48613607  0.99246104  0.36663943  1
  O  O334  1  0.48666776  1.00161260  0.86624538  1
  O  O335  1  0.99130543  0.50558701  0.38397540  1
  O  O336  1  1.00226164  0.48801833  0.86859053  1
  O  O337  1  0.98956286  1.00280218  0.37910172  1
  O  O338  1  1.04731097  0.98162019  0.88412052  1
  O  O339  1  0.00395686  0.01546348  0.13485158  1
  O  O340  1  0.01378550  -0.00170400  0.61614228  1
  O  O341  1  0.00680027  0.50700539  0.13053713  1
  O  O342  1  0.00521915  0.50933620  0.61918109  1
  O  O343  1  0.50853251  0.00815296  0.12920540  1
  O  O344  1  0.51602447  0.00447444  0.63002276  1
  O  O345  1  0.49241538  0.51286990  0.11969692  1
  O  O346  1  0.49691656  0.51477965  0.61688379  1
  O  O347  1  0.23734863  0.37780443  0.24809659  1
  O  O348  1  0.24578446  0.38105095  0.74292049  1
  O  O349  1  0.25329272  0.88245396  0.25062676  1
  O  O350  1  0.24545597  0.87924131  0.73939809  1
  O  O351  1  0.74032445  0.37956832  0.25032060  1
  O  O352  1  0.74279202  0.38662908  0.74377200  1
  O  O353  1  0.73875261  0.88141005  0.24645615  1
  O  O354  1  0.75439080  0.89226192  0.74315459  1
  O  O355  1  0.26079458  0.12395946  0.24765914  1
  O  O356  1  0.25698963  0.12029380  0.75292118  1
  O  O357  1  0.25538383  0.61656782  0.25737137  1
  O  O358  1  0.25011834  0.61821776  0.75924714  1
  O  O359  1  0.73958991  0.11385443  0.26273489  1
  O  O360  1  0.76690547  0.11218428  0.74538278  1
  O  O361  1  0.75171428  0.61429769  0.25871562  1
  O  O362  1  0.74916634  0.61799454  0.75937716  1
  O  O363  1  0.37755095  0.11137585  0.35869085  1
  O  O364  1  0.36988031  0.11731130  0.86869961  1
  O  O365  1  0.36937415  0.61909260  0.36883765  1
  O  O366  1  0.36494341  0.61981038  0.87777204  1
  O  O367  1  0.86265085  0.11265951  0.37689688  1
  O  O368  1  0.88564706  0.12536746  0.86164964  1
  O  O369  1  0.86766129  0.61122817  0.37272881  1
  O  O370  1  0.86315620  0.62351590  0.88770190  1
  O  O371  1  0.12381951  0.38230042  0.12592930  1
  O  O372  1  0.13323230  0.38332740  0.62935747  1
  O  O373  1  0.13360858  0.86678801  0.10585485  1
  O  O374  1  0.12933262  0.87816150  0.63166264  1
  O  O375  1  0.62400964  0.37104632  0.13581081  1
  O  O376  1  0.63151364  0.38001957  0.63471769  1
  O  O377  1  0.62865794  0.88148052  0.12955127  1
  O  O378  1  0.63365187  0.88471191  0.63326549  1
  O  O379  1  0.11588829  0.26146263  0.24688990  1
  O  O380  1  0.11939863  0.25675384  0.75048550  1
  O  O381  1  0.11579961  0.74876496  0.25944165  1
  O  O382  1  0.11790006  0.75556386  0.75519807  1
  O  O383  1  0.61533317  0.25708475  0.24873862  1
  O  O384  1  0.60989888  0.26735852  0.74575565  1
  O  O385  1  0.62071678  0.75718260  0.25674036  1
  O  O386  1  0.60690496  0.74937218  0.74981494  1
  O  O387  1  0.38173085  0.24169306  0.24113048  1
  O  O388  1  0.38251322  0.24711399  0.74039880  1
  O  O389  1  0.38059048  0.74496650  0.24372962  1
  O  O390  1  0.38043115  0.74740419  0.74099210  1
  O  O391  1  0.89023866  0.25834532  0.24260629  1
  O  O392  1  0.88535329  0.23890121  0.74713004  1
  O  O393  1  0.87991953  0.74778813  0.24617675  1
  O  O394  1  0.87567076  0.75235792  0.75985052  1
  O  O395  1  0.38233913  0.50101712  0.48772267  1
  O  O396  1  0.38090514  0.49541448  0.99718413  1
  O  O397  1  0.36814548  0.99026984  0.48918390  1
  O  O398  1  0.37281525  0.98804342  0.98948128  1
  O  O399  1  0.88157673  0.49063074  0.49227286  1
  O  O400  1  0.87200183  0.48446244  0.99889670  1
  O  O401  1  0.88426576  0.99412646  0.49229128  1
  O  O402  1  0.86580052  0.99328523  1.00662156  1
  O  O403  1  0.14132925  0.01919985  0.01600375  1
  O  O404  1  0.12127780  0.00412116  0.50209397  1
  O  O405  1  0.12492372  0.50692927  0.00997503  1
  O  O406  1  0.11232616  0.49407624  0.50750127  1
  O  O407  1  0.63170928  0.01004666  0.01189824  1
  O  O408  1  0.62479740  -0.00574922  0.51076811  1
  O  O409  1  0.62168424  0.51186208  -0.00206647  1
  O  O410  1  0.61569466  0.49893860  0.49099541  1
  O  O411  1  0.37596169  0.36609822  0.11962899  1
  O  O412  1  0.36496709  0.37207357  0.62887726  1
  O  O413  1  0.37831165  0.86131952  0.11799482  1
  O  O414  1  0.37039424  0.86519693  0.61925731  1
  O  O415  1  0.87473351  0.36680636  0.11575316  1
  O  O416  1  0.86752204  0.37260021  0.61537292  1
  O  O417  1  0.86569666  0.87118854  0.11775488  1
  O  O418  1  0.86619579  0.88398335  0.61235243  1
  O  O419  1  0.12525892  0.12015463  0.38719735  1
  O  O420  1  0.13440986  0.12872620  0.88257491  1
  O  O421  1  0.13644077  0.62648578  0.36994443  1
  O  O422  1  0.12651142  0.63006013  0.88270126  1
  O  O423  1  0.62512155  0.12535039  0.37763513  1
  O  O424  1  0.61629640  0.12130300  0.89028786  1
  O  O425  1  0.63345822  0.63455567  0.36941287  1
  O  O426  1  0.63692625  0.63066324  0.88579070  1
