# generated using pymatgen
data_V85Zn86O256
_symmetry_space_group_name_H-M   'P 1'
_cell_length_a   16.94876282
_cell_length_b   16.94999619
_cell_length_c   16.96767537
_cell_angle_alpha   89.91670285
_cell_angle_beta   89.86756226
_cell_angle_gamma   89.95467143
_symmetry_Int_Tables_number   1
_chemical_formula_structural   V85Zn86O256
_chemical_formula_sum   'V85 Zn86 O256'
_cell_volume   4874.47895680
_cell_formula_units_Z   1
loop_
 _symmetry_equiv_pos_site_id
 _symmetry_equiv_pos_as_xyz
  1  'x, y, z'
loop_
 _atom_site_type_symbol
 _atom_site_label
 _atom_site_symmetry_multiplicity
 _atom_site_fract_x
 _atom_site_fract_y
 _atom_site_fract_z
 _atom_site_occupancy
  V  V0  1  0.12780936  0.75289832  0.86740942  1
  V  V1  1  0.12216575  -0.00687063  0.62646910  1
  V  V2  1  0.62986813  0.62744059  0.50290486  1
  V  V3  1  0.62686898  0.25781665  0.37297588  1
  V  V4  1  0.49564664  -0.00173526  0.50464829  1
  V  V5  1  0.36439499  0.87091601  0.00181236  1
  V  V6  1  0.87764505  0.12123108  0.25923270  1
  V  V7  1  0.49659521  0.74549089  0.25029155  1
  V  V8  1  0.24859223  0.87252326  0.62970615  1
  V  V9  1  0.76237585  0.62912705  0.86286681  1
  V  V10  1  0.74307511  0.74115027  0.00059881  1
  V  V11  1  0.00156765  0.12295838  0.12739717  1
  V  V12  1  0.12505011  0.62035968  0.49588121  1
  V  V13  1  0.49518052  0.00066561  0.00036851  1
  V  V14  1  0.50024182  0.49805298  0.50035121  1
  V  V15  1  0.25154291  0.13040597  0.86732792  1
  V  V16  1  0.13000211  0.12488920  0.49371379  1
  V  V17  1  0.74602487  0.36867612  0.12778911  1
  V  V18  1  0.36697113  0.00434342  0.37896216  1
  V  V19  1  0.00111202  0.12724143  0.62815344  1
  V  V20  1  0.38153817  0.37643549  -0.00648343  1
  V  V21  1  0.49073815  0.87368669  0.38267481  1
  V  V22  1  0.62301420  0.12767118  0.50556358  1
  V  V23  1  0.11905394  0.76794163  0.37212539  1
  V  V24  1  0.00170477  0.74748577  0.74704238  1
  V  V25  1  0.62124602  0.74188293  0.87847476  1
  V  V26  1  0.75125598  0.12144323  0.37705653  1
  V  V27  1  0.74916599  0.37391189  0.62746564  1
  V  V28  1  0.49151021  0.62122002  0.62955069  1
  V  V29  1  0.50672758  0.50860845  -0.00157510  1
  V  V30  1  0.23774974  -0.00151081  0.75209489  1
  V  V31  1  0.62461595  0.74992996  0.38046230  1
  V  V32  1  -0.00168250  0.39092762  0.37552726  1
  V  V33  1  0.12498236  0.50173442  0.12142466  1
  V  V34  1  0.75550787  0.24881352  0.49974795  1
  V  V35  1  0.25361668  0.75232418  0.49883637  1
  V  V36  1  0.75837389  0.61584379  0.38082637  1
  V  V37  1  0.80213300  0.80481677  0.45442818  1
  V  V38  1  0.87412612  0.74667495  0.11936709  1
  V  V39  1  0.62531325  0.49567491  0.63290176  1
  V  V40  1  0.49741873  0.87538560  0.87306744  1
  V  V41  1  0.49317090  0.74560934  0.75051604  1
  V  V42  1  0.75380007  0.87365895  0.62689999  1
  V  V43  1  0.24751595  0.25146365  -0.00626781  1
  V  V44  1  0.37669365  0.25046807  0.12415873  1
  V  V45  1  0.75571710  0.00232867  0.75985161  1
  V  V46  1  0.74367060  0.87652599  0.11721039  1
  V  V47  1  0.37367655  0.50204968  0.37345786  1
  V  V48  1  0.36508730  0.12712426  0.25828712  1
  V  V49  1  0.12376883  0.12777457  -0.00537077  1
  V  V50  1  0.00123073  0.25014503  0.25564901  1
  V  V51  1  0.87031292  0.74752920  0.63155554  1
  V  V52  1  0.00031427  0.62524684  0.12191500  1
  V  V53  1  0.88046836  0.24939513  0.62892749  1
  V  V54  1  0.74658036  0.49180682  0.25458594  1
  V  V55  1  0.37409596  0.75340664  0.62432756  1
  V  V56  1  0.87618104  0.61624150  0.24974555  1
  V  V57  1  -0.00537629  0.00005634  -0.00922912  1
  V  V58  1  0.86661982  0.87951712  -0.01081305  1
  V  V59  1  0.49797169  0.12338381  0.12687284  1
  V  V60  1  -0.00984240  -0.00891952  0.49804418  1
  V  V61  1  0.62060674  0.87412717  0.25275890  1
  V  V62  1  0.62657535  0.50899594  0.12725337  1
  V  V63  1  0.74932549  -0.00035722  0.25293055  1
  V  V64  1  0.25138192  0.62387725  0.87291592  1
  V  V65  1  0.48187859  0.13400074  0.63411530  1
  V  V66  1  0.87463991  0.12331620  0.76008663  1
  V  V67  1  0.11581181  0.36247957  0.75964319  1
  V  V68  1  0.25388391  0.36374606  0.62568007  1
  V  V69  1  0.13015510  -0.01420274  0.12601296  1
  V  V70  1  0.38103082  0.50163384  0.86929370  1
  V  V71  1  0.74506828  0.23988793  -0.00895809  1
  V  V72  1  0.25186816  0.37634134  0.12286109  1
  V  V73  1  0.37270083  0.00222497  0.86537368  1
  V  V74  1  0.61759142  0.00019362  0.12765538  1
  V  V75  1  0.37660006  0.36926032  0.50295982  1
  V  V76  1  0.62421520  0.87649143  0.75022751  1
  V  V77  1  0.50358463  0.26014078  0.76396214  1
  V  V78  1  0.12357279  0.49512880  0.62020988  1
  V  V79  1  0.00192396  0.88017430  0.86591175  1
  V  V80  1  0.25292016  0.49988412  0.74723764  1
  V  V81  1  0.88188996  0.38740829  0.49739324  1
  V  V82  1  0.12799240  0.37392642  0.24953395  1
  V  V83  1  -0.00260754  0.62035177  0.62229043  1
  V  V84  1  0.50386540  0.25645964  0.24999768  1
  Zn  Zn85  1  0.25197832  0.50182977  0.24926928  1
  Zn  Zn86  1  0.26184793  0.24010173  0.49512422  1
  Zn  Zn87  1  0.36364501  0.74906849  0.13068433  1
  Zn  Zn88  1  0.50166051  0.63116268  0.11863680  1
  Zn  Zn89  1  -0.06327635  0.31378871  0.81794806  1
  Zn  Zn90  1  0.75388783  0.50184490  0.74941068  1
  Zn  Zn91  1  0.24875747  0.62552289  0.37247748  1
  Zn  Zn92  1  0.88568060  0.49126106  0.86482002  1
  Zn  Zn93  1  0.23954054  -0.01003484  0.25525818  1
  Zn  Zn94  1  0.24113554  0.75095744  0.00587116  1
  Zn  Zn95  1  0.92788319  -0.05719363  0.34161934  1
  Zn  Zn96  1  0.61771549  0.13924611  -0.02050892  1
  Zn  Zn97  1  0.87488774  0.37114447  -0.00980953  1
  Zn  Zn98  1  0.87592180  0.25308856  0.12746024  1
  Zn  Zn99  1  0.62481780  0.00230906  0.62671531  1
  Zn  Zn100  1  0.50542781  0.38024836  0.36860842  1
  Zn  Zn101  1  0.54222079  0.36939769  0.87832255  1
  Zn  Zn102  1  0.00644473  0.76226329  0.24844288  1
  Zn  Zn103  1  -0.00266326  0.48617539  -0.00903180  1
  Zn  Zn104  1  0.13487638  0.24810136  0.37377866  1
  Zn  Zn105  1  0.37099963  0.62248453  0.24362847  1
  Zn  Zn106  1  0.12146923  0.62247436  -0.00719377  1
  Zn  Zn107  1  0.18812042  0.18562989  0.18347877  1
  Zn  Zn108  1  0.19208464  0.18421741  0.68116819  1
  Zn  Zn109  1  0.19025659  0.68903370  0.18936806  1
  Zn  Zn110  1  0.18512459  0.68279647  0.68921961  1
  Zn  Zn111  1  0.68434186  0.18345362  0.18898671  1
  Zn  Zn112  1  0.68837328  0.18880161  0.69083686  1
  Zn  Zn113  1  0.68887753  0.68619453  0.19308600  1
  Zn  Zn114  1  0.68211653  0.69084261  0.68580330  1
  Zn  Zn115  1  0.31381895  0.31524396  0.31661532  1
  Zn  Zn116  1  0.32077896  0.31106822  0.80668651  1
  Zn  Zn117  1  0.30912483  0.81289485  0.31365093  1
  Zn  Zn118  1  0.31167401  0.81414420  0.81123114  1
  Zn  Zn119  1  0.81650592  0.31226569  0.31371009  1
  Zn  Zn120  1  0.74831059  0.33535098  0.83702470  1
  Zn  Zn121  1  0.83479743  0.82458016  0.28061147  1
  Zn  Zn122  1  0.81297041  0.81188099  0.81164060  1
  Zn  Zn123  1  0.19058545  0.43260781  0.43693347  1
  Zn  Zn124  1  0.18729948  0.43816465  0.93579277  1
  Zn  Zn125  1  0.18860325  0.93749453  0.44602976  1
  Zn  Zn126  1  0.18112736  0.94053659  0.93587464  1
  Zn  Zn127  1  0.69021289  0.43740310  0.44486868  1
  Zn  Zn128  1  0.69802873  0.44927305  0.95012707  1
  Zn  Zn129  1  0.67795802  0.94375172  0.43608558  1
  Zn  Zn130  1  0.67462572  0.96438658  0.92620348  1
  Zn  Zn131  1  0.31135702  0.06169810  0.06037948  1
  Zn  Zn132  1  0.31195084  0.05834046  0.56380106  1
  Zn  Zn133  1  0.31433374  0.56684199  0.06107413  1
  Zn  Zn134  1  0.31117255  0.56080280  0.56161539  1
  Zn  Zn135  1  0.81287274  0.06404307  0.06658917  1
  Zn  Zn136  1  0.81271340  0.06054527  0.56706636  1
  Zn  Zn137  1  0.81647353  0.55593570  0.05781291  1
  Zn  Zn138  1  0.81453594  0.56275191  0.56647481  1
  Zn  Zn139  1  0.43966134  0.43974974  0.18405049  1
  Zn  Zn140  1  0.43909811  0.42786658  0.69083576  1
  Zn  Zn141  1  0.40473048  0.92235475  0.20402003  1
  Zn  Zn142  1  0.43434496  0.93879579  0.68618079  1
  Zn  Zn143  1  0.93755043  0.43647373  0.18072641  1
  Zn  Zn144  1  0.93438391  0.44249363  0.68742272  1
  Zn  Zn145  1  0.93540250  0.93690866  0.17187816  1
  Zn  Zn146  1  0.93611957  0.93695117  0.68468160  1
  Zn  Zn147  1  0.06866907  0.06014934  0.31247604  1
  Zn  Zn148  1  0.06365016  0.17940898  0.81047637  1
  Zn  Zn149  1  0.06517621  0.56562478  0.30628702  1
  Zn  Zn150  1  0.06360654  0.56011533  0.80626769  1
  Zn  Zn151  1  0.55666626  0.06631882  0.31524347  1
  Zn  Zn152  1  0.56383256  0.06569706  0.80890136  1
  Zn  Zn153  1  0.56778506  0.56301695  0.31428895  1
  Zn  Zn154  1  0.56473396  0.56157505  0.81313206  1
  Zn  Zn155  1  0.44181525  0.18699713  0.43719386  1
  Zn  Zn156  1  0.43570385  0.18778397  0.93385437  1
  Zn  Zn157  1  0.43680687  0.68473517  0.43990492  1
  Zn  Zn158  1  0.43263802  0.68488640  0.93543003  1
  Zn  Zn159  1  0.94364119  0.18784915  0.44074777  1
  Zn  Zn160  1  0.93099977  0.18929016  0.94397835  1
  Zn  Zn161  1  0.94427702  0.68011945  0.43559195  1
  Zn  Zn162  1  0.94039906  0.68802625  0.93700670  1
  Zn  Zn163  1  0.06103418  0.31003245  0.06161490  1
  Zn  Zn164  1  0.06285780  0.31257037  0.56147675  1
  Zn  Zn165  1  0.05956152  0.80927477  0.05401980  1
  Zn  Zn166  1  0.06349851  0.81100143  0.55971659  1
  Zn  Zn167  1  0.56689824  0.31930386  0.06489492  1
  Zn  Zn168  1  0.56249424  0.30997480  0.56535772  1
  Zn  Zn169  1  0.55661034  0.81551129  0.06194600  1
  Zn  Zn170  1  0.56321149  0.81229492  0.56465962  1
  O  O171  1  0.11528572  0.11931823  0.11649575  1
  O  O172  1  0.11865744  0.11393342  0.62098183  1
  O  O173  1  0.11695681  0.61655622  0.12495811  1
  O  O174  1  0.12105509  0.61669293  0.61567326  1
  O  O175  1  0.60968369  0.11601688  0.13001777  1
  O  O176  1  0.62451610  0.12428355  0.61296105  1
  O  O177  1  0.62433756  0.61392486  0.13030571  1
  O  O178  1  0.61567816  0.62033258  0.61832580  1
  O  O179  1  0.38223198  0.38717536  0.38376058  1
  O  O180  1  0.36895885  0.38540241  0.88656408  1
  O  O181  1  0.38763868  0.88291797  0.38166121  1
  O  O182  1  0.37832359  0.88219348  0.88009894  1
  O  O183  1  0.88677580  0.36812152  0.38513925  1
  O  O184  1  0.85507291  0.37084553  0.87066836  1
  O  O185  1  0.85163368  0.86678743  0.39029567  1
  O  O186  1  0.88348709  0.86689123  0.88458848  1
  O  O187  1  0.26345353  -0.00471473  0.37828806  1
  O  O188  1  0.25114092  0.00624586  0.86756768  1
  O  O189  1  0.26089328  0.49915172  0.37398233  1
  O  O190  1  0.25654808  0.50498705  0.86705986  1
  O  O191  1  0.74131540  0.00862982  0.36633159  1
  O  O192  1  0.76485254  -0.01880807  0.85649968  1
  O  O193  1  0.74538247  0.50603800  0.36916066  1
  O  O194  1  0.74897164  0.52539256  0.87561435  1
  O  O195  1  0.24349512  0.49296476  0.12251117  1
  O  O196  1  0.24498779  0.49303914  0.63184630  1
  O  O197  1  0.23158359  1.00240074  0.11848686  1
  O  O198  1  0.24489597  0.99113202  0.63064216  1
  O  O199  1  0.74416039  0.49372393  0.13187247  1
  O  O200  1  0.74096904  0.49266813  0.62106255  1
  O  O201  1  0.73737902  0.99725494  0.13197758  1
  O  O202  1  0.74773378  0.98781964  0.63001757  1
  O  O203  1  0.00589553  0.36723819  0.25336987  1
  O  O204  1  0.01223991  0.37256219  0.74506481  1
  O  O205  1  -0.04894624  0.86491427  0.25918765  1
  O  O206  1  -0.00668543  0.86887059  0.75987125  1
  O  O207  1  0.49585527  0.36079312  0.24870193  1
  O  O208  1  0.50823380  0.36560431  0.75722674  1
  O  O209  1  0.50056865  0.86435753  0.26209509  1
  O  O210  1  0.50563923  0.86965106  0.75250374  1
  O  O211  1  0.49265177  0.13758069  0.24413796  1
  O  O212  1  0.49785105  0.12098282  0.73601336  1
  O  O213  1  0.50341276  0.63860345  0.25504941  1
  O  O214  1  0.50507568  0.63322107  0.74083334  1
  O  O215  1  0.99702346  0.12821201  0.24745699  1
  O  O216  1  0.99099266  0.12220560  0.73596841  1
  O  O217  1  0.99161350  0.62902596  0.24035157  1
  O  O218  1  1.00941969  0.63917935  0.73451122  1
  O  O219  1  0.37005308  0.25754843  0.00421453  1
  O  O220  1  0.38183277  0.26561176  0.49617392  1
  O  O221  1  0.37167996  0.76387328  -0.00845631  1
  O  O222  1  0.36250285  0.74460385  0.50811436  1
  O  O223  1  0.85772707  0.24708773  0.01083706  1
  O  O224  1  0.87085284  0.25112826  0.50886404  1
  O  O225  1  0.86419456  0.75764017  0.00268210  1
  O  O226  1  0.87250914  0.74969723  0.50531819  1
  O  O227  1  0.12272966  0.23213864  0.50155871  1
  O  O228  1  0.13818028  0.24096569  1.00910937  1
  O  O229  1  0.13311463  0.74306391  0.49169320  1
  O  O230  1  0.12359183  0.74601596  0.98169603  1
  O  O231  1  0.63248785  0.24377614  0.49481363  1
  O  O232  1  0.63767334  0.24890638  1.00872776  1
  O  O233  1  0.61816286  0.73494998  0.49755138  1
  O  O234  1  0.63092184  0.76034953  0.98933232  1
  O  O235  1  0.49668212  0.24478028  0.12976362  1
  O  O236  1  0.50097770  0.23661605  0.62841847  1
  O  O237  1  0.50010514  0.75014428  0.13743494  1
  O  O238  1  0.49227085  0.74341355  0.63011193  1
  O  O239  1  1.00079912  0.23862504  0.13867720  1
  O  O240  1  0.99204432  0.24014302  0.61864850  1
  O  O241  1  0.99330855  0.74505517  0.12753047  1
  O  O242  1  0.99423741  0.74742483  0.62982853  1
  O  O243  1  0.00845498  0.25161072  0.36368905  1
  O  O244  1  0.00066671  0.24346908  0.87639335  1
  O  O245  1  0.01579730  0.75015302  0.37729897  1
  O  O246  1  0.00614851  0.75453689  0.86397681  1
  O  O247  1  0.50931932  0.25260418  0.36755476  1
  O  O248  1  0.50489391  0.25365393  0.87107602  1
  O  O249  1  0.50375373  0.75657250  0.37532773  1
  O  O250  1  0.50340929  0.75332204  0.86802759  1
  O  O251  1  0.23427976  0.12351864  0.51005483  1
  O  O252  1  0.24332962  0.13191865  0.99284370  1
  O  O253  1  0.24178668  0.63364608  0.50046712  1
  O  O254  1  0.24771658  0.62353547  0.98238343  1
  O  O255  1  0.74372193  0.12750858  0.49583306  1
  O  O256  1  0.74166305  0.13880555  1.01938656  1
  O  O257  1  0.74217236  0.61817285  0.49328950  1
  O  O258  1  0.75239574  0.63902829  0.99172072  1
  O  O259  1  0.25580649  0.36782363  0.00250241  1
  O  O260  1  0.26088369  0.37641404  0.50999093  1
  O  O261  1  0.26187686  0.87576393  -0.00964938  1
  O  O262  1  0.24622388  0.86450042  0.51629243  1
  O  O263  1  0.75143487  0.36161923  0.01623852  1
  O  O264  1  0.76147012  0.36771000  0.50577390  1
  O  O265  1  0.75223280  0.87226279  0.00071531  1
  O  O266  1  0.73878017  0.86917779  0.50691045  1
  O  O267  1  0.12594922  0.49146245  0.23748127  1
  O  O268  1  0.13309345  0.48868338  0.73804597  1
  O  O269  1  0.12480974  1.00004297  0.23348580  1
  O  O270  1  0.13625853  1.00101523  0.74034975  1
  O  O271  1  0.63539630  0.50136462  0.24419348  1
  O  O272  1  0.63102880  0.50682845  0.73547158  1
  O  O273  1  0.62365470  0.99543135  0.24424165  1
  O  O274  1  0.63475243  0.99083905  0.74509872  1
  O  O275  1  0.39276598  0.01769162  0.26799139  1
  O  O276  1  0.36231781  -0.00618372  0.76052079  1
  O  O277  1  0.37820669  0.49994122  0.26005160  1
  O  O278  1  0.36740792  0.49040138  0.75875940  1
  O  O279  1  0.87097261  0.00611282  0.25342112  1
  O  O280  1  0.87009948  0.01503170  0.73887784  1
  O  O281  1  0.86579638  0.51045105  0.24410066  1
  O  O282  1  0.86714813  0.50163390  0.75153140  1
  O  O283  1  0.11908174  0.37664545  0.36175084  1
  O  O284  1  0.13026915  0.37686027  0.85628619  1
  O  O285  1  0.12737414  0.86684995  0.37753584  1
  O  O286  1  0.11279614  0.86760655  0.87789697  1
  O  O287  1  0.62501615  0.36168187  0.38404446  1
  O  O288  1  0.65214466  0.38347467  0.87298026  1
  O  O289  1  0.61556322  0.86884469  0.37166346  1
  O  O290  1  0.61832106  0.87045262  0.86305420  1
  O  O291  1  0.38310540  0.12873976  0.13020024  1
  O  O292  1  0.38374073  0.12627567  0.62262967  1
  O  O293  1  0.38346637  0.62864501  0.12554591  1
  O  O294  1  0.38571931  0.63256122  0.62073485  1
  O  O295  1  0.88814013  0.12230927  0.13839981  1
  O  O296  1  0.88363554  0.13219352  0.62566883  1
  O  O297  1  0.88082658  0.62561666  0.12774756  1
  O  O298  1  0.88524417  0.63500119  0.61875439  1
  O  O299  1  0.25853348  0.25457312  0.11575286  1
  O  O300  1  0.25032044  0.26057049  0.61840269  1
  O  O301  1  0.25045006  0.74807578  0.11776478  1
  O  O302  1  0.25504469  0.75270415  0.62375537  1
  O  O303  1  0.74811231  0.26266292  0.13711742  1
  O  O304  1  0.75710718  0.25448223  0.61816405  1
  O  O305  1  0.74935573  0.75427628  0.11579744  1
  O  O306  1  0.75818675  0.75638129  0.62739684  1
  O  O307  1  0.24715179  0.25741160  0.38372500  1
  O  O308  1  0.25923366  0.24337486  0.88389094  1
  O  O309  1  0.24159210  0.75055679  0.38404703  1
  O  O310  1  0.24374613  0.74151806  0.86968841  1
  O  O311  1  0.74455752  0.24257457  0.37881338  1
  O  O312  1  0.74779018  0.23310779  0.89271211  1
  O  O313  1  0.74872438  0.74533115  0.38741327  1
  O  O314  1  0.74055789  0.74589554  0.87922591  1
  O  O315  1  0.00408568  0.11893407  0.00845745  1
  O  O316  1  0.01014446  0.11650033  0.51006346  1
  O  O317  1  0.00111093  0.62854098  0.01385308  1
  O  O318  1  0.01096631  0.62873393  0.51243625  1
  O  O319  1  0.49991227  0.11943431  0.00878505  1
  O  O320  1  0.50602520  0.12108614  0.51116411  1
  O  O321  1  0.49859886  0.61271468  -0.00332722  1
  O  O322  1  0.50560762  0.61418378  0.50792038  1
  O  O323  1  0.49616037  0.38697166  0.50336772  1
  O  O324  1  0.49600890  0.38293643  0.99459015  1
  O  O325  1  0.50751516  0.88587997  0.49567626  1
  O  O326  1  0.49080113  0.88092623  0.98866081  1
  O  O327  1  0.99484005  0.37033883  0.48753000  1
  O  O328  1  0.98735704  0.37391152  1.01453674  1
  O  O329  1  1.00221073  0.89156538  0.50505441  1
  O  O330  1  0.98866512  0.88060830  0.99083371  1
  O  O331  1  0.49841086  0.49944444  0.38489986  1
  O  O332  1  0.49671444  0.49605031  0.87950419  1
  O  O333  1  0.49643770  0.99357581  0.38603210  1
  O  O334  1  0.48656705  0.99444570  0.87584552  1
  O  O335  1  1.00077500  0.48978944  0.36663547  1
  O  O336  1  0.99809737  0.51440925  0.88061866  1
  O  O337  1  1.00522423  1.00403655  0.39116179  1
  O  O338  1  1.00322711  0.99172048  0.88859970  1
  O  O339  1  0.00758921  0.00587630  0.11555601  1
  O  O340  1  0.00670676  0.00428085  0.61808919  1
  O  O341  1  0.00816584  0.50880183  0.12427964  1
  O  O342  1  0.01082183  0.50919935  0.62833180  1
  O  O343  1  0.50016375  0.00815231  0.12492976  1
  O  O344  1  0.49966181  0.00888749  0.61996647  1
  O  O345  1  0.50994979  0.50119914  0.11673051  1
  O  O346  1  0.50482536  0.50490213  0.62202665  1
  O  O347  1  0.24350143  0.37702644  0.24177081  1
  O  O348  1  0.24488618  0.37955513  0.74272818  1
  O  O349  1  0.29644851  0.89480559  0.24077906  1
  O  O350  1  0.25059300  0.88103419  0.73850275  1
  O  O351  1  0.75347441  0.38562956  0.24772078  1
  O  O352  1  0.75097515  0.37395961  0.72879048  1
  O  O353  1  0.74297438  0.88165691  0.23979735  1
  O  O354  1  0.74359299  0.87652302  0.74239996  1
  O  O355  1  0.26312348  0.11700993  0.24273765  1
  O  O356  1  0.24587386  0.11841276  0.76051215  1
  O  O357  1  0.25220337  0.61896693  0.25600437  1
  O  O358  1  0.24636926  0.60850332  0.75603615  1
  O  O359  1  0.75912187  0.11904817  0.25454301  1
  O  O360  1  0.76427809  0.11649496  0.74309146  1
  O  O361  1  0.75436500  0.61415296  0.26087351  1
  O  O362  1  0.74597413  0.63216331  0.76112168  1
  O  O363  1  0.37782552  0.11949601  0.36996335  1
  O  O364  1  0.36273319  0.11324845  0.88295665  1
  O  O365  1  0.37431128  0.61113284  0.37823603  1
  O  O366  1  0.36920392  0.61015673  0.87386722  1
  O  O367  1  0.87240024  0.12983507  0.36542701  1
  O  O368  1  0.87990978  0.12364740  0.85806389  1
  O  O369  1  0.86553775  0.62942240  0.36749070  1
  O  O370  1  0.86198445  0.63892465  0.87041523  1
  O  O371  1  0.13005571  0.37980606  0.13444160  1
  O  O372  1  0.13280210  0.37922012  0.62892315  1
  O  O373  1  0.11651523  0.88762030  0.11744072  1
  O  O374  1  0.13064918  0.88529866  0.62245084  1
  O  O375  1  0.63925077  0.38711950  0.12787055  1
  O  O376  1  0.63484470  0.38546599  0.61262735  1
  O  O377  1  0.62508867  0.87969178  0.13528205  1
  O  O378  1  0.63234584  0.87175593  0.63675177  1
  O  O379  1  0.12076400  0.25681227  0.24865530  1
  O  O380  1  0.12787255  0.25769341  0.74739755  1
  O  O381  1  0.12362654  0.74853330  0.26841424  1
  O  O382  1  0.11806774  0.75088458  0.75750000  1
  O  O383  1  0.61648672  0.24313338  0.26175580  1
  O  O384  1  0.60408542  0.23589167  0.74848107  1
  O  O385  1  0.62098794  0.75546899  0.26110475  1
  O  O386  1  0.61274931  0.75728862  0.75573796  1
  O  O387  1  0.38062963  0.24454130  0.24469054  1
  O  O388  1  0.39973728  0.25014218  0.75281102  1
  O  O389  1  0.38486110  0.74448895  0.25374180  1
  O  O390  1  0.38647149  0.75229993  0.74396045  1
  O  O391  1  0.88499715  0.24120305  0.24912391  1
  O  O392  1  0.87558481  0.23739799  0.73661118  1
  O  O393  1  0.86383986  0.72772472  0.23344501  1
  O  O394  1  0.88443029  0.75283729  0.73849244  1
  O  O395  1  0.38365143  0.49417088  0.49571528  1
  O  O396  1  0.38457137  0.49307230  0.99289715  1
  O  O397  1  0.38701827  1.00582479  0.49380944  1
  O  O398  1  0.37682706  0.99072722  0.99130517  1
  O  O399  1  0.87508205  0.48657542  0.50373551  1
  O  O400  1  0.87391977  0.49256271  0.98684951  1
  O  O401  1  0.89038368  1.00342779  0.50262747  1
  O  O402  1  0.88131689  0.99154635  1.00702059  1
  O  O403  1  0.11642496  0.00856518  0.00699494  1
  O  O404  1  0.11973357  0.00861251  0.50853227  1
  O  O405  1  0.12396056  0.49966497  0.01114119  1
  O  O406  1  0.13350604  0.50505095  0.51184868  1
  O  O407  1  0.61130852  -0.01485226  0.02194506  1
  O  O408  1  0.61264774  0.00984742  0.50377782  1
  O  O409  1  0.61803629  0.50000669  0.01320483  1
  O  O410  1  0.61780461  0.50941429  0.50714180  1
  O  O411  1  0.37234494  0.37241084  0.11182350  1
  O  O412  1  0.36595309  0.38143567  0.61601019  1
  O  O413  1  0.38490653  0.87082536  0.10239441  1
  O  O414  1  0.36852541  0.86086766  0.62747076  1
  O  O415  1  0.85634533  0.37416100  0.13060935  1
  O  O416  1  0.87321440  0.36603453  0.61642260  1
  O  O417  1  0.86288126  0.86778067  0.11027505  1
  O  O418  1  0.86251853  0.86590239  0.62501729  1
  O  O419  1  0.12520896  0.12311407  0.39072369  1
  O  O420  1  0.13511766  0.12519016  0.88782490  1
  O  O421  1  0.12459990  0.62264603  0.38808597  1
  O  O422  1  0.13512159  0.63265031  0.87070927  1
  O  O423  1  0.62690000  0.13334657  0.38751275  1
  O  O424  1  0.63334952  0.07148827  0.89342902  1
  O  O425  1  0.63726999  0.63074189  0.38314513  1
  O  O426  1  0.62965717  0.63965554  0.87221055  1
