# generated using pymatgen
data_V85Zn86O256
_symmetry_space_group_name_H-M   'P 1'
_cell_length_a   16.93780915
_cell_length_b   16.95252402
_cell_length_c   16.95473216
_cell_angle_alpha   90.06612264
_cell_angle_beta   89.97529390
_cell_angle_gamma   89.97821829
_symmetry_Int_Tables_number   1
_chemical_formula_structural   V85Zn86O256
_chemical_formula_sum   'V85 Zn86 O256'
_cell_volume   4868.35428665
_cell_formula_units_Z   1
loop_
 _symmetry_equiv_pos_site_id
 _symmetry_equiv_pos_as_xyz
  1  'x, y, z'
loop_
 _atom_site_type_symbol
 _atom_site_label
 _atom_site_symmetry_multiplicity
 _atom_site_fract_x
 _atom_site_fract_y
 _atom_site_fract_z
 _atom_site_occupancy
  V  V0  1  0.37717858  0.25176284  0.12433420  1
  V  V1  1  0.26501574  0.50613873  0.75059053  1
  V  V2  1  0.49945867  0.62712372  0.62305590  1
  V  V3  1  0.86068441  0.87112277  0.50368682  1
  V  V4  1  0.63972392  0.74892488  0.37659079  1
  V  V5  1  0.62937717  0.37437924  0.24921220  1
  V  V6  1  0.12293938  0.74752988  0.37505905  1
  V  V7  1  0.49786845  0.50065690  -0.02112976  1
  V  V8  1  0.74413030  0.12428992  0.88048335  1
  V  V9  1  0.74922755  0.00009852  0.73964831  1
  V  V10  1  0.12305752  0.36633140  0.24887605  1
  V  V11  1  0.24485874  0.49601562  0.24841252  1
  V  V12  1  -0.01068340  0.12360571  0.63452255  1
  V  V13  1  -0.00280808  0.62646435  0.63073578  1
  V  V14  1  0.12499848  0.62509054  0.50098526  1
  V  V15  1  0.63078081  0.75572920  0.87753122  1
  V  V16  1  0.74912920  0.87365142  0.12099030  1
  V  V17  1  0.00022316  -0.00393709  0.50570851  1
  V  V18  1  0.12691396  -0.00465778  0.64248207  1
  V  V19  1  0.86259222  0.75110210  0.62646317  1
  V  V20  1  0.50274091  -0.00105598  0.49363138  1
  V  V21  1  0.75622684  0.49104533  0.74402391  1
  V  V22  1  0.87089301  0.00551495  0.87219885  1
  V  V23  1  0.49936728  0.75106119  0.25659069  1
  V  V24  1  0.12494305  0.87371265  0.24883528  1
  V  V25  1  0.87474947  0.38005396  -0.01312304  1
  V  V26  1  0.50126436  0.12354109  0.12634124  1
  V  V27  1  0.24766401  0.37722075  0.62738218  1
  V  V28  1  0.37365869  0.88385328  0.48687225  1
  V  V29  1  0.49598855  0.25602353  0.75887353  1
  V  V30  1  0.23948361  0.24964808  0.50413568  1
  V  V31  1  0.50308088  -0.00039814  -0.00040282  1
  V  V32  1  0.25031332  0.25062599  0.00277297  1
  V  V33  1  0.63096956  0.25359472  0.38957987  1
  V  V34  1  0.62809435  0.12227789  0.51189235  1
  V  V35  1  0.26501635  0.62750807  0.86863813  1
  V  V36  1  0.12489719  0.49872738  0.62795704  1
  V  V37  1  0.87265873  0.87098104  -0.00249560  1
  V  V38  1  0.37265859  0.49645553  0.37200295  1
  V  V39  1  0.50427272  0.24973721  0.24960398  1
  V  V40  1  0.00528888  0.87669125  0.86872016  1
  V  V41  1  0.12755318  0.50021689  0.11099970  1
  V  V42  1  0.24865008  0.87779771  0.63893862  1
  V  V43  1  -0.00160779  0.87228415  0.37765043  1
  V  V44  1  0.12212115  0.12511801  0.50297999  1
  V  V45  1  0.87950085  0.25117843  0.11355021  1
  V  V46  1  0.37380092  -0.00129833  0.87116254  1
  V  V47  1  0.37614496  0.62434823  0.24782323  1
  V  V48  1  0.87108046  0.74639004  0.12134352  1
  V  V49  1  0.00297283  0.75270159  0.74628472  1
  V  V50  1  0.12016601  0.25354122  0.87759344  1
  V  V51  1  0.37580519  0.75074227  0.62525687  1
  V  V52  1  0.75314607  0.50850987  0.25055718  1
  V  V53  1  0.87603003  0.00006015  0.37423674  1
  V  V54  1  0.00296576  0.62183396  0.11355065  1
  V  V55  1  0.12523744  0.74710560  0.87380633  1
  V  V56  1  0.24838952  0.62356585  0.37472996  1
  V  V57  1  0.49973473  0.75043836  0.74925968  1
  V  V58  1  0.49933429  0.50508486  0.49793136  1
  V  V59  1  0.37274267  0.37405405  0.49958079  1
  V  V60  1  0.75848192  0.62899567  0.86438747  1
  V  V61  1  0.49963737  0.37505219  0.37829130  1
  V  V62  1  0.25143019  0.75144925  0.50161557  1
  V  V63  1  0.63366383  0.62951216  -0.00230953  1
  V  V64  1  -0.00419579  0.49936721  0.49678993  1
  V  V65  1  -0.00156189  0.00155638  0.00388932  1
  V  V66  1  0.24580440  0.74481201  0.00140142  1
  V  V67  1  -0.00819443  0.24781355  0.75337686  1
  V  V68  1  0.75037062  0.13027235  0.37680392  1
  V  V69  1  0.62756290  0.87972359  0.72983436  1
  V  V70  1  0.11961665  0.37907987  0.75744209  1
  V  V71  1  0.37760119  0.24795609  0.62631937  1
  V  V72  1  0.12508896  -0.00032641  0.12658573  1
  V  V73  1  0.62059009  0.87637753  0.25344352  1
  V  V74  1  0.37654756  0.87132876  0.00057785  1
  V  V75  1  -0.00068613  0.74575995  0.24757859  1
  V  V76  1  0.63959744  0.62916523  0.49678108  1
  V  V77  1  0.24582447  0.11725639  0.87653714  1
  V  V78  1  0.62305155  0.49944891  0.12090212  1
  V  V79  1  0.36705699  0.12192178  0.75035121  1
  V  V80  1  0.75134480  0.00159244  0.24976745  1
  V  V81  1  0.12028873  0.12454300  0.00811050  1
  V  V82  1  -0.00575744  0.37034345  0.36973726  1
  V  V83  1  0.62343576  0.25946655  0.88249527  1
  V  V84  1  0.88991984  0.13405911  0.24474029  1
  Zn  Zn85  1  0.01288032  0.49020353  -0.01387658  1
  Zn  Zn86  1  0.62956670  0.49652165  0.62274383  1
  Zn  Zn87  1  0.62160165  0.37726478  0.74753706  1
  Zn  Zn88  1  0.85063112  0.36842724  0.50592900  1
  Zn  Zn89  1  0.25522534  -0.00245146  0.26287102  1
  Zn  Zn90  1  0.50425617  0.87663946  0.87267999  1
  Zn  Zn91  1  0.50164620  0.62549968  0.12231175  1
  Zn  Zn92  1  0.11956582  0.24587041  0.37037643  1
  Zn  Zn93  1  0.62624600  0.00107911  0.12579569  1
  Zn  Zn94  1  0.50138461  0.11668210  0.63108835  1
  Zn  Zn95  1  0.85267172  0.25374935  0.62468948  1
  Zn  Zn96  1  0.25109358  0.87349504  0.12485534  1
  Zn  Zn97  1  0.37703176  0.11174739  0.26009134  1
  Zn  Zn98  1  0.25431052  0.37309028  0.13001734  1
  Zn  Zn99  1  0.62870920  0.13076609  0.00428623  1
  Zn  Zn100  1  0.37714074  0.74910279  0.12396924  1
  Zn  Zn101  1  0.25897259  0.11556842  0.38126022  1
  Zn  Zn102  1  0.86957093  0.50656305  0.37935378  1
  Zn  Zn103  1  0.74842126  0.36616906  0.11742878  1
  Zn  Zn104  1  0.87331708  0.62759773  0.25465046  1
  Zn  Zn105  1  0.88553757  0.50636019  0.86758874  1
  Zn  Zn106  1  0.38647789  0.37720828  -0.00988545  1
  Zn  Zn107  1  0.19090060  0.18133650  0.19061654  1
  Zn  Zn108  1  0.18203896  0.18671312  0.68861249  1
  Zn  Zn109  1  0.18682636  0.68422027  0.18354020  1
  Zn  Zn110  1  0.18619842  0.68986991  0.69118682  1
  Zn  Zn111  1  0.69203197  0.18878979  0.18882022  1
  Zn  Zn112  1  0.68403746  0.18279297  0.69899095  1
  Zn  Zn113  1  0.68610393  0.68943105  0.18433436  1
  Zn  Zn114  1  0.68245374  0.68459798  0.68886607  1
  Zn  Zn115  1  0.32543496  0.27849691  0.32763733  1
  Zn  Zn116  1  0.30854179  0.31226271  0.81486279  1
  Zn  Zn117  1  0.30887559  0.81153169  0.31066782  1
  Zn  Zn118  1  0.31709344  0.81125398  0.81403560  1
  Zn  Zn119  1  0.81346880  0.31419448  0.31130588  1
  Zn  Zn120  1  0.80695381  0.30903309  0.81305315  1
  Zn  Zn121  1  0.81341469  0.81399437  0.30876589  1
  Zn  Zn122  1  0.81287473  0.81495946  0.80710437  1
  Zn  Zn123  1  0.18107301  0.43402957  0.43727420  1
  Zn  Zn124  1  0.21844159  0.42791332  0.92741139  1
  Zn  Zn125  1  0.18598509  0.93599968  0.44365555  1
  Zn  Zn126  1  0.18721558  0.93309270  0.93775855  1
  Zn  Zn127  1  0.68558470  0.44643031  0.43387679  1
  Zn  Zn128  1  0.69487390  0.44054347  0.93536209  1
  Zn  Zn129  1  0.68365818  0.93924889  0.43438459  1
  Zn  Zn130  1  0.68758020  0.93766763  0.93784019  1
  Zn  Zn131  1  0.31399555  0.06079477  0.06811316  1
  Zn  Zn132  1  0.30917954  0.05876190  0.56326567  1
  Zn  Zn133  1  0.31348972  0.56442151  0.05991230  1
  Zn  Zn134  1  0.31447159  0.56463299  0.56411809  1
  Zn  Zn135  1  0.81374555  0.06329936  0.06442815  1
  Zn  Zn136  1  0.81354663  0.06493054  0.56086740  1
  Zn  Zn137  1  0.81067853  0.55793397  0.06039633  1
  Zn  Zn138  1  0.81653122  0.56353369  0.56627178  1
  Zn  Zn139  1  0.43862752  0.43529739  0.18314374  1
  Zn  Zn140  1  0.44676472  0.43310596  0.68185692  1
  Zn  Zn141  1  0.43774277  0.93660631  0.18730732  1
  Zn  Zn142  1  0.43935794  0.93751465  0.68247831  1
  Zn  Zn143  1  0.93886495  0.43451869  0.17992549  1
  Zn  Zn144  1  0.93657954  0.43668743  0.69161231  1
  Zn  Zn145  1  0.93847273  0.93798171  0.18727978  1
  Zn  Zn146  1  0.93200416  0.93463610  0.68828127  1
  Zn  Zn147  1  0.06804671  0.05880778  0.31773448  1
  Zn  Zn148  1  0.05994757  0.06386798  0.81684559  1
  Zn  Zn149  1  0.05781030  0.56140430  0.30800957  1
  Zn  Zn150  1  0.06763140  0.56704379  0.81419963  1
  Zn  Zn151  1  0.56157616  0.06305501  0.31678066  1
  Zn  Zn152  1  0.56143943  0.06458554  0.81232875  1
  Zn  Zn153  1  0.56519482  0.56494625  0.31227107  1
  Zn  Zn154  1  0.57000883  0.56785025  0.80696708  1
  Zn  Zn155  1  0.44223703  0.18586947  0.44220384  1
  Zn  Zn156  1  0.43848154  0.18488664  0.93912817  1
  Zn  Zn157  1  0.43915807  0.69172475  0.43509667  1
  Zn  Zn158  1  0.44390048  0.68688776  0.93712138  1
  Zn  Zn159  1  0.93665589  0.18569209  0.43707613  1
  Zn  Zn160  1  0.93653242  0.18614668  0.93830564  1
  Zn  Zn161  1  0.93050330  0.68563495  0.44018669  1
  Zn  Zn162  1  0.93996578  0.68794374  0.93727362  1
  Zn  Zn163  1  0.05503048  0.31167526  0.06695976  1
  Zn  Zn164  1  -0.00277110  0.30953624  0.56136402  1
  Zn  Zn165  1  0.06122451  0.81217610  0.05931742  1
  Zn  Zn166  1  0.06334546  0.81445830  0.56438087  1
  Zn  Zn167  1  0.56099329  0.31753336  0.05828058  1
  Zn  Zn168  1  0.67794965  0.32352518  0.57754308  1
  Zn  Zn169  1  0.56149554  0.80993407  0.06518515  1
  Zn  Zn170  1  0.55934407  0.81459487  0.55311510  1
  O  O171  1  0.12534206  0.11735301  0.11510998  1
  O  O172  1  0.12063694  0.11255827  0.61902680  1
  O  O173  1  0.11704020  0.61247531  0.12743030  1
  O  O174  1  0.12107485  0.61718184  0.62179845  1
  O  O175  1  0.61531027  0.12532979  0.12502197  1
  O  O176  1  0.62337515  0.12559862  0.61407888  1
  O  O177  1  0.62706897  0.61880148  0.11401313  1
  O  O178  1  0.61640692  0.62633143  0.61299349  1
  O  O179  1  0.38112573  0.37387374  0.37830232  1
  O  O180  1  0.32555891  0.38343400  0.89669886  1
  O  O181  1  0.36974517  0.86887906  0.38917041  1
  O  O182  1  0.37838629  0.88230093  0.88370399  1
  O  O183  1  0.88561663  0.38192471  0.37556094  1
  O  O184  1  0.87286831  0.37251438  0.88520249  1
  O  O185  1  0.88022419  0.87956671  0.38051249  1
  O  O186  1  0.87917476  0.88163826  0.88209218  1
  O  O187  1  0.24085791  0.00339708  0.37732212  1
  O  O188  1  0.25662991  0.00955081  0.88392481  1
  O  O189  1  0.25300765  0.50308478  0.36807462  1
  O  O190  1  0.24388863  0.52232757  0.86485841  1
  O  O191  1  0.75711830  0.00581713  0.36752530  1
  O  O192  1  0.75539587  0.00127984  0.86913343  1
  O  O193  1  0.74958388  0.49957929  0.35453608  1
  O  O194  1  0.75445546  0.51312511  0.86359105  1
  O  O195  1  0.24516865  0.49981443  0.13174659  1
  O  O196  1  0.24316910  0.49997878  0.63066828  1
  O  O197  1  0.23411333  0.99441523  0.11998210  1
  O  O198  1  0.23944108  0.98969247  0.62360458  1
  O  O199  1  0.73769981  0.49513535  0.13099543  1
  O  O200  1  0.74920202  0.50826438  0.64035554  1
  O  O201  1  0.74868124  0.99318111  0.13289509  1
  O  O202  1  0.75542256  1.00550146  0.64092197  1
  O  O203  1  0.00686528  0.38571995  0.26261749  1
  O  O204  1  0.01513936  0.36756921  0.74953117  1
  O  O205  1  0.00832049  0.86809310  0.25479123  1
  O  O206  1  -0.00419388  0.87059050  0.76198863  1
  O  O207  1  0.51031114  0.37346368  0.25820361  1
  O  O208  1  0.48920313  0.35877254  0.75702199  1
  O  O209  1  0.51387984  0.86778373  0.24261953  1
  O  O210  1  0.51309005  0.87208264  0.74942598  1
  O  O211  1  0.49984990  0.13226437  0.24348904  1
  O  O212  1  0.48440211  0.13132250  0.75174563  1
  O  O213  1  0.49132534  0.63032481  0.24958172  1
  O  O214  1  0.50963940  0.63727194  0.73361569  1
  O  O215  1  0.98716080  0.11880336  0.25646674  1
  O  O216  1  1.00258632  0.13261633  0.74596949  1
  O  O217  1  0.99847474  0.63162532  0.23593819  1
  O  O218  1  1.00560607  0.63462703  0.73684473  1
  O  O219  1  0.36719578  0.24943643  0.00656625  1
  O  O220  1  0.36611621  0.25507360  0.51126850  1
  O  O221  1  0.37219524  0.75653037  -0.00043955  1
  O  O222  1  0.37236389  0.76048572  0.50520869  1
  O  O223  1  0.87559874  0.25532099  0.00703566  1
  O  O224  1  0.89712277  0.25769748  0.51157608  1
  O  O225  1  0.88057558  0.76373161  0.00595983  1
  O  O226  1  0.87935034  0.75908774  0.51418515  1
  O  O227  1  0.12780053  0.23810873  0.50901633  1
  O  O228  1  0.12382169  0.23995688  0.99802807  1
  O  O229  1  0.13052246  0.74430648  0.49596553  1
  O  O230  1  0.13536084  0.75531872  0.99055529  1
  O  O231  1  0.62383452  0.24118874  0.49120581  1
  O  O232  1  0.62149269  0.24983143  0.98717616  1
  O  O233  1  0.62195135  0.74666092  0.48407504  1
  O  O234  1  0.62116524  0.74238749  0.99037044  1
  O  O235  1  0.49654248  0.24439990  0.12548771  1
  O  O236  1  0.48048266  0.24071415  0.63795432  1
  O  O237  1  0.49914282  0.74464977  0.13848873  1
  O  O238  1  0.49425977  0.74825676  0.62700718  1
  O  O239  1  0.98022845  0.24793585  0.12909234  1
  O  O240  1  1.01693521  0.23339692  0.64284285  1
  O  O241  1  0.99188291  0.74461722  0.12669687  1
  O  O242  1  0.99973430  0.74471268  0.63117108  1
  O  O243  1  0.00182064  0.26693359  0.37605249  1
  O  O244  1  0.01295935  0.24029784  0.86944007  1
  O  O245  1  0.00474888  0.75383167  0.36985831  1
  O  O246  1  0.00557186  0.75567522  0.86807331  1
  O  O247  1  0.51124083  0.25939591  0.37191575  1
  O  O248  1  0.51100362  0.24430495  0.87247104  1
  O  O249  1  0.50753598  0.74887149  0.36086146  1
  O  O250  1  0.50968477  0.75119234  0.86396971  1
  O  O251  1  0.24072578  0.13297869  0.50304038  1
  O  O252  1  0.24209078  0.13102783  0.99778722  1
  O  O253  1  0.24566610  0.63094567  0.49419356  1
  O  O254  1  0.25703357  0.63677008  0.98651864  1
  O  O255  1  0.74281124  0.11566513  0.48601637  1
  O  O256  1  0.74656983  0.11427017  0.98666864  1
  O  O257  1  0.73859232  0.61965934  0.50200633  1
  O  O258  1  0.73931364  0.61807657  0.98668337  1
  O  O259  1  0.23127794  0.35207105  0.01625201  1
  O  O260  1  0.25040744  0.37084848  0.50891986  1
  O  O261  1  0.25904815  0.86228567  -0.00222223  1
  O  O262  1  0.25952439  0.86856849  0.50816992  1
  O  O263  1  0.76600041  0.37868153  0.00191940  1
  O  O264  1  0.73997798  0.37627917  0.49831769  1
  O  O265  1  0.75770166  0.88103232  0.01261020  1
  O  O266  1  0.76213159  0.88269016  0.49582641  1
  O  O267  1  0.13446591  0.49537521  0.24398498  1
  O  O268  1  0.13279880  0.49584567  0.74452997  1
  O  O269  1  0.12242650  0.99037350  0.24189199  1
  O  O270  1  0.12078164  1.00132693  0.74161971  1
  O  O271  1  0.63218236  0.49498376  0.24329157  1
  O  O272  1  0.63950992  0.49979146  0.74915720  1
  O  O273  1  0.63052223  0.99195095  0.25186177  1
  O  O274  1  0.63091146  0.98680959  0.75226875  1
  O  O275  1  0.36823232  -0.00006338  0.24245151  1
  O  O276  1  0.37936044  0.00471746  0.76337058  1
  O  O277  1  0.36574883  0.50363102  0.25243363  1
  O  O278  1  0.36285939  0.49353855  0.74003212  1
  O  O279  1  0.87052721  0.00720558  0.25315519  1
  O  O280  1  0.85917570  -0.00939945  0.75947053  1
  O  O281  1  0.85857065  0.49748691  0.24081975  1
  O  O282  1  0.86285511  0.50012401  0.75098564  1
  O  O283  1  0.11466732  0.37582923  0.36366592  1
  O  O284  1  0.13383665  0.36415293  0.86949514  1
  O  O285  1  0.11798495  0.86707295  0.36922572  1
  O  O286  1  0.11480123  0.86651424  0.87799262  1
  O  O287  1  0.61789584  0.37060126  0.36845249  1
  O  O288  1  0.63151741  0.36165395  0.87204529  1
  O  O289  1  0.62848592  0.86274138  0.36552576  1
  O  O290  1  0.62578545  0.86393938  0.87325051  1
  O  O291  1  0.38865017  0.13267884  0.12396294  1
  O  O292  1  0.36563794  0.13053364  0.63627637  1
  O  O293  1  0.37555518  0.62524472  0.13835735  1
  O  O294  1  0.38180826  0.64265705  0.61767487  1
  O  O295  1  0.87294266  0.13161862  0.13718279  1
  O  O296  1  0.88699777  0.12803599  0.62477190  1
  O  O297  1  0.87933094  0.63273583  0.12332400  1
  O  O298  1  0.88630295  0.64004920  0.61921352  1
  O  O299  1  0.26239711  0.24435420  0.12081620  1
  O  O300  1  0.25331917  0.25544502  0.62071100  1
  O  O301  1  0.25235555  0.74987879  0.11463283  1
  O  O302  1  0.25682056  0.75446324  0.62106927  1
  O  O303  1  0.76926722  0.25021566  0.13366390  1
  O  O304  1  0.74223700  0.25038171  0.63474399  1
  O  O305  1  0.76253840  0.75817041  0.12920844  1
  O  O306  1  0.76428403  0.74482308  0.63311485  1
  O  O307  1  0.23581897  0.25785210  0.39653357  1
  O  O308  1  0.23760218  0.23463684  0.88466663  1
  O  O309  1  0.24250832  0.74284934  0.38034833  1
  O  O310  1  0.24539526  0.74485965  0.87677835  1
  O  O311  1  0.74303749  0.24163651  0.36933539  1
  O  O312  1  0.73404310  0.23748368  0.86631440  1
  O  O313  1  0.73853725  0.74931794  0.36778903  1
  O  O314  1  0.74458991  0.74110495  0.86645212  1
  O  O315  1  0.00553812  0.10991029  -0.00495905  1
  O  O316  1  0.00443606  0.11430307  0.50992298  1
  O  O317  1  -0.00000898  0.62478677  0.01088290  1
  O  O318  1  0.00712183  0.61878052  0.50968946  1
  O  O319  1  0.50187795  0.11568563  0.00845449  1
  O  O320  1  0.50927940  0.11872649  0.50451891  1
  O  O321  1  0.51368358  0.61685074  -0.00038832  1
  O  O322  1  0.50289813  0.62516562  0.50669474  1
  O  O323  1  0.49259470  0.38442702  0.48484859  1
  O  O324  1  0.50317774  0.39514916  0.99561561  1
  O  O325  1  0.48662354  0.88660142  0.49920031  1
  O  O326  1  0.49361293  0.88090962  0.99856305  1
  O  O327  1  1.01424189  0.38890876  0.48163176  1
  O  O328  1  0.98234287  0.37564786  1.00535144  1
  O  O329  1  0.99410008  0.88095690  0.49644381  1
  O  O330  1  0.99321536  0.88292024  0.99024667  1
  O  O331  1  0.49243893  0.49455781  0.37516680  1
  O  O332  1  0.50263576  0.50858706  0.88033084  1
  O  O333  1  0.49271056  1.01132854  0.39269397  1
  O  O334  1  0.49205284  0.99945488  0.88271217  1
  O  O335  1  1.00025433  0.49445347  0.38301483  1
  O  O336  1  0.99827690  0.50999236  0.87648163  1
  O  O337  1  0.99535561  0.99283879  0.38559095  1
  O  O338  1  0.99199112  0.99283982  0.88025220  1
  O  O339  1  0.01094113  -0.00740945  0.11475838  1
  O  O340  1  0.00323974  0.00327205  0.62345640  1
  O  O341  1  0.00959984  0.50634827  0.11951170  1
  O  O342  1  0.00722616  0.50909916  0.62105286  1
  O  O343  1  0.50291059  0.00755284  0.11731573  1
  O  O344  1  0.48933756  0.00478516  0.60575104  1
  O  O345  1  0.51463931  0.50348257  0.12631180  1
  O  O346  1  0.49398922  0.51421596  0.61581801  1
  O  O347  1  0.24147630  0.38449764  0.24873749  1
  O  O348  1  0.23907056  0.38223643  0.74315182  1
  O  O349  1  0.23523041  0.87223571  0.24678725  1
  O  O350  1  0.25543179  0.87019104  0.73809772  1
  O  O351  1  0.73829215  0.38198418  0.24909367  1
  O  O352  1  0.74801760  0.38845893  0.75321193  1
  O  O353  1  0.74337848  0.88141717  0.24087294  1
  O  O354  1  0.73564325  0.88495431  0.75140664  1
  O  O355  1  0.25308348  0.12057866  0.25958540  1
  O  O356  1  0.25744276  0.12811475  0.76219712  1
  O  O357  1  0.25540296  0.61752125  0.25541874  1
  O  O358  1  0.25206078  0.62178840  0.75790700  1
  O  O359  1  0.75586031  0.11773378  0.26046338  1
  O  O360  1  0.74056720  0.10545594  0.76421555  1
  O  O361  1  0.74990291  0.61114824  0.24129100  1
  O  O362  1  0.74649314  0.61963724  0.76119562  1
  O  O363  1  0.36534082  0.16664661  0.36411724  1
  O  O364  1  0.36596952  0.11754587  0.87230944  1
  O  O365  1  0.36972219  0.61942366  0.36482784  1
  O  O366  1  0.36403856  0.63543562  0.87026514  1
  O  O367  1  0.86984226  0.12036055  0.36785763  1
  O  O368  1  0.86805119  0.11089030  0.87977501  1
  O  O369  1  0.88191127  0.61905480  0.36773328  1
  O  O370  1  0.86056556  0.63044060  0.87888366  1
  O  O371  1  0.12073682  0.38313446  0.13564454  1
  O  O372  1  0.12849588  0.39068577  0.63276201  1
  O  O373  1  0.12365930  0.87944779  0.13312401  1
  O  O374  1  0.13572477  0.88339836  0.62128736  1
  O  O375  1  0.62608874  0.38035902  0.13245350  1
  O  O376  1  0.60276336  0.38523081  0.63392485  1
  O  O377  1  0.63484830  0.87403011  0.13190534  1
  O  O378  1  0.62466204  0.87185985  0.63174867  1
  O  O379  1  0.12915490  0.26279480  0.24873297  1
  O  O380  1  0.12315478  0.25767056  0.76152280  1
  O  O381  1  0.11907082  0.75466968  0.25275100  1
  O  O382  1  0.11195026  0.75354574  0.75505903  1
  O  O383  1  0.62177053  0.25856094  0.25693553  1
  O  O384  1  0.61010689  0.24890152  0.76267335  1
  O  O385  1  0.62080424  0.75453697  0.25770316  1
  O  O386  1  0.61936952  0.76273513  0.75291191  1
  O  O387  1  0.38755056  0.25903944  0.23273564  1
  O  O388  1  0.37267748  0.24194131  0.74916542  1
  O  O389  1  0.38064904  0.74242011  0.25021106  1
  O  O390  1  0.39179985  0.75906334  0.74126887  1
  O  O391  1  0.87605138  0.23658458  0.24986050  1
  O  O392  1  0.88946862  0.25616114  0.75079974  1
  O  O393  1  0.88266159  0.75172443  0.23874825  1
  O  O394  1  0.88752843  0.75774004  0.73636313  1
  O  O395  1  0.37767423  0.49447579  0.49176045  1
  O  O396  1  0.39641399  0.50721164  1.00327690  1
  O  O397  1  0.37665138  0.98887704  0.49908156  1
  O  O398  1  0.38301034  0.99413936  0.99288422  1
  O  O399  1  0.88733127  0.49713240  0.50180011  1
  O  O400  1  0.87773938  0.48872662  0.99557441  1
  O  O401  1  0.88492151  0.99386496  0.49767865  1
  O  O402  1  0.88127473  0.99060333  0.99653091  1
  O  O403  1  0.11725610  0.00339235  0.00480064  1
  O  O404  1  0.11178138  0.00247540  0.50992753  1
  O  O405  1  0.13421150  0.48914798  0.00989025  1
  O  O406  1  0.11927300  0.50687862  0.50831021  1
  O  O407  1  0.61173731  -0.00166338  0.00187637  1
  O  O408  1  0.61281621  0.00665263  0.49509744  1
  O  O409  1  0.61919699  0.50569540  0.00329769  1
  O  O410  1  0.61407697  0.51440890  0.49638097  1
  O  O411  1  0.37502043  0.36735470  0.11372138  1
  O  O412  1  0.36915835  0.36676228  0.61867355  1
  O  O413  1  0.37331921  0.87216301  0.11079436  1
  O  O414  1  0.36859475  0.86678992  0.61686656  1
  O  O415  1  0.87173593  0.36327952  0.11873531  1
  O  O416  1  0.90204024  0.36431323  0.61441801  1
  O  O417  1  0.86994850  0.86918194  0.11818282  1
  O  O418  1  0.87754494  0.86180447  0.61692661  1
  O  O419  1  0.11890365  0.12825099  0.39305750  1
  O  O420  1  0.13020714  0.12618828  0.88778800  1
  O  O421  1  0.12806130  0.62867978  0.37905945  1
  O  O422  1  0.13683653  0.64324181  0.86947661  1
  O  O423  1  0.63306682  0.13464656  0.38035440  1
  O  O424  1  0.62935983  0.13100245  0.87986146  1
  O  O425  1  0.62180157  0.63909819  0.38139164  1
  O  O426  1  0.63484969  0.63744140  0.87780966  1
