# generated using pymatgen
data_V85Zn86O256
_symmetry_space_group_name_H-M   'P 1'
_cell_length_a   16.93476631
_cell_length_b   16.94594353
_cell_length_c   16.93600430
_cell_angle_alpha   89.91747973
_cell_angle_beta   90.01303697
_cell_angle_gamma   90.02357501
_symmetry_Int_Tables_number   1
_chemical_formula_structural   V85Zn86O256
_chemical_formula_sum   'V85 Zn86 O256'
_cell_volume   4860.21430844
_cell_formula_units_Z   1
loop_
 _symmetry_equiv_pos_site_id
 _symmetry_equiv_pos_as_xyz
  1  'x, y, z'
loop_
 _atom_site_type_symbol
 _atom_site_label
 _atom_site_symmetry_multiplicity
 _atom_site_fract_x
 _atom_site_fract_y
 _atom_site_fract_z
 _atom_site_occupancy
  V  V0  1  0.50682482  0.87908055  0.37043060  1
  V  V1  1  0.49434769  -0.00144453  -0.00107480  1
  V  V2  1  0.00324256  0.49882982  0.50577459  1
  V  V3  1  0.25071077  0.62591994  0.38059715  1
  V  V4  1  0.12432250  0.24921556  0.37214789  1
  V  V5  1  0.62540047  0.36223001  0.24888089  1
  V  V6  1  0.62648821  0.12726325  0.49877307  1
  V  V7  1  0.25177280  -0.00198010  0.24507902  1
  V  V8  1  0.24195608  0.86936443  0.62441369  1
  V  V9  1  0.61960439  0.37434935  0.75570584  1
  V  V10  1  0.00854318  0.75658143  0.26014714  1
  V  V11  1  0.75294099  0.12204840  0.86079835  1
  V  V12  1  0.49600913  0.74964244  0.74922170  1
  V  V13  1  0.37705246  0.36803207  0.00618586  1
  V  V14  1  0.12592831  0.49881160  0.63803505  1
  V  V15  1  0.49557335  0.87906287  0.87696155  1
  V  V16  1  0.37655650  0.50100212  0.37296395  1
  V  V17  1  0.87871294  0.25065541  0.11974382  1
  V  V18  1  0.62494076  -0.00567168  0.12889846  1
  V  V19  1  0.63031089  0.00199817  0.62798986  1
  V  V20  1  -0.01159691  0.12196508  0.63313710  1
  V  V21  1  0.12255843  0.12300359  0.51037403  1
  V  V22  1  0.75213937  0.63411426  0.37067429  1
  V  V23  1  0.87718791  0.12461079  0.24879533  1
  V  V24  1  0.62281411  0.49923787  0.12504000  1
  V  V25  1  0.75170048  0.24959175  -0.00444131  1
  V  V26  1  -0.01325257  0.00118566  -0.00049307  1
  V  V27  1  0.49995592  0.00144265  0.49939127  1
  V  V28  1  0.49691005  0.62485606  0.62569967  1
  V  V29  1  0.87889214  0.50170748  0.37218316  1
  V  V30  1  0.74917168  0.50169657  0.24829386  1
  V  V31  1  0.62762805  0.75611810  0.37928795  1
  V  V32  1  0.19222823  0.79260346  0.43916660  1
  V  V33  1  0.80785741  0.70034548  0.55892205  1
  V  V34  1  0.75634115  0.49343735  0.75190583  1
  V  V35  1  0.13348963  0.64426380  0.00464532  1
  V  V36  1  0.87439913  0.87609924  0.49821910  1
  V  V37  1  0.24958848  0.24591662  0.00623272  1
  V  V38  1  0.00192637  0.37392150  0.37516779  1
  V  V39  1  0.36249742  0.49311018  0.87139301  1
  V  V40  1  0.25282936  0.12770722  0.37097039  1
  V  V41  1  0.61568014  0.25125222  0.87663732  1
  V  V42  1  -0.00740887  0.86417156  0.88225357  1
  V  V43  1  0.37153981  0.75988490  0.11215820  1
  V  V44  1  0.68477361  0.29235563  0.43227669  1
  V  V45  1  0.24227090  -0.00268438  0.74597160  1
  V  V46  1  0.00543813  0.37962698  0.86731672  1
  V  V47  1  0.50044958  0.62649824  0.12313331  1
  V  V48  1  0.37747877  0.62695213  0.24788170  1
  V  V49  1  0.87173746  0.00166281  0.85913688  1
  V  V50  1  0.24430274  0.37676325  0.64478803  1
  V  V51  1  0.86229582  0.25824117  0.62432335  1
  V  V52  1  0.62596865  0.62440213  -0.00175061  1
  V  V53  1  0.62982709  0.87776965  0.75007894  1
  V  V54  1  0.37164489  0.24786188  0.62796851  1
  V  V55  1  0.75173282  0.37557854  0.12252340  1
  V  V56  1  0.47932657  0.24483892  0.24529222  1
  V  V57  1  0.24430150  0.63920499  0.87021968  1
  V  V58  1  0.49751542  0.50097353  0.50081556  1
  V  V59  1  0.62395822  0.49301897  0.62852057  1
  V  V60  1  0.36782294  0.37526464  0.50168339  1
  V  V61  1  0.24855751  0.11996448  0.87658708  1
  V  V62  1  0.76026833  0.62001093  0.87421816  1
  V  V63  1  0.37918885  0.00649489  0.36904724  1
  V  V64  1  0.87568789  0.38822044  -0.00906050  1
  V  V65  1  0.12518684  0.62355706  0.50384925  1
  V  V66  1  0.76014817  0.75278891  -0.00160594  1
  V  V67  1  0.50092949  0.37051842  0.37536062  1
  V  V68  1  0.01986869  0.49757210  0.00492522  1
  V  V69  1  -0.00827454  0.74224184  0.73617011  1
  V  V70  1  0.62728054  0.12173342  0.00085848  1
  V  V71  1  0.24235583  0.50339639  0.24084407  1
  V  V72  1  0.88709445  -0.00274982  0.37507738  1
  V  V73  1  0.49819092  0.12451693  0.62672807  1
  V  V74  1  0.62534187  0.74902440  0.87657925  1
  V  V75  1  0.75698218  0.87519549  0.12017626  1
  V  V76  1  0.49864331  0.49551635  -0.00913988  1
  V  V77  1  0.37439260  0.11459130  0.75352142  1
  V  V78  1  0.12126408  -0.00229849  0.12294767  1
  V  V79  1  0.75058678  0.12414853  0.38007323  1
  V  V80  1  0.11580134  0.87131335  0.74756479  1
  V  V81  1  0.74802599  -0.00886059  0.25264328  1
  V  V82  1  0.75376788  0.87729171  0.62387058  1
  V  V83  1  0.50733811  0.75702478  0.24653835  1
  V  V84  1  0.37557215  0.86892656  0.49874485  1
  Zn  Zn85  1  0.12060532  0.12474627  -0.00248669  1
  Zn  Zn86  1  0.36887554  0.74560727  0.61967227  1
  Zn  Zn87  1  0.32861114  -0.05876394  0.93171394  1
  Zn  Zn88  1  0.49659215  0.12813219  0.12832981  1
  Zn  Zn89  1  0.88297506  0.75118363  0.12505045  1
  Zn  Zn90  1  0.86183078  0.36621485  0.49551033  1
  Zn  Zn91  1  0.49341742  0.25257148  0.75672464  1
  Zn  Zn92  1  0.00239870  0.25134797  0.24609277  1
  Zn  Zn93  1  0.25151251  0.87592815  0.10394897  1
  Zn  Zn94  1  0.11964860  0.38246085  0.24199752  1
  Zn  Zn95  1  0.00037111  0.12436702  0.12247085  1
  Zn  Zn96  1  0.36671053  0.61866094  0.74796443  1
  Zn  Zn97  1  0.12659783  0.25398848  0.86965918  1
  Zn  Zn98  1  0.00458186  -0.00662610  0.50329486  1
  Zn  Zn99  1  0.12743637  0.87293269  0.25977636  1
  Zn  Zn100  1  0.62567219  0.62926317  0.50353856  1
  Zn  Zn101  1  0.00555581  0.62633828  0.12802306  1
  Zn  Zn102  1  0.24534301  0.37299766  0.12349087  1
  Zn  Zn103  1  0.00129998  0.25167127  0.74782338  1
  Zn  Zn104  1  0.24804115  0.24995953  0.50170759  1
  Zn  Zn105  1  0.88123247  0.62969365  0.24566632  1
  Zn  Zn106  1  0.87607873  0.62447508  0.74251522  1
  Zn  Zn107  1  0.18839904  0.18376965  0.18744071  1
  Zn  Zn108  1  0.18406997  0.19235415  0.69342976  1
  Zn  Zn109  1  0.18785811  0.69075510  0.18679921  1
  Zn  Zn110  1  0.18090794  0.68928840  0.69032541  1
  Zn  Zn111  1  0.69192919  0.18211575  0.18536235  1
  Zn  Zn112  1  0.68581480  0.19035767  0.68842792  1
  Zn  Zn113  1  0.68811541  0.69067488  0.18716941  1
  Zn  Zn114  1  0.68020365  0.68178291  0.69499424  1
  Zn  Zn115  1  0.30799505  0.31810743  0.31401487  1
  Zn  Zn116  1  0.31447547  0.30617635  0.82009834  1
  Zn  Zn117  1  0.32300773  0.81822570  0.30246119  1
  Zn  Zn118  1  0.31110784  0.80945597  0.80619934  1
  Zn  Zn119  1  0.82035108  0.31563960  0.30540381  1
  Zn  Zn120  1  0.81433006  0.31061646  0.80870332  1
  Zn  Zn121  1  0.81965870  0.81356350  0.31004935  1
  Zn  Zn122  1  0.81522255  0.81177917  0.81162948  1
  Zn  Zn123  1  0.18666110  0.43980476  0.43489980  1
  Zn  Zn124  1  0.19049388  0.43335654  0.93652564  1
  Zn  Zn125  1  0.19197394  0.95544576  0.44116716  1
  Zn  Zn126  1  0.16770625  0.93209347  0.93757481  1
  Zn  Zn127  1  0.68256442  0.45688140  0.43336238  1
  Zn  Zn128  1  0.68740027  0.43645505  0.93466714  1
  Zn  Zn129  1  0.69201108  0.93715239  0.44085271  1
  Zn  Zn130  1  0.68860363  0.93749029  0.93675037  1
  Zn  Zn131  1  0.31480333  0.07445697  0.07396433  1
  Zn  Zn132  1  0.30942869  0.05863852  0.56269631  1
  Zn  Zn133  1  0.31369706  0.56822271  0.05773198  1
  Zn  Zn134  1  0.30828055  0.55964591  0.56525431  1
  Zn  Zn135  1  0.81207375  0.06204603  0.06045258  1
  Zn  Zn136  1  0.81399175  0.06303657  0.56299437  1
  Zn  Zn137  1  0.81536338  0.56683026  0.06478162  1
  Zn  Zn138  1  0.81180634  0.53545134  0.56380139  1
  Zn  Zn139  1  0.43623548  0.43667812  0.18496411  1
  Zn  Zn140  1  0.43648982  0.43514808  0.69134874  1
  Zn  Zn141  1  0.43794589  0.94116742  0.18630707  1
  Zn  Zn142  1  0.43674777  0.93594491  0.68548418  1
  Zn  Zn143  1  0.94048187  0.43923820  0.18474573  1
  Zn  Zn144  1  0.93363519  0.43423613  0.68248259  1
  Zn  Zn145  1  0.93974381  0.93202856  0.19019372  1
  Zn  Zn146  1  0.93748575  0.93794676  0.68521759  1
  Zn  Zn147  1  0.06593419  0.06375250  0.31057277  1
  Zn  Zn148  1  0.06310287  0.05836102  0.81112296  1
  Zn  Zn149  1  0.06484527  0.57171296  0.31672949  1
  Zn  Zn150  1  0.05992246  0.56472215  0.82122444  1
  Zn  Zn151  1  0.56788806  0.06963614  0.31289489  1
  Zn  Zn152  1  0.56405703  0.06251173  0.81292426  1
  Zn  Zn153  1  0.56519519  0.56429771  0.31144089  1
  Zn  Zn154  1  0.56143129  0.56274631  0.81324567  1
  Zn  Zn155  1  0.43899119  0.19132829  0.43641503  1
  Zn  Zn156  1  0.43317592  0.17995798  0.94141426  1
  Zn  Zn157  1  0.44046474  0.68884510  0.43519487  1
  Zn  Zn158  1  0.43484504  0.68272146  0.93338882  1
  Zn  Zn159  1  0.93775291  0.18835230  0.44233347  1
  Zn  Zn160  1  0.93785293  0.18853861  0.93288323  1
  Zn  Zn161  1  0.94709599  0.68374498  0.43340129  1
  Zn  Zn162  1  0.94103801  0.68037196  0.93983702  1
  Zn  Zn163  1  0.06788091  0.31280683  0.06017214  1
  Zn  Zn164  1  0.06168531  0.30890064  0.56431800  1
  Zn  Zn165  1  0.06114828  0.81533838  0.06757923  1
  Zn  Zn166  1  0.05512984  0.81298223  0.56767413  1
  Zn  Zn167  1  0.56068048  0.31253404  0.06253350  1
  Zn  Zn168  1  0.55407549  0.31525615  0.57106906  1
  Zn  Zn169  1  0.56708792  0.81560277  0.06117247  1
  Zn  Zn170  1  0.56317346  0.81312079  0.56122792  1
  O  O171  1  0.12101277  0.11097140  0.12504778  1
  O  O172  1  0.11944376  0.13255376  0.61240644  1
  O  O173  1  0.12814271  0.62890547  0.10864266  1
  O  O174  1  0.13890676  0.61429682  0.61172352  1
  O  O175  1  0.62330251  0.11530551  0.11777197  1
  O  O176  1  0.62093823  0.11831583  0.62087390  1
  O  O177  1  0.62080548  0.61898127  0.11925349  1
  O  O178  1  0.61215673  0.61576279  0.62552852  1
  O  O179  1  0.37940314  0.38143697  0.38370423  1
  O  O180  1  0.37096976  0.38720760  0.88451020  1
  O  O181  1  0.38429650  0.88432691  0.38057712  1
  O  O182  1  0.39147243  0.87471326  0.86147832  1
  O  O183  1  0.88310697  0.38224330  0.37627191  1
  O  O184  1  0.88245882  0.37129311  0.88512592  1
  O  O185  1  0.86597844  0.88677270  0.38488344  1
  O  O186  1  0.88292972  0.88728621  0.87025460  1
  O  O187  1  0.26078271  0.00875116  0.36831513  1
  O  O188  1  0.25148279  0.00186358  0.86116182  1
  O  O189  1  0.25806227  0.50904709  0.36784776  1
  O  O190  1  0.26053339  0.50525344  0.87786942  1
  O  O191  1  0.75539623  0.00753861  0.36800760  1
  O  O192  1  0.76392771  0.00507965  0.88030404  1
  O  O193  1  0.75828025  0.51373990  0.37014626  1
  O  O194  1  0.74297708  0.50906080  0.86488255  1
  O  O195  1  0.25662452  0.50781345  0.14010441  1
  O  O196  1  0.24365699  0.48456383  0.62556823  1
  O  O197  1  0.24343116  1.00027259  0.13147044  1
  O  O198  1  0.25356534  0.98601371  0.63583551  1
  O  O199  1  0.74321457  0.49513707  0.12864646  1
  O  O200  1  0.73403910  0.50214054  0.63623483  1
  O  O201  1  0.74555904  0.99507502  0.13114110  1
  O  O202  1  0.73861680  0.99307270  0.62103366  1
  O  O203  1  0.00018678  0.37489822  0.26163669  1
  O  O204  1  -0.00647005  0.38389131  0.76623693  1
  O  O205  1  0.00709062  0.86408094  0.25152349  1
  O  O206  1  -0.00059868  0.86579336  0.75248236  1
  O  O207  1  0.50739927  0.36766398  0.25405574  1
  O  O208  1  0.51246849  0.37147712  0.75000728  1
  O  O209  1  0.49840881  0.86771478  0.25654697  1
  O  O210  1  0.50987784  0.86863433  0.75165790  1
  O  O211  1  0.50325980  0.14383898  0.25507428  1
  O  O212  1  0.49138425  0.12316843  0.74468404  1
  O  O213  1  0.49746251  0.63139599  0.24304913  1
  O  O214  1  0.49776553  0.63265438  0.74315530  1
  O  O215  1  0.98674722  0.12543407  0.24828684  1
  O  O216  1  1.00321519  0.12283269  0.73490628  1
  O  O217  1  1.00239564  0.63572033  0.24860809  1
  O  O218  1  0.99594835  0.63878394  0.75911366  1
  O  O219  1  0.36880721  0.25987545  -0.00819155  1
  O  O220  1  0.37314290  0.25886986  0.50833898  1
  O  O221  1  0.38485394  0.74768324  0.01440857  1
  O  O222  1  0.38225757  0.76441384  0.49946844  1
  O  O223  1  0.86959720  0.25641105  0.00505365  1
  O  O224  1  0.87727442  0.25160369  0.51418219  1
  O  O225  1  0.86293897  0.74496379  0.00020402  1
  O  O226  1  0.87377273  0.75241000  0.49827360  1
  O  O227  1  0.12620179  0.24071323  0.48902672  1
  O  O228  1  0.13374909  0.24376532  0.99187917  1
  O  O229  1  0.12399902  0.74271776  0.50375765  1
  O  O230  1  0.12213543  0.74208182  0.99831913  1
  O  O231  1  0.62070823  0.24629469  0.50326941  1
  O  O232  1  0.63027379  0.24361401  0.99522498  1
  O  O233  1  0.61943075  0.74687653  0.48467155  1
  O  O234  1  0.63264184  0.74371833  0.99428961  1
  O  O235  1  0.50615534  0.25242634  0.14312323  1
  O  O236  1  0.48958285  0.24146680  0.63080716  1
  O  O237  1  0.49912205  0.74833762  0.13061307  1
  O  O238  1  0.50034449  0.74182242  0.63083467  1
  O  O239  1  0.98827107  0.24837760  0.12329902  1
  O  O240  1  0.99319494  0.23854656  0.62413932  1
  O  O241  1  1.00016157  0.74857106  0.13475401  1
  O  O242  1  0.99568110  0.74307852  0.63711487  1
  O  O243  1  0.00598949  0.25735945  0.37365851  1
  O  O244  1  -0.00124096  0.26689786  0.87490208  1
  O  O245  1  0.00232726  0.74878220  0.36056829  1
  O  O246  1  -0.01105599  0.76290418  0.87214911  1
  O  O247  1  0.49557439  0.26019808  0.36215263  1
  O  O248  1  0.51288756  0.23934787  0.87645079  1
  O  O249  1  0.50817011  0.75670397  0.36643676  1
  O  O250  1  0.50416480  0.75479388  0.86792115  1
  O  O251  1  0.23918814  0.12472214  0.49287851  1
  O  O252  1  0.25026965  0.12613524  0.99112587  1
  O  O253  1  0.24901348  0.62367677  0.48849501  1
  O  O254  1  0.23943545  0.62475786  0.99068404  1
  O  O255  1  0.74659496  0.12217044  0.48753388  1
  O  O256  1  0.74003696  0.12889712  0.99500555  1
  O  O257  1  0.75392892  0.63139006  0.49790014  1
  O  O258  1  0.74351000  0.62923302  0.99277949  1
  O  O259  1  0.25793429  0.36383552  -0.00039539  1
  O  O260  1  0.26061030  0.37513586  0.49971419  1
  O  O261  1  0.25228623  0.88513362  -0.00931077  1
  O  O262  1  0.25221799  0.86805555  0.50190959  1
  O  O263  1  0.75732077  0.37078990  0.00289075  1
  O  O264  1  0.74027923  0.36749715  0.48141319  1
  O  O265  1  0.74448655  0.86448338  0.00694915  1
  O  O266  1  0.75931158  0.87234541  0.51002472  1
  O  O267  1  0.13995010  0.50465411  0.25648963  1
  O  O268  1  0.11431330  0.50827896  0.73618938  1
  O  O269  1  0.13286351  0.99577837  0.24499246  1
  O  O270  1  0.13101655  0.98654441  0.74893618  1
  O  O271  1  0.62963046  0.48896644  0.24670623  1
  O  O272  1  0.62729288  0.49318679  0.74650432  1
  O  O273  1  0.63614656  1.00831021  0.24163131  1
  O  O274  1  0.61989160  0.99009413  0.73970739  1
  O  O275  1  0.37022617  -0.00246461  0.26212836  1
  O  O276  1  0.36808621  0.00918912  0.74378383  1
  O  O277  1  0.37157323  0.50794847  0.25507048  1
  O  O278  1  0.38159893  0.50048243  0.76840831  1
  O  O279  1  0.86933014  0.00539729  0.25618362  1
  O  O280  1  0.87397828  0.00070599  0.76063971  1
  O  O281  1  0.87046473  0.50020988  0.26026059  1
  O  O282  1  0.86008470  0.50460445  0.73812929  1
  O  O283  1  0.12008033  0.36705442  0.37013407  1
  O  O284  1  0.10959070  0.37658347  0.87862382  1
  O  O285  1  0.14189086  0.86666011  0.38489245  1
  O  O286  1  0.09967959  0.87984631  0.86276015  1
  O  O287  1  0.62385618  0.36802109  0.37105248  1
  O  O288  1  0.62601114  0.36238753  0.87057948  1
  O  O289  1  0.62043112  0.86876569  0.37932285  1
  O  O290  1  0.61964766  0.86997801  0.86594804  1
  O  O291  1  0.38623672  0.12807624  0.13414293  1
  O  O292  1  0.37678270  0.12804285  0.62988035  1
  O  O293  1  0.38246117  0.63459661  0.12889386  1
  O  O294  1  0.38287609  0.62438740  0.62749198  1
  O  O295  1  0.87275100  0.13254471  0.13199531  1
  O  O296  1  0.88422108  0.13308978  0.62177164  1
  O  O297  1  0.88096607  0.63057543  0.12793006  1
  O  O298  1  0.85917642  0.63307080  0.61528214  1
  O  O299  1  0.24804548  0.24397898  0.11036464  1
  O  O300  1  0.25364643  0.26181867  0.62308897  1
  O  O301  1  0.26821968  0.75383562  0.12945548  1
  O  O302  1  0.25243555  0.76368400  0.63232400  1
  O  O303  1  0.75959033  0.25442042  0.11777978  1
  O  O304  1  0.76300777  0.24444835  0.62585953  1
  O  O305  1  0.74824019  0.75905195  0.11662575  1
  O  O306  1  0.74339824  0.75296594  0.62102529  1
  O  O307  1  0.24378994  0.24367921  0.37675471  1
  O  O308  1  0.24874623  0.23783500  0.88468533  1
  O  O309  1  0.25937796  0.74404778  0.37225038  1
  O  O310  1  0.25506562  0.73783268  0.87563813  1
  O  O311  1  0.75407444  0.24175264  0.36967426  1
  O  O312  1  0.74482608  0.24051818  0.87892672  1
  O  O313  1  0.74387620  0.74180837  0.36684459  1
  O  O314  1  0.74535900  0.74414686  0.88056391  1
  O  O315  1  -0.00172499  0.11633674  0.00089324  1
  O  O316  1  0.01057292  0.12355483  0.50746524  1
  O  O317  1  0.01706698  0.61367761  -0.00461792  1
  O  O318  1  0.01198934  0.61234027  0.49571048  1
  O  O319  1  0.51381121  0.11738844  -0.00052625  1
  O  O320  1  0.50466151  0.12056950  0.50570371  1
  O  O321  1  0.50611270  0.61789059  0.00435885  1
  O  O322  1  0.49908836  0.61917141  0.50842426  1
  O  O323  1  0.48831782  0.37995162  0.49699391  1
  O  O324  1  0.49197938  0.38384642  1.00399337  1
  O  O325  1  0.49384897  0.88315369  0.49418764  1
  O  O326  1  0.50767801  0.88420393  0.98857984  1
  O  O327  1  1.00539151  0.38182016  0.48658177  1
  O  O328  1  0.99463985  0.38481672  0.99536395  1
  O  O329  1  0.98134548  0.87662966  0.50904519  1
  O  O330  1  1.00062057  0.88067148  0.98694616  1
  O  O331  1  0.49732884  0.49275490  0.37947728  1
  O  O332  1  0.48967113  0.50792492  0.88723511  1
  O  O333  1  0.49641846  1.00026687  0.37761385  1
  O  O334  1  0.50850778  0.99076910  0.88474986  1
  O  O335  1  0.99472762  0.49568355  0.37992260  1
  O  O336  1  1.00013463  0.49073420  0.89095890  1
  O  O337  1  0.98975559  1.00395092  0.37727466  1
  O  O338  1  0.98669634  0.99569149  0.87896098  1
  O  O339  1  0.00285854  -0.00189182  0.11775266  1
  O  O340  1  -0.00781288  0.01654366  0.62048063  1
  O  O341  1  -0.00301289  0.50327444  0.10808150  1
  O  O342  1  0.00719153  0.49133764  0.61222061  1
  O  O343  1  0.51037594  -0.00142379  0.11786527  1
  O  O344  1  0.50898548  0.00399009  0.61886709  1
  O  O345  1  0.50488271  0.50540336  0.11655303  1
  O  O346  1  0.50243318  0.50599250  0.62255800  1
  O  O347  1  0.25135918  0.39405169  0.24977926  1
  O  O348  1  0.25354833  0.37192254  0.74268563  1
  O  O349  1  0.25041786  0.88960136  0.24896014  1
  O  O350  1  0.23935802  0.87797864  0.74496327  1
  O  O351  1  0.74448307  0.38176524  0.24455051  1
  O  O352  1  0.73677658  0.38421761  0.75801759  1
  O  O353  1  0.75209139  0.88691901  0.24436737  1
  O  O354  1  0.73671837  0.86628682  0.74232926  1
  O  O355  1  0.24477240  0.11423836  0.26396515  1
  O  O356  1  0.25395777  0.11472451  0.75183717  1
  O  O357  1  0.25552579  0.61962013  0.25913948  1
  O  O358  1  0.24867698  0.62897315  0.76422997  1
  O  O359  1  0.76064904  0.11701705  0.25741511  1
  O  O360  1  0.74194103  0.12223185  0.76204952  1
  O  O361  1  0.75156040  0.61979387  0.25655392  1
  O  O362  1  0.75051337  0.61724319  0.75843239  1
  O  O363  1  0.36589638  0.11742403  0.38398830  1
  O  O364  1  0.36310723  0.12403686  0.86549830  1
  O  O365  1  0.37214913  0.62102902  0.36877217  1
  O  O366  1  0.36100314  0.61463404  0.87586180  1
  O  O367  1  0.86988529  0.11919562  0.36948044  1
  O  O368  1  0.86677903  0.11273216  0.87713793  1
  O  O369  1  0.86849630  0.61793537  0.37371327  1
  O  O370  1  0.86246253  0.62487148  0.87431887  1
  O  O371  1  0.13145327  0.37053532  0.13095770  1
  O  O372  1  0.13855574  0.38030968  0.62095399  1
  O  O373  1  0.13117299  0.88841066  0.12481469  1
  O  O374  1  0.12988058  0.87410714  0.63131634  1
  O  O375  1  0.63139327  0.37997278  0.13102779  1
  O  O376  1  0.61917173  0.38612733  0.63395449  1
  O  O377  1  0.63591942  0.88802548  0.12336572  1
  O  O378  1  0.63259765  0.88121988  0.62858180  1
  O  O379  1  0.12278814  0.24581358  0.26252300  1
  O  O380  1  0.11580348  0.25049811  0.75630161  1
  O  O381  1  0.11650932  0.75455212  0.24859198  1
  O  O382  1  0.10845276  0.76093069  0.74757936  1
  O  O383  1  0.63122542  0.26114339  0.24588789  1
  O  O384  1  0.62265104  0.25696139  0.75903455  1
  O  O385  1  0.61417029  0.74449763  0.26003536  1
  O  O386  1  0.61359893  0.75594202  0.75518132  1
  O  O387  1  0.38103075  0.25629763  0.25000550  1
  O  O388  1  0.37380758  0.23708053  0.74595573  1
  O  O389  1  0.39030865  0.74458086  0.24272194  1
  O  O390  1  0.38755108  0.74733255  0.74468531  1
  O  O391  1  0.87671751  0.24193721  0.23862766  1
  O  O392  1  0.88184651  0.25705593  0.73256200  1
  O  O393  1  0.88930215  0.75034190  0.24831223  1
  O  O394  1  0.88601911  0.74677953  0.74884867  1
  O  O395  1  0.37918116  0.49363695  0.49510920  1
  O  O396  1  0.38019604  0.49483566  0.99111530  1
  O  O397  1  0.37803179  0.99090728  0.49039774  1
  O  O398  1  0.39126258  1.00775569  1.00177950  1
  O  O399  1  0.88311707  0.49232423  0.48846464  1
  O  O400  1  0.87573490  0.48957955  1.00250051  1
  O  O401  1  0.87435233  0.99311948  0.49079309  1
  O  O402  1  0.88322802  0.99984368  0.99539809  1
  O  O403  1  0.10782703  0.00354433  0.00639362  1
  O  O404  1  0.12112943  0.01711165  0.50079207  1
  O  O405  1  0.12023810  0.49993876  0.00262540  1
  O  O406  1  0.11983068  0.50527902  0.50516862  1
  O  O407  1  0.62211186  0.00656142  0.00716922  1
  O  O408  1  0.62010065  0.00619876  0.50703350  1
  O  O409  1  0.61687940  0.50257958  0.00334648  1
  O  O410  1  0.61593364  0.50507228  0.51090927  1
  O  O411  1  0.36738040  0.38157280  0.11038285  1
  O  O412  1  0.36424092  0.37188024  0.62138227  1
  O  O413  1  0.37622178  0.86351265  0.12610973  1
  O  O414  1  0.36729071  0.87439383  0.61359258  1
  O  O415  1  0.87005226  0.36802078  0.11874361  1
  O  O416  1  0.87192143  0.36521292  0.61458110  1
  O  O417  1  0.86076683  0.87469791  0.12693063  1
  O  O418  1  0.86000468  0.87928726  0.62125248  1
  O  O419  1  0.13112758  0.13059277  0.38332511  1
  O  O420  1  0.13863850  0.11912018  0.87438019  1
  O  O421  1  0.13811696  0.62518941  0.38976511  1
  O  O422  1  0.13874361  0.62130297  0.88554446  1
  O  O423  1  0.63710099  0.12849586  0.38427846  1
  O  O424  1  0.63313172  0.12857016  0.88255208  1
  O  O425  1  0.63651420  0.62960004  0.37973680  1
  O  O426  1  0.63135958  0.63122835  0.87925563  1
