# generated using pymatgen
data_V85Zn86O256
_symmetry_space_group_name_H-M   'P 1'
_cell_length_a   16.92469110
_cell_length_b   16.93410553
_cell_length_c   16.92482776
_cell_angle_alpha   90.00861138
_cell_angle_beta   89.96208045
_cell_angle_gamma   89.96618597
_symmetry_Int_Tables_number   1
_chemical_formula_structural   V85Zn86O256
_chemical_formula_sum   'V85 Zn86 O256'
_cell_volume   4850.72992371
_cell_formula_units_Z   1
loop_
 _symmetry_equiv_pos_site_id
 _symmetry_equiv_pos_as_xyz
  1  'x, y, z'
loop_
 _atom_site_type_symbol
 _atom_site_label
 _atom_site_symmetry_multiplicity
 _atom_site_fract_x
 _atom_site_fract_y
 _atom_site_fract_z
 _atom_site_occupancy
  V  V0  1  0.38068606  0.38560441  0.00811900  1
  V  V1  1  0.87334617  0.00308130  0.37645612  1
  V  V2  1  0.24816129  0.75041478  0.51303364  1
  V  V3  1  0.50243383  0.23944215  0.24637111  1
  V  V4  1  0.24940655  0.12879283  0.87658134  1
  V  V5  1  0.62195402  0.49970496  0.12206259  1
  V  V6  1  0.88671702  0.37940495  -0.00417507  1
  V  V7  1  0.49946934  0.00392384  0.00776694  1
  V  V8  1  0.12557870  0.87552769  0.74524022  1
  V  V9  1  0.24879481  0.74494141  -0.00489872  1
  V  V10  1  0.12428232  0.37887961  0.75348332  1
  V  V11  1  0.75342858  0.62409463  0.88011834  1
  V  V12  1  0.12983576  0.37198542  0.24669548  1
  V  V13  1  0.36866807  0.62317309  0.25074008  1
  V  V14  1  0.62545448  0.62522336  0.00070119  1
  V  V15  1  0.00241643  0.24919664  0.25045856  1
  V  V16  1  0.00401808  0.62247048  0.62102875  1
  V  V17  1  0.12885089  0.12637902  0.50316915  1
  V  V18  1  0.76362835  0.63249341  0.37201923  1
  V  V19  1  -0.00041219  0.25359042  0.74844474  1
  V  V20  1  0.62704441  0.50412276  0.62587751  1
  V  V21  1  0.37241069  0.74652959  0.12297534  1
  V  V22  1  0.61867373  0.26077468  0.87817458  1
  V  V23  1  0.25601236  -0.00356300  0.25614121  1
  V  V24  1  0.62594327  0.37614028  0.24817409  1
  V  V25  1  0.25039333  0.36488360  0.62220701  1
  V  V26  1  0.47611169  0.87388695  0.37718389  1
  V  V27  1  0.36783804  0.50636845  0.37514365  1
  V  V28  1  0.25787055  0.12092320  0.37880875  1
  V  V29  1  0.87310521  0.86637714  0.00087146  1
  V  V30  1  0.24635490  0.50063424  0.24677568  1
  V  V31  1  -0.00364867  0.00473774  0.50749506  1
  V  V32  1  0.62694828  0.75005244  0.37886484  1
  V  V33  1  0.00025478  0.12345230  0.12417484  1
  V  V34  1  0.87688172  0.74619729  0.13789093  1
  V  V35  1  0.63142267  0.75020345  0.87875397  1
  V  V36  1  0.11955965  0.00579249  0.62872189  1
  V  V37  1  0.62989081  0.63271633  0.50142462  1
  V  V38  1  0.12992219  0.49949179  0.61537840  1
  V  V39  1  -0.00904136  0.61319055  0.11945043  1
  V  V40  1  -0.00323500  0.75040978  0.74947207  1
  V  V41  1  0.49915380  0.25663880  0.74538870  1
  V  V42  1  0.87340274  0.25211159  0.12316251  1
  V  V43  1  0.87184705  -0.00018665  0.87636486  1
  V  V44  1  0.12433553  0.49425354  0.11335553  1
  V  V45  1  0.00215689  0.87648145  0.37328712  1
  V  V46  1  -0.00670505  0.48952196  0.50207028  1
  V  V47  1  0.25816743  0.62342948  0.86414767  1
  V  V48  1  0.86953694  0.87477630  0.50046830  1
  V  V49  1  0.74785257  0.86963244  0.12190172  1
  V  V50  1  0.13201127  0.24934555  0.37942937  1
  V  V51  1  0.50113464  0.87382822  0.87692948  1
  V  V52  1  0.12587175  -0.00179246  0.12339365  1
  V  V53  1  0.87123751  0.48436085  0.37395292  1
  V  V54  1  0.37515226  0.87356227  -0.00324815  1
  V  V55  1  0.49876161  0.50520088  0.49956302  1
  V  V56  1  0.38992293  0.49621022  0.86807934  1
  V  V57  1  0.50036847  0.37780479  0.37399393  1
  V  V58  1  0.74719072  0.00369313  0.24965320  1
  V  V59  1  0.49784360  0.74674232  0.24947077  1
  V  V60  1  0.48689944  0.63015402  0.62691190  1
  V  V61  1  0.38221611  0.12580918  0.74365253  1
  V  V62  1  0.49663846  0.62096836  0.11758193  1
  V  V63  1  0.88064264  0.12826826  0.74996257  1
  V  V64  1  0.75270947  0.86930191  0.62952624  1
  V  V65  1  0.75465524  0.37555165  0.61175672  1
  V  V66  1  0.87674920  0.74480555  0.61178799  1
  V  V67  1  0.37174529  0.24242992  0.12458324  1
  V  V68  1  0.37067463  0.37011487  0.49786705  1
  V  V69  1  0.75034616  0.12908857  0.88094042  1
  V  V70  1  0.62339281  0.87788944  0.25374379  1
  V  V71  1  0.87582149  0.25241534  0.61474616  1
  V  V72  1  0.12243084  0.86632109  0.25232797  1
  V  V73  1  0.62043077  0.12793811  0.00710957  1
  V  V74  1  0.12545964  0.74914662  0.87528904  1
  V  V75  1  0.89212340  0.49927709  0.87792491  1
  V  V76  1  0.74932537  0.13334790  0.38464231  1
  V  V77  1  0.12151583  0.25453925  0.87702272  1
  V  V78  1  0.62981899  0.87886030  0.75151370  1
  V  V79  1  0.37503086  0.00082676  0.87667494  1
  V  V80  1  0.49241117  0.74992097  0.74243522  1
  V  V81  1  0.75304319  0.49633114  0.75362483  1
  V  V82  1  0.25183715  -0.00375518  0.74807794  1
  V  V83  1  0.24776957  0.87243362  0.12369269  1
  V  V84  1  0.62753884  0.25182966  0.38961786  1
  Zn  Zn85  1  0.15599845  0.66813438  0.41751289  1
  Zn  Zn86  1  -0.00150388  0.87552812  0.87718329  1
  Zn  Zn87  1  -0.00139085  -0.00283003  0.00076326  1
  Zn  Zn88  1  0.75432878  0.50530398  0.24684713  1
  Zn  Zn89  1  0.24855090  0.25575950  0.00633899  1
  Zn  Zn90  1  0.61937910  0.00625845  0.13131738  1
  Zn  Zn91  1  0.37823380  0.24464976  0.61715964  1
  Zn  Zn92  1  0.62206795  0.38018859  0.75459803  1
  Zn  Zn93  1  0.38099995  0.11735529  0.25097360  1
  Zn  Zn94  1  0.73504508  0.02277716  0.73003282  1
  Zn  Zn95  1  -0.00265660  0.36585251  0.38235314  1
  Zn  Zn96  1  0.87472600  0.62384111  0.74968494  1
  Zn  Zn97  1  0.75210071  0.37967052  0.12328878  1
  Zn  Zn98  1  0.60716659  0.04143921  0.59456202  1
  Zn  Zn99  1  0.12667744  0.12558199  0.00035762  1
  Zn  Zn100  1  0.01166919  0.72355594  0.26829899  1
  Zn  Zn101  1  0.74797334  0.25626405  0.00124790  1
  Zn  Zn102  1  0.25738600  0.50241829  0.74550698  1
  Zn  Zn103  1  0.87521095  0.12528263  0.24842732  1
  Zn  Zn104  1  0.12039743  0.61612998  -0.00615316  1
  Zn  Zn105  1  0.47890791  0.01351687  0.50591275  1
  Zn  Zn106  1  0.36435048  0.87279537  0.53028353  1
  Zn  Zn107  1  0.19128810  0.18395139  0.19018785  1
  Zn  Zn108  1  0.18867291  0.18595695  0.68984554  1
  Zn  Zn109  1  0.18279086  0.68027725  0.18315364  1
  Zn  Zn110  1  0.18362903  0.68534494  0.68290800  1
  Zn  Zn111  1  0.68766084  0.18834529  0.19062523  1
  Zn  Zn112  1  0.69095594  0.19672148  0.69076044  1
  Zn  Zn113  1  0.68829792  0.68836001  0.19068984  1
  Zn  Zn114  1  0.68819132  0.69013168  0.69079749  1
  Zn  Zn115  1  0.31207430  0.31179391  0.31047608  1
  Zn  Zn116  1  0.31323983  0.31734118  0.81453439  1
  Zn  Zn117  1  0.29645297  0.79724541  0.31708929  1
  Zn  Zn118  1  0.31334633  0.80871173  0.70347440  1
  Zn  Zn119  1  0.81004205  0.31179969  0.30735936  1
  Zn  Zn120  1  0.81173020  0.31476144  0.81601267  1
  Zn  Zn121  1  0.81294969  0.81436348  0.31289772  1
  Zn  Zn122  1  0.81340059  0.80996241  0.81247204  1
  Zn  Zn123  1  0.18786708  0.43719913  0.43567628  1
  Zn  Zn124  1  0.20038502  0.43318576  0.93495952  1
  Zn  Zn125  1  0.19179820  0.93187453  0.44093318  1
  Zn  Zn126  1  0.18749149  0.93457376  0.93496800  1
  Zn  Zn127  1  0.68594785  0.44363829  0.43587945  1
  Zn  Zn128  1  0.69244404  0.43917238  0.94263783  1
  Zn  Zn129  1  0.68742083  0.94171682  0.43805855  1
  Zn  Zn130  1  0.68896169  0.94136092  0.93962543  1
  Zn  Zn131  1  0.31250461  0.06518041  0.06457428  1
  Zn  Zn132  1  0.31175314  0.05424390  0.56487115  1
  Zn  Zn133  1  0.30759536  0.55843627  0.05945891  1
  Zn  Zn134  1  0.30494742  0.56636711  0.55557838  1
  Zn  Zn135  1  0.81119727  0.06017167  0.06284731  1
  Zn  Zn136  1  0.79605093  0.07214555  0.57473236  1
  Zn  Zn137  1  0.81016790  0.56012909  0.05972807  1
  Zn  Zn138  1  0.81287058  0.56314761  0.55782809  1
  Zn  Zn139  1  0.43834473  0.43427215  0.18594784  1
  Zn  Zn140  1  0.43783695  0.43837657  0.68511908  1
  Zn  Zn141  1  0.43658460  0.93281977  0.18809319  1
  Zn  Zn142  1  0.45025629  0.94716013  0.68463001  1
  Zn  Zn143  1  0.94085413  0.43535939  0.18974380  1
  Zn  Zn144  1  0.93768961  0.43516375  0.69026977  1
  Zn  Zn145  1  0.93523318  0.93697506  0.18812009  1
  Zn  Zn146  1  0.93416462  0.93909002  0.68973310  1
  Zn  Zn147  1  0.06671219  0.05961849  0.31256649  1
  Zn  Zn148  1  0.05912194  0.06502216  0.81635846  1
  Zn  Zn149  1  0.05025509  0.55027428  0.30489561  1
  Zn  Zn150  1  0.06784527  0.56533003  0.80523160  1
  Zn  Zn151  1  0.54945386  0.07377578  0.35229521  1
  Zn  Zn152  1  0.56146550  0.06629179  0.81736863  1
  Zn  Zn153  1  0.56197144  0.56433696  0.31100639  1
  Zn  Zn154  1  0.56398238  0.56604582  0.81006436  1
  Zn  Zn155  1  0.44339411  0.18874672  0.43826894  1
  Zn  Zn156  1  0.43853526  0.19083808  0.93631540  1
  Zn  Zn157  1  0.43271375  0.69392803  0.44234569  1
  Zn  Zn158  1  0.43853474  0.68580581  0.93142541  1
  Zn  Zn159  1  0.94117612  0.18397186  0.43661533  1
  Zn  Zn160  1  0.94121273  0.19019993  0.93951111  1
  Zn  Zn161  1  0.96354156  0.67633194  0.42891311  1
  Zn  Zn162  1  0.93745108  0.68702648  0.94164310  1
  Zn  Zn163  1  0.06301762  0.31224735  0.06217375  1
  Zn  Zn164  1  0.06269848  0.30927270  0.56593021  1
  Zn  Zn165  1  0.05696459  0.80691541  0.06386925  1
  Zn  Zn166  1  0.06492222  0.81661085  0.56007588  1
  Zn  Zn167  1  0.55451131  0.31432013  0.06299301  1
  Zn  Zn168  1  0.56080506  0.31862165  0.56822417  1
  Zn  Zn169  1  0.56403174  0.81007437  0.06311808  1
  Zn  Zn170  1  0.57499944  0.84926911  0.54606992  1
  O  O171  1  0.12007994  0.11619775  0.12427923  1
  O  O172  1  0.12713277  0.11528120  0.61985552  1
  O  O173  1  0.11421122  0.61142589  0.11999384  1
  O  O174  1  0.11513746  0.61045375  0.63212398  1
  O  O175  1  0.63001693  0.12588358  0.11159992  1
  O  O176  1  0.68927095  0.09852571  0.63703130  1
  O  O177  1  0.61830148  0.62203095  0.12015191  1
  O  O178  1  0.62527341  0.62364592  0.61622641  1
  O  O179  1  0.37792895  0.38490048  0.37905771  1
  O  O180  1  0.37384308  0.39081734  0.88167651  1
  O  O181  1  0.37898661  0.86731961  0.35849163  1
  O  O182  1  0.38430252  0.88508183  0.88442113  1
  O  O183  1  0.87168308  0.38138277  0.37795487  1
  O  O184  1  0.87420538  0.38337329  0.88687867  1
  O  O185  1  0.87507575  0.88619388  0.38299142  1
  O  O186  1  0.87177472  0.88110775  0.88315385  1
  O  O187  1  0.24139123  0.00672679  0.36597108  1
  O  O188  1  0.25225362  0.00677296  0.86763848  1
  O  O189  1  0.25603301  0.49977612  0.36305502  1
  O  O190  1  0.25779514  0.50995066  0.87024385  1
  O  O191  1  0.75222812  0.00977900  0.36920880  1
  O  O192  1  0.76009677  0.00985889  0.87612830  1
  O  O193  1  0.76034961  0.50949615  0.37471124  1
  O  O194  1  0.75723636  0.50642118  0.86929913  1
  O  O195  1  0.24000695  0.50272133  0.13745892  1
  O  O196  1  0.24343904  0.49237547  0.62527586  1
  O  O197  1  0.24302637  0.99288393  0.12908389  1
  O  O198  1  0.23780518  1.00416953  0.64287514  1
  O  O199  1  0.73651716  0.50302804  0.12865894  1
  O  O200  1  0.75008498  0.49438371  0.63257181  1
  O  O201  1  0.74662319  0.99222778  0.13446861  1
  O  O202  1  0.77463902  0.97200185  0.62984251  1
  O  O203  1  0.01168807  0.36693182  0.25491269  1
  O  O204  1  0.01451570  0.36902377  0.74804287  1
  O  O205  1  0.00943899  0.88225647  0.25732009  1
  O  O206  1  0.00488728  0.86744305  0.75413639  1
  O  O207  1  0.51000688  0.37067362  0.25516846  1
  O  O208  1  0.50221531  0.36173167  0.74700087  1
  O  O209  1  0.50642841  0.86524140  0.25381213  1
  O  O210  1  0.51137560  0.86642785  0.75845732  1
  O  O211  1  0.49972536  0.13608323  0.26194784  1
  O  O212  1  0.49017013  0.13519167  0.75640686  1
  O  O213  1  0.49117717  0.62834476  0.23935646  1
  O  O214  1  0.50960748  0.64010962  0.74021772  1
  O  O215  1  1.00135317  0.12897103  0.23964181  1
  O  O216  1  0.98811212  0.13502843  0.75611164  1
  O  O217  1  0.99503316  0.61734459  0.22564481  1
  O  O218  1  0.99793464  0.63311015  0.73926239  1
  O  O219  1  0.37538840  0.25009571  0.01405657  1
  O  O220  1  0.38335935  0.26492470  0.49898850  1
  O  O221  1  0.36729047  0.75234521  0.00208154  1
  O  O222  1  0.35661938  0.75139117  0.50197719  1
  O  O223  1  0.87514786  0.26016225  0.00588580  1
  O  O224  1  0.88562031  0.24448026  0.51563588  1
  O  O225  1  0.87553190  0.76220423  0.00810831  1
  O  O226  1  0.88774736  0.75640720  0.50836101  1
  O  O227  1  0.11862852  0.23843232  0.49289134  1
  O  O228  1  0.12879728  0.24934221  0.99202722  1
  O  O229  1  0.13506241  0.74790251  0.50916366  1
  O  O230  1  0.13139366  0.75106805  0.99054638  1
  O  O231  1  0.62015065  0.25895635  0.48872657  1
  O  O232  1  0.62240774  0.24533774  0.99499566  1
  O  O233  1  0.62105141  0.74916264  0.48613000  1
  O  O234  1  0.62313712  0.73689563  0.99405907  1
  O  O235  1  0.48908835  0.25264995  0.13689469  1
  O  O236  1  0.50005676  0.24843663  0.63906347  1
  O  O237  1  0.49314869  0.74253234  0.13035457  1
  O  O238  1  0.50335364  0.74552256  0.63839698  1
  O  O239  1  0.99276909  0.24253996  0.12921320  1
  O  O240  1  0.99139835  0.25513409  0.63983583  1
  O  O241  1  0.99194803  0.73709328  0.12885920  1
  O  O242  1  0.99669333  0.74180471  0.63013415  1
  O  O243  1  0.01082345  0.24663478  0.36770758  1
  O  O244  1  0.01359002  0.24669113  0.86661425  1
  O  O245  1  -0.01846319  0.77469727  0.37155731  1
  O  O246  1  0.00690778  0.74816650  0.86642999  1
  O  O247  1  0.50943056  0.26147211  0.36578544  1
  O  O248  1  0.50934646  0.24669349  0.86324333  1
  O  O249  1  0.50584900  0.75459954  0.36665510  1
  O  O250  1  0.51321644  0.75293803  0.87030768  1
  O  O251  1  0.23657061  0.11736658  0.49411370  1
  O  O252  1  0.25005645  0.12746556  0.98768721  1
  O  O253  1  0.23810050  0.63765233  0.50175482  1
  O  O254  1  0.24504252  0.63210305  0.99304994  1
  O  O255  1  0.75036814  0.12241730  0.48274456  1
  O  O256  1  0.74454459  0.12864141  0.99362667  1
  O  O257  1  0.73772448  0.62307686  0.48782429  1
  O  O258  1  0.74257696  0.62222070  0.98770475  1
  O  O259  1  0.27202425  0.36790904  -0.00479219  1
  O  O260  1  0.25979395  0.38022101  0.50707456  1
  O  O261  1  0.25486376  0.86518566  0.00260146  1
  O  O262  1  0.24712721  0.86017887  0.50587195  1
  O  O263  1  0.76216146  0.37329152  0.00595948  1
  O  O264  1  0.74873834  0.38408303  0.51335423  1
  O  O265  1  0.75347702  0.87948002  0.01530391  1
  O  O266  1  0.76506132  0.87368479  0.50510476  1
  O  O267  1  0.12936683  0.49111908  0.24437722  1
  O  O268  1  0.12810462  0.49180684  0.73887869  1
  O  O269  1  0.13363089  0.99208566  0.23852988  1
  O  O270  1  0.12707439  0.99566795  0.74870341  1
  O  O271  1  0.62544161  0.49280361  0.24344513  1
  O  O272  1  0.63404334  0.50061154  0.74461342  1
  O  O273  1  0.63037784  0.99117359  0.25109488  1
  O  O274  1  0.62684646  0.98586286  0.76162515  1
  O  O275  1  0.36052190  -0.00103966  0.24225919  1
  O  O276  1  0.36816069  0.00847873  0.75817165  1
  O  O277  1  0.36622951  0.50181647  0.25415492  1
  O  O278  1  0.37607583  0.49684680  0.76270799  1
  O  O279  1  0.86499697  0.00039719  0.25729660  1
  O  O280  1  0.87316169  0.01158193  0.75910407  1
  O  O281  1  0.87381173  0.49390361  0.26729135  1
  O  O282  1  0.87005513  0.50095812  0.75971557  1
  O  O283  1  0.12357238  0.36459182  0.37020287  1
  O  O284  1  0.13286125  0.36776921  0.86505690  1
  O  O285  1  0.11449964  0.88411889  0.36431916  1
  O  O286  1  0.12209532  0.86378754  0.86707725  1
  O  O287  1  0.62319829  0.37178249  0.36731220  1
  O  O288  1  0.63114606  0.36419692  0.87636334  1
  O  O289  1  0.62909377  0.86549152  0.36379711  1
  O  O290  1  0.62462830  0.86673821  0.87442987  1
  O  O291  1  0.37590921  0.13711616  0.13032363  1
  O  O292  1  0.36076291  0.12976414  0.64066311  1
  O  O293  1  0.38031106  0.62635676  0.12709742  1
  O  O294  1  0.38850760  0.61643213  0.62081993  1
  O  O295  1  0.88317961  0.13128259  0.12493874  1
  O  O296  1  0.86653178  0.13926270  0.63985791  1
  O  O297  1  0.88183380  0.63121231  0.11503523  1
  O  O298  1  0.88044914  0.63030066  0.62652916  1
  O  O299  1  0.26589804  0.24769191  0.12824089  1
  O  O300  1  0.25216726  0.26173785  0.62764394  1
  O  O301  1  0.25121012  0.75140495  0.11412416  1
  O  O302  1  0.25238289  0.74996726  0.62410039  1
  O  O303  1  0.76474464  0.24964785  0.12607468  1
  O  O304  1  0.75824982  0.26893407  0.62912701  1
  O  O305  1  0.75873730  0.75864418  0.13277988  1
  O  O306  1  0.76591834  0.75514074  0.63096766  1
  O  O307  1  0.23784299  0.24091711  0.36953576  1
  O  O308  1  0.24024812  0.24293619  0.87182020  1
  O  O309  1  0.23921596  0.74314188  0.39335405  1
  O  O310  1  0.24257101  0.74210130  0.88488152  1
  O  O311  1  0.74537202  0.24130255  0.37140690  1
  O  O312  1  0.74117309  0.24475407  0.87928254  1
  O  O313  1  0.74495283  0.73961192  0.37218016  1
  O  O314  1  0.73994146  0.74031581  0.87010587  1
  O  O315  1  0.00337651  0.12243492  0.01298115  1
  O  O316  1  0.01206208  0.11073379  0.49354130  1
  O  O317  1  0.00511813  0.62848393  0.01258507  1
  O  O318  1  -0.00336170  0.60914443  0.51525661  1
  O  O319  1  0.50811497  0.11591873  -0.00571186  1
  O  O320  1  0.51755265  0.11019311  0.45900399  1
  O  O321  1  0.50559199  0.62977801  0.01199056  1
  O  O322  1  0.50949710  0.62584288  0.50667322  1
  O  O323  1  0.49326185  0.38668388  0.49610539  1
  O  O324  1  0.47994131  0.36682916  0.99430710  1
  O  O325  1  0.48035381  0.85639871  0.48171893  1
  O  O326  1  0.49673433  0.87932522  0.99562446  1
  O  O327  1  1.00196947  0.38479486  0.50245894  1
  O  O328  1  0.98601196  0.37187896  1.00063380  1
  O  O329  1  0.99318177  0.88684052  0.49445299  1
  O  O330  1  0.98919257  0.87616626  0.99855476  1
  O  O331  1  0.49300977  0.49606386  0.37873494  1
  O  O332  1  0.48889827  0.50653638  0.87290512  1
  O  O333  1  0.49805791  0.97235464  0.36947401  1
  O  O334  1  0.49599562  0.99439256  0.88581722  1
  O  O335  1  0.98600728  0.49074274  0.38304772  1
  O  O336  1  0.99090266  0.50988434  0.87061132  1
  O  O337  1  0.99256082  0.99584790  0.38105498  1
  O  O338  1  0.98571699  0.99924461  0.87872808  1
  O  O339  1  0.00696813  0.00667189  0.12557766  1
  O  O340  1  0.00455995  -0.00002194  0.61876506  1
  O  O341  1  0.00560982  0.50506466  0.12155655  1
  O  O342  1  0.00383467  0.50314760  0.62073055  1
  O  O343  1  0.50072260  -0.00711767  0.11245392  1
  O  O344  1  0.50168952  0.02153230  0.62200722  1
  O  O345  1  0.51085510  0.50869490  0.12997348  1
  O  O346  1  0.50823047  0.50900172  0.62081870  1
  O  O347  1  0.23736350  0.38183626  0.25404873  1
  O  O348  1  0.24153069  0.37677685  0.74093245  1
  O  O349  1  0.24130610  0.87763732  0.24492155  1
  O  O350  1  0.23740320  0.88390881  0.75652430  1
  O  O351  1  0.73742453  0.37800966  0.24471115  1
  O  O352  1  0.74888160  0.38771561  0.74755453  1
  O  O353  1  0.74387852  0.88359454  0.24420048  1
  O  O354  1  0.74384518  0.87260947  0.74589203  1
  O  O355  1  0.25036175  0.11248922  0.25958230  1
  O  O356  1  0.25498784  0.11897833  0.76165413  1
  O  O357  1  0.25708103  0.61689416  0.24674077  1
  O  O358  1  0.24872372  0.62640254  0.76112266  1
  O  O359  1  0.75254837  0.11370702  0.25284161  1
  O  O360  1  0.76329135  0.13290819  0.76940074  1
  O  O361  1  0.74571645  0.62264740  0.26819878  1
  O  O362  1  0.75135119  0.61510053  0.76059248  1
  O  O363  1  0.35973242  0.13388586  0.37306816  1
  O  O364  1  0.36760375  0.12146670  0.86815589  1
  O  O365  1  0.38351297  0.61246485  0.36814770  1
  O  O366  1  0.36780852  0.61026279  0.88333575  1
  O  O367  1  0.86511712  0.12272934  0.37076695  1
  O  O368  1  0.87005631  0.12018965  0.87646810  1
  O  O369  1  0.86501009  0.62240806  0.38127298  1
  O  O370  1  0.86831929  0.61928869  0.87601327  1
  O  O371  1  0.11997302  0.38147942  0.13414115  1
  O  O372  1  0.13292227  0.37977733  0.62968623  1
  O  O373  1  0.12805794  0.87985772  0.12943768  1
  O  O374  1  0.11623400  0.88844579  0.63863314  1
  O  O375  1  0.62307240  0.38360295  0.12924202  1
  O  O376  1  0.63754291  0.38456895  0.62856320  1
  O  O377  1  0.63112486  0.87205730  0.13705877  1
  O  O378  1  0.64012103  0.86235783  0.63954753  1
  O  O379  1  0.12229549  0.25441325  0.25483936  1
  O  O380  1  0.11828508  0.25575416  0.75437410  1
  O  O381  1  0.12288590  0.76191821  0.24185432  1
  O  O382  1  0.11619282  0.75704822  0.75340518  1
  O  O383  1  0.61854218  0.25893911  0.25181318  1
  O  O384  1  0.61501846  0.25174235  0.75750003  1
  O  O385  1  0.61851026  0.75411659  0.25938870  1
  O  O386  1  0.62027999  0.75780343  0.76087479  1
  O  O387  1  0.38353913  0.25141967  0.24091014  1
  O  O388  1  0.38614463  0.24599350  0.75178458  1
  O  O389  1  0.37443000  0.74061502  0.24248185  1
  O  O390  1  0.39505928  0.74910439  0.76478805  1
  O  O391  1  0.88379736  0.25006710  0.24117864  1
  O  O392  1  0.88355039  0.24856911  0.75054039  1
  O  O393  1  0.88092014  0.75463057  0.23988240  1
  O  O394  1  0.88723810  0.74914414  0.74370906  1
  O  O395  1  0.37763300  0.49570172  0.49051958  1
  O  O396  1  0.37546330  0.49116225  0.99543756  1
  O  O397  1  0.36901840  0.98545176  0.50141494  1
  O  O398  1  0.38062394  0.99655922  0.99736501  1
  O  O399  1  0.88068967  0.50147492  0.48734851  1
  O  O400  1  0.87382450  0.48828478  0.99308715  1
  O  O401  1  0.88065881  0.99564753  0.49811068  1
  O  O402  1  0.87398806  0.98819301  0.99496753  1
  O  O403  1  0.12464717  -0.00185051  0.01197479  1
  O  O404  1  0.11847542  0.00247621  0.51178706  1
  O  O405  1  0.13439637  0.49416792  0.01035364  1
  O  O406  1  0.11707060  0.49536775  0.50935148  1
  O  O407  1  0.61685166  0.00878507  0.00233761  1
  O  O408  1  0.60602202  -0.03911209  0.51120537  1
  O  O409  1  0.62662564  0.51316728  0.00730817  1
  O  O410  1  0.61823138  0.51233738  0.50349618  1
  O  O411  1  0.37806762  0.36695432  0.11534104  1
  O  O412  1  0.36794162  0.37497986  0.61537465  1
  O  O413  1  0.36730018  0.86537704  0.11827137  1
  O  O414  1  0.38133119  0.87257064  0.64289906  1
  O  O415  1  0.87653502  0.36917201  0.11714600  1
  O  O416  1  0.86328205  0.36968662  0.62895326  1
  O  O417  1  0.86835583  0.86724846  0.12092374  1
  O  O418  1  0.87861362  0.86190460  0.61858530  1
  O  O419  1  0.13230240  0.12949616  0.38220368  1
  O  O420  1  0.13225193  0.13243924  0.87696583  1
  O  O421  1  0.06357764  0.64497258  0.36430248  1
  O  O422  1  0.13201741  0.63528624  0.87377154  1
  O  O423  1  0.64361894  0.13941934  0.36340031  1
  O  O424  1  0.63335489  0.13319322  0.88494924  1
  O  O425  1  0.63017352  0.63217056  0.38131888  1
  O  O426  1  0.63106992  0.62990736  0.88257391  1
