# generated using pymatgen
data_V85Zn86O256
_symmetry_space_group_name_H-M   'P 1'
_cell_length_a   16.92390332
_cell_length_b   16.93378159
_cell_length_c   16.92887745
_cell_angle_alpha   89.97918585
_cell_angle_beta   89.94146380
_cell_angle_gamma   89.96660383
_symmetry_Int_Tables_number   1
_chemical_formula_structural   V85Zn86O256
_chemical_formula_sum   'V85 Zn86 O256'
_cell_volume   4851.57022284
_cell_formula_units_Z   1
loop_
 _symmetry_equiv_pos_site_id
 _symmetry_equiv_pos_as_xyz
  1  'x, y, z'
loop_
 _atom_site_type_symbol
 _atom_site_label
 _atom_site_symmetry_multiplicity
 _atom_site_fract_x
 _atom_site_fract_y
 _atom_site_fract_z
 _atom_site_occupancy
  V  V0  1  0.00008997  0.12348631  0.12928348  1
  V  V1  1  0.74809862  0.00374770  0.25124253  1
  V  V2  1  0.75294297  0.86972438  0.12456022  1
  V  V3  1  0.12449197  0.24436963  0.36668401  1
  V  V4  1  0.11447697  0.24443502  0.86964416  1
  V  V5  1  0.37119377  0.76593769  0.12113557  1
  V  V6  1  0.51120299  0.12763846  0.62341813  1
  V  V7  1  0.87708076  0.13001580  0.25582892  1
  V  V8  1  0.75007386  -0.00623095  0.75515413  1
  V  V9  1  0.37735777  0.24338199  0.12175356  1
  V  V10  1  0.24897818  0.25191104  -0.00103012  1
  V  V11  1  0.36653708  0.75706198  0.62545181  1
  V  V12  1  0.36614179  0.37501199  0.49900429  1
  V  V13  1  0.62271402  0.75148903  0.37167545  1
  V  V14  1  -0.00680401  0.62490557  0.62644155  1
  V  V15  1  0.87521519  0.12851198  0.75368679  1
  V  V16  1  0.73672852  0.87137789  0.63032652  1
  V  V17  1  0.62827437  0.62888065  -0.00837248  1
  V  V18  1  0.12301571  0.12298968  0.00142562  1
  V  V19  1  0.37541729  0.62520284  0.74997345  1
  V  V20  1  0.37276534  0.24825411  0.62697808  1
  V  V21  1  0.50510889  0.00526366  0.49946024  1
  V  V22  1  0.51348667  0.87199080  0.88017954  1
  V  V23  1  0.74519153  0.24678585  0.00047162  1
  V  V24  1  0.50227211  0.24186887  0.24443172  1
  V  V25  1  -0.00183860  0.36662365  0.36475981  1
  V  V26  1  0.74855207  0.74807721  0.50025186  1
  V  V27  1  -0.00242000  0.50036390  0.49522516  1
  V  V28  1  0.24723837  0.50165261  0.74664498  1
  V  V29  1  0.00024803  0.00039789  0.50321817  1
  V  V30  1  -0.00485813  0.75222138  0.74948808  1
  V  V31  1  0.88150802  0.25275146  0.12853835  1
  V  V32  1  0.12843213  0.62394610  0.02406698  1
  V  V33  1  0.24477312  0.62681266  0.87905334  1
  V  V34  1  0.25247545  0.12149736  0.87153104  1
  V  V35  1  0.50124545  0.01298184  0.00385459  1
  V  V36  1  0.49833434  0.49769728  0.49920379  1
  V  V37  1  0.12891703  -0.01071869  0.62835387  1
  V  V38  1  0.50063176  0.37210316  0.37442924  1
  V  V39  1  0.25204313  0.62522183  0.37101640  1
  V  V40  1  0.49899411  0.62557699  0.62743669  1
  V  V41  1  0.75134285  0.62605773  0.37032207  1
  V  V42  1  0.75315785  0.37499671  0.12453501  1
  V  V43  1  0.37330181  0.61946820  0.24533756  1
  V  V44  1  0.12673781  0.49540659  0.61542440  1
  V  V45  1  0.86771006  0.00386660  0.37811230  1
  V  V46  1  0.49361151  0.87775032  0.37635503  1
  V  V47  1  0.12608770  0.62904431  0.49633740  1
  V  V48  1  -0.01849981  0.61996377  0.13294237  1
  V  V49  1  0.74887465  0.50510591  0.24914423  1
  V  V50  1  0.49892842  0.37404238  0.87503916  1
  V  V51  1  0.62260606  0.62318946  0.49753447  1
  V  V52  1  0.62481958  0.50116385  0.12288197  1
  V  V53  1  0.87292717  0.50246341  0.37049818  1
  V  V54  1  -0.00083045  0.13244930  0.62526602  1
  V  V55  1  0.87620137  0.88249983  -0.00166894  1
  V  V56  1  0.74742930  0.11911240  0.87962304  1
  V  V57  1  0.87277298  0.36963091  0.50199047  1
  V  V58  1  0.49857896  0.75307429  0.24562643  1
  V  V59  1  0.36862746  0.12637865  0.25712900  1
  V  V60  1  0.37260002  0.50060166  0.87502841  1
  V  V61  1  0.62808630  0.23511723  0.37802663  1
  V  V62  1  0.25042760  0.76670904  0.00389574  1
  V  V63  1  0.00018533  0.87482341  0.37447004  1
  V  V64  1  0.12742188  0.87459097  0.23979120  1
  V  V65  1  0.12450187  0.75383516  0.87068643  1
  V  V66  1  -0.00145293  0.88224574  0.87003197  1
  V  V67  1  0.87237706  0.87266241  0.50638906  1
  V  V68  1  0.88286100  0.37693508  -0.01508394  1
  V  V69  1  0.62534528  0.01397464  0.11999207  1
  V  V70  1  0.24775288  0.00168348  0.25041794  1
  V  V71  1  -0.01509643  0.75075140  0.24626289  1
  V  V72  1  0.24943385  0.23843184  0.49508733  1
  V  V73  1  0.24653243  0.38566463  0.12931710  1
  V  V74  1  0.10495118  0.40439316  0.78735224  1
  V  V75  1  0.74871350  0.23626194  0.50051487  1
  V  V76  1  0.76539932  0.50799821  0.75996756  1
  V  V77  1  0.76208797  0.74316688  -0.00440516  1
  V  V78  1  0.75213494  0.37183088  0.62479728  1
  V  V79  1  0.24899761  -0.01747057  0.74867132  1
  V  V80  1  0.49895026  0.24999749  0.75134190  1
  V  V81  1  0.50126796  0.50133269  -0.00158023  1
  V  V82  1  0.62813729  0.37572795  0.75228920  1
  V  V83  1  0.37613942  -0.01060179  0.88068052  1
  V  V84  1  0.62407253  0.37397420  0.25060344  1
  Zn  Zn85  1  0.63673187  0.74827509  0.86498105  1
  Zn  Zn86  1  0.11909593  0.38110173  0.23811928  1
  Zn  Zn87  1  0.62213889  0.24435196  0.88114144  1
  Zn  Zn88  1  -0.00257117  0.25636994  0.74566027  1
  Zn  Zn89  1  0.12964112  -0.00361904  0.12190270  1
  Zn  Zn90  1  0.24637529  0.75919913  0.50118120  1
  Zn  Zn91  1  0.62325932  0.87785346  0.24542655  1
  Zn  Zn92  1  0.37619436  0.12215875  0.75129661  1
  Zn  Zn93  1  0.62716897  0.49915878  0.62670658  1
  Zn  Zn94  1  0.24347144  0.36950836  0.62942253  1
  Zn  Zn95  1  0.37501521  0.49687121  0.36522846  1
  Zn  Zn96  1  0.49964645  0.63127376  0.12010487  1
  Zn  Zn97  1  0.36591099  0.00694273  0.38166953  1
  Zn  Zn98  1  0.12819352  0.12124573  0.49839102  1
  Zn  Zn99  1  -0.00306067  0.49981575  -0.02975847  1
  Zn  Zn100  1  0.86930007  0.74220322  0.63300794  1
  Zn  Zn101  1  0.50672755  0.76438006  0.74536427  1
  Zn  Zn102  1  0.12604609  0.75181373  0.37340396  1
  Zn  Zn103  1  -0.00431494  0.00249063  -0.00366320  1
  Zn  Zn104  1  0.62592774  0.00159565  0.62669924  1
  Zn  Zn105  1  0.37287559  0.37623068  -0.00034516  1
  Zn  Zn106  1  0.36711536  0.88371296  0.50780232  1
  Zn  Zn107  1  0.18913943  0.18913572  0.18737636  1
  Zn  Zn108  1  0.18393224  0.18287063  0.68735204  1
  Zn  Zn109  1  0.19277082  0.69785498  0.19464708  1
  Zn  Zn110  1  0.18124091  0.68601698  0.68866742  1
  Zn  Zn111  1  0.69320652  0.18739072  0.18995572  1
  Zn  Zn112  1  0.69103256  0.19079419  0.69073008  1
  Zn  Zn113  1  0.68737848  0.68778404  0.18149568  1
  Zn  Zn114  1  0.68506846  0.68434347  0.68907201  1
  Zn  Zn115  1  0.31043441  0.31064880  0.31155032  1
  Zn  Zn116  1  0.30478030  0.31611013  0.81228864  1
  Zn  Zn117  1  0.31015270  0.81331491  0.31243738  1
  Zn  Zn118  1  0.31878128  0.80982031  0.81509534  1
  Zn  Zn119  1  0.80936542  0.31200818  0.31524897  1
  Zn  Zn120  1  0.81183958  0.30765582  0.81175918  1
  Zn  Zn121  1  0.81029217  0.81800727  0.31498457  1
  Zn  Zn122  1  0.81766893  0.81177352  0.81427855  1
  Zn  Zn123  1  0.17028020  0.45575697  0.39540336  1
  Zn  Zn124  1  0.18015393  0.44335951  0.94429860  1
  Zn  Zn125  1  0.18921242  0.93838908  0.43566672  1
  Zn  Zn126  1  0.18302663  0.93839483  0.93470141  1
  Zn  Zn127  1  0.68569173  0.43325751  0.43674319  1
  Zn  Zn128  1  0.69161274  0.43555913  0.93527793  1
  Zn  Zn129  1  0.68328873  0.93706701  0.43861730  1
  Zn  Zn130  1  0.68858387  0.93903373  0.94099122  1
  Zn  Zn131  1  0.31319139  0.05987019  0.06610767  1
  Zn  Zn132  1  0.31591509  0.06096990  0.56710129  1
  Zn  Zn133  1  0.31525781  0.56806043  0.06336702  1
  Zn  Zn134  1  0.31134698  0.56565683  0.55818001  1
  Zn  Zn135  1  0.81258263  0.06210498  0.06521794  1
  Zn  Zn136  1  0.81537302  0.05950622  0.57191224  1
  Zn  Zn137  1  0.81373210  0.55952818  0.05754914  1
  Zn  Zn138  1  0.80943462  0.55712163  0.56212581  1
  Zn  Zn139  1  0.43555239  0.43153096  0.18235518  1
  Zn  Zn140  1  0.43672093  0.43642152  0.68573894  1
  Zn  Zn141  1  0.43742542  0.94326234  0.18663874  1
  Zn  Zn142  1  0.44045996  0.94098705  0.69324332  1
  Zn  Zn143  1  0.93619507  0.44022896  0.18719668  1
  Zn  Zn144  1  0.93809813  0.43733344  0.68295025  1
  Zn  Zn145  1  0.93537019  0.93892329  0.18557801  1
  Zn  Zn146  1  0.93458478  0.94100742  0.69025938  1
  Zn  Zn147  1  0.06049805  0.06146535  0.31247565  1
  Zn  Zn148  1  0.06350222  0.06107193  0.80801153  1
  Zn  Zn149  1  0.06223392  0.56383768  0.30499636  1
  Zn  Zn150  1  0.04095509  0.57781414  0.82604078  1
  Zn  Zn151  1  0.55964130  0.06155628  0.30979648  1
  Zn  Zn152  1  0.56626888  0.06058297  0.81216145  1
  Zn  Zn153  1  0.55905002  0.56429774  0.31079769  1
  Zn  Zn154  1  0.56733111  0.56215269  0.81019368  1
  Zn  Zn155  1  0.44066731  0.18781044  0.43841663  1
  Zn  Zn156  1  0.43471127  0.18446069  0.93600036  1
  Zn  Zn157  1  0.43398063  0.68976286  0.43755951  1
  Zn  Zn158  1  0.43622593  0.68951937  0.93905250  1
  Zn  Zn159  1  0.93676028  0.18692319  0.43959710  1
  Zn  Zn160  1  0.93226986  0.18643472  0.93818449  1
  Zn  Zn161  1  0.93642251  0.68785973  0.43564011  1
  Zn  Zn162  1  0.94183722  0.68431594  0.94102465  1
  Zn  Zn163  1  0.06166993  0.31283490  0.05960334  1
  Zn  Zn164  1  0.06241408  0.31106246  0.55322132  1
  Zn  Zn165  1  0.05748053  0.80743783  0.06192609  1
  Zn  Zn166  1  0.06092730  0.81210147  0.56346230  1
  Zn  Zn167  1  0.56246843  0.31306244  0.06263634  1
  Zn  Zn168  1  0.56529313  0.31141856  0.56244237  1
  Zn  Zn169  1  0.56614344  0.81916295  0.05743159  1
  Zn  Zn170  1  0.55713604  0.81120617  0.55888364  1
  O  O171  1  0.11602580  0.12859723  0.11846488  1
  O  O172  1  0.11532271  0.11446192  0.62287541  1
  O  O173  1  0.13259693  0.62726952  0.12476524  1
  O  O174  1  0.11844642  0.61652964  0.61378928  1
  O  O175  1  0.63182852  0.11347546  0.12791601  1
  O  O176  1  0.61401262  0.12920903  0.62866846  1
  O  O177  1  0.62103583  0.61763388  0.11286058  1
  O  O178  1  0.61488982  0.62038410  0.61523512  1
  O  O179  1  0.38105307  0.37465324  0.38146479  1
  O  O180  1  0.37926913  0.38295070  0.87531736  1
  O  O181  1  0.38670794  0.87723701  0.37212862  1
  O  O182  1  0.37945731  0.88647514  0.87885382  1
  O  O183  1  0.87910321  0.37887044  0.38186332  1
  O  O184  1  0.87665761  0.36790901  0.88625303  1
  O  O185  1  0.88152230  0.88183861  0.38534315  1
  O  O186  1  0.88684324  0.87125217  0.88542511  1
  O  O187  1  0.25046337  0.00130872  0.35932994  1
  O  O188  1  0.25572629  0.00364531  0.87102196  1
  O  O189  1  0.26402176  0.52033869  0.39040165  1
  O  O190  1  0.25119560  0.50733744  0.86896807  1
  O  O191  1  0.75963432  -0.00790343  0.36888177  1
  O  O192  1  0.74974425  0.00560879  0.86939055  1
  O  O193  1  0.75273697  0.50393816  0.36948128  1
  O  O194  1  0.75007140  0.49662890  0.85965479  1
  O  O195  1  0.25687772  0.48371632  0.11680518  1
  O  O196  1  0.24464366  0.49965691  0.62968730  1
  O  O197  1  0.24626238  1.00390388  0.14002216  1
  O  O198  1  0.23862198  1.00502490  0.63379875  1
  O  O199  1  0.74522554  0.49567071  0.13050590  1
  O  O200  1  0.74793118  0.48514908  0.62912765  1
  O  O201  1  0.74422543  0.99465092  0.13201492  1
  O  O202  1  0.74700737  0.98798489  0.63094956  1
  O  O203  1  -0.00237403  0.37442219  0.26118226  1
  O  O204  1  0.01563252  0.37355061  0.74045861  1
  O  O205  1  0.00022114  0.86830172  0.25615740  1
  O  O206  1  -0.00588448  0.86788221  0.75797512  1
  O  O207  1  0.50354371  0.36429171  0.25355814  1
  O  O208  1  0.50667073  0.37153390  0.75541284  1
  O  O209  1  0.50028422  0.86734776  0.25473728  1
  O  O210  1  0.49590316  0.88033002  0.77299319  1
  O  O211  1  0.49390782  0.13727794  0.24932598  1
  O  O212  1  0.49828796  0.13257881  0.74491278  1
  O  O213  1  0.49456160  0.63976732  0.24724477  1
  O  O214  1  0.49251692  0.61721428  0.73938935  1
  O  O215  1  0.98759713  0.12171723  0.24296445  1
  O  O216  1  0.99021991  0.12474218  0.74535488  1
  O  O217  1  1.00152132  0.63838031  0.24285403  1
  O  O218  1  1.00707941  0.63435965  0.73395165  1
  O  O219  1  0.36732829  0.24971305  0.00483042  1
  O  O220  1  0.37058757  0.25559529  0.50590160  1
  O  O221  1  0.36669878  0.74608269  0.01361387  1
  O  O222  1  0.37485508  0.74965001  0.51718729  1
  O  O223  1  0.86964253  0.25986694  0.00838197  1
  O  O224  1  0.85999406  0.25785990  0.49250961  1
  O  O225  1  0.86658854  0.75406180  -0.00236397  1
  O  O226  1  0.86667119  0.75825965  0.49942056  1
  O  O227  1  0.13497859  0.24332642  0.49355053  1
  O  O228  1  0.13075908  0.23906776  0.99385556  1
  O  O229  1  0.12203205  0.73984809  0.49747393  1
  O  O230  1  0.13416451  0.74323988  0.99892772  1
  O  O231  1  0.63756675  0.25312933  0.49178047  1
  O  O232  1  0.64090623  0.25408274  1.00254019  1
  O  O233  1  0.62815560  0.74379846  0.49221621  1
  O  O234  1  0.63613793  0.74292500  0.99665378  1
  O  O235  1  0.49138980  0.25615550  0.13249179  1
  O  O236  1  0.49318611  0.24611771  0.63002404  1
  O  O237  1  0.49270759  0.75424497  0.12883358  1
  O  O238  1  0.49211350  0.73810829  0.62482941  1
  O  O239  1  0.98886191  0.24115879  0.12104944  1
  O  O240  1  1.00667168  0.23641020  0.62326248  1
  O  O241  1  0.99794718  0.74601657  0.14233596  1
  O  O242  1  0.99799310  0.74307554  0.63156904  1
  O  O243  1  0.00879066  0.25600818  0.38032494  1
  O  O244  1  0.01141722  0.24426805  0.87371664  1
  O  O245  1  -0.00039669  0.75791735  0.36608165  1
  O  O246  1  0.00689009  0.75667988  0.86836528  1
  O  O247  1  0.50819440  0.25474624  0.36835280  1
  O  O248  1  0.49973538  0.25556638  0.86992659  1
  O  O249  1  0.50188313  0.75698990  0.36693785  1
  O  O250  1  0.49838039  0.76578075  0.87988313  1
  O  O251  1  0.25422037  0.13558342  0.50092313  1
  O  O252  1  0.24317594  0.12938016  0.99218498  1
  O  O253  1  0.24163645  0.63392950  0.49553447  1
  O  O254  1  0.24008199  0.63253226  1.00000296  1
  O  O255  1  0.75521547  0.13782986  0.50904609  1
  O  O256  1  0.76175684  0.13370627  0.99121908  1
  O  O257  1  0.74175231  0.62767921  0.49352368  1
  O  O258  1  0.74647379  0.63645874  1.00385623  1
  O  O259  1  0.25013357  0.36654906  0.00564048  1
  O  O260  1  0.26346854  0.36670802  0.50069644  1
  O  O261  1  0.24584544  0.86602214  -0.00150921  1
  O  O262  1  0.25513624  0.87188511  0.49536426  1
  O  O263  1  0.75943102  0.36699335  0.00558365  1
  O  O264  1  0.75495295  0.36998466  0.50627814  1
  O  O265  1  0.75768349  0.86604734  0.00498941  1
  O  O266  1  0.75463975  0.86938098  0.50703022  1
  O  O267  1  0.13293131  0.48177398  0.28739934  1
  O  O268  1  0.13161675  0.50251060  0.73208719  1
  O  O269  1  0.12869389  0.99296585  0.24874940  1
  O  O270  1  0.13347629  1.00119479  0.73783019  1
  O  O271  1  0.62656337  0.49509082  0.24315688  1
  O  O272  1  0.63092629  0.48665297  0.74830131  1
  O  O273  1  0.63244034  0.99924194  0.24403514  1
  O  O274  1  0.64332132  1.00487439  0.74566882  1
  O  O275  1  0.36891766  0.01036101  0.25013524  1
  O  O276  1  0.36534727  0.00211483  0.75870491  1
  O  O277  1  0.38654618  0.51480691  0.24645266  1
  O  O278  1  0.36527869  0.50286322  0.75340821  1
  O  O279  1  0.86869707  0.00535797  0.25907151  1
  O  O280  1  0.86182735  0.01256579  0.74640740  1
  O  O281  1  0.86511996  0.49489392  0.26288419  1
  O  O282  1  0.86471669  0.49315463  0.74738634  1
  O  O283  1  0.11000588  0.35772546  0.38737948  1
  O  O284  1  0.14473408  0.35194093  0.87710439  1
  O  O285  1  0.10871568  0.87764531  0.36897879  1
  O  O286  1  0.11486084  0.86168411  0.88293831  1
  O  O287  1  0.61862101  0.36723517  0.36769605  1
  O  O288  1  0.61809212  0.37096097  0.86869875  1
  O  O289  1  0.61254160  0.86906405  0.37197058  1
  O  O290  1  0.61647709  0.87230773  0.87858609  1
  O  O291  1  0.37177406  0.13814752  0.13346420  1
  O  O292  1  0.38225435  0.13763943  0.62896029  1
  O  O293  1  0.37912832  0.63557628  0.13187083  1
  O  O294  1  0.38078571  0.63080443  0.63003861  1
  O  O295  1  0.88116843  0.13162797  0.13262991  1
  O  O296  1  0.88606145  0.12075163  0.63838323  1
  O  O297  1  0.88289846  0.62511543  0.12430617  1
  O  O298  1  0.88910712  0.62396707  0.61180619  1
  O  O299  1  0.25546535  0.25216953  0.11174309  1
  O  O300  1  0.25575308  0.25041783  0.61884461  1
  O  O301  1  0.26299488  0.75283067  0.11977440  1
  O  O302  1  0.26398981  0.74421651  0.62937589  1
  O  O303  1  0.76087605  0.25335227  0.11970719  1
  O  O304  1  0.74491195  0.26076233  0.61282112  1
  O  O305  1  0.74682296  0.75876557  0.11198429  1
  O  O306  1  0.75165421  0.75389284  0.61901059  1
  O  O307  1  0.23609372  0.25539041  0.38235614  1
  O  O308  1  0.24993837  0.23868149  0.88424233  1
  O  O309  1  0.24852559  0.73948541  0.37700674  1
  O  O310  1  0.24550163  0.74656367  0.88289253  1
  O  O311  1  0.74117934  0.25241399  0.38881255  1
  O  O312  1  0.74967101  0.24157679  0.88493893  1
  O  O313  1  0.74330919  0.74643339  0.37881088  1
  O  O314  1  0.75240770  0.75282559  0.89080576  1
  O  O315  1  0.00573660  0.12437799  0.00629566  1
  O  O316  1  -0.00352046  0.11599455  0.50952466  1
  O  O317  1  0.01684222  0.64528816  0.03094502  1
  O  O318  1  0.00685777  0.61990919  0.50171222  1
  O  O319  1  0.50409802  0.11246295  -0.00595163  1
  O  O320  1  0.49714107  0.11941408  0.51081072  1
  O  O321  1  0.50742215  0.61772828  -0.00031911  1
  O  O322  1  0.50089796  0.61625539  0.50456846  1
  O  O323  1  0.49227786  0.37955902  0.49642995  1
  O  O324  1  0.49876421  0.38222990  0.99137945  1
  O  O325  1  0.49354265  0.88244973  0.49228178  1
  O  O326  1  0.50204954  0.88794337  0.98695113  1
  O  O327  1  0.98864894  0.38024831  0.49284184  1
  O  O328  1  0.98841315  0.38008526  1.00078638  1
  O  O329  1  0.99118663  0.87847305  0.49374653  1
  O  O330  1  0.99162613  0.87498914  0.99483126  1
  O  O331  1  0.49712005  0.49307296  0.38211420  1
  O  O332  1  0.49627062  0.49529246  0.88252400  1
  O  O333  1  0.49795622  0.99434386  0.38144758  1
  O  O334  1  0.49637751  0.99591007  0.88350688  1
  O  O335  1  0.98816121  0.49443109  0.37870737  1
  O  O336  1  1.06644974  0.47111466  0.86248862  1
  O  O337  1  0.98893470  0.99292679  0.38101732  1
  O  O338  1  1.00779793  0.98654725  0.87588059  1
  O  O339  1  0.00085268  0.01336348  0.12227150  1
  O  O340  1  0.00914973  0.00504304  0.62260181  1
  O  O341  1  -0.00187113  0.51903405  0.13160976  1
  O  O342  1  0.00726916  0.50645188  0.61520678  1
  O  O343  1  0.50843003  -0.00290034  0.11221623  1
  O  O344  1  0.50147087  0.01029470  0.62119679  1
  O  O345  1  0.50398593  0.49716486  0.11020985  1
  O  O346  1  0.49965698  0.50817328  0.61727439  1
  O  O347  1  0.25281795  0.37045993  0.23181781  1
  O  O348  1  0.23208877  0.38987396  0.75111848  1
  O  O349  1  0.23629832  0.88146088  0.25419587  1
  O  O350  1  0.25159808  0.88346193  0.75683638  1
  O  O351  1  0.74334971  0.38258239  0.24532479  1
  O  O352  1  0.74511049  0.37492877  0.74250742  1
  O  O353  1  0.74978681  0.88551591  0.24292887  1
  O  O354  1  0.75929068  0.88056263  0.74124370  1
  O  O355  1  0.25816501  0.12035089  0.24841658  1
  O  O356  1  0.24983493  0.11975815  0.76327516  1
  O  O357  1  0.26169270  0.62926066  0.25697082  1
  O  O358  1  0.25249667  0.61610496  0.75505062  1
  O  O359  1  0.76167923  0.11157544  0.24719989  1
  O  O360  1  0.75988109  0.12174772  0.75495962  1
  O  O361  1  0.74159135  0.61629152  0.25633075  1
  O  O362  1  0.75125390  0.60613314  0.74023920  1
  O  O363  1  0.37973475  0.12803256  0.36126060  1
  O  O364  1  0.36687996  0.11315220  0.87384259  1
  O  O365  1  0.37175076  0.62770947  0.36264363  1
  O  O366  1  0.36729334  0.62117247  0.86968292  1
  O  O367  1  0.87846652  0.11548211  0.36850355  1
  O  O368  1  0.86769193  0.12561404  0.86243350  1
  O  O369  1  0.86407969  0.61442366  0.38087320  1
  O  O370  1  0.95426120  0.58210503  0.90082384  1
  O  O371  1  0.13953917  0.36909999  0.12300651  1
  O  O372  1  0.12653320  0.39060398  0.60880940  1
  O  O373  1  0.11426949  0.87738231  0.13639555  1
  O  O374  1  0.12061618  0.89022303  0.62231917  1
  O  O375  1  0.63253854  0.38078854  0.13023999  1
  O  O376  1  0.63203257  0.37610937  0.63308942  1
  O  O377  1  0.63827741  0.88408452  0.12449908  1
  O  O378  1  0.63419152  0.87205241  0.62205376  1
  O  O379  1  0.12938634  0.25641961  0.26374608  1
  O  O380  1  0.12275425  0.25030464  0.75947854  1
  O  O381  1  0.11570866  0.76105617  0.25407886  1
  O  O382  1  0.11504078  0.74745276  0.76018275  1
  O  O383  1  0.62048715  0.25312467  0.25444203  1
  O  O384  1  0.61966066  0.26150780  0.75252696  1
  O  O385  1  0.61551076  0.75227933  0.25219689  1
  O  O386  1  0.61650132  0.74027105  0.75478555  1
  O  O387  1  0.38151769  0.24509540  0.24321186  1
  O  O388  1  0.37728948  0.25201970  0.74268252  1
  O  O389  1  0.38023921  0.74666476  0.23828764  1
  O  O390  1  0.38214257  0.74305800  0.74189018  1
  O  O391  1  0.86677643  0.24003831  0.24366140  1
  O  O392  1  0.87784705  0.23548500  0.74940877  1
  O  O393  1  0.88606689  0.75427759  0.25579113  1
  O  O394  1  0.88860936  0.74586125  0.75049800  1
  O  O395  1  0.38537566  0.49145297  0.50263241  1
  O  O396  1  0.38422785  0.50184354  0.99299556  1
  O  O397  1  0.38663362  1.00128273  0.49934372  1
  O  O398  1  0.38864786  1.00575707  0.99550864  1
  O  O399  1  0.87466372  0.48985984  0.48839675  1
  O  O400  1  0.87285520  0.47900844  1.00379273  1
  O  O401  1  0.87709934  0.99272894  0.49523308  1
  O  O402  1  0.87526700  0.98736486  1.00210371  1
  O  O403  1  0.12384231  0.01285838  0.00211438  1
  O  O404  1  0.11955040  0.00277176  0.50894118  1
  O  O405  1  0.11670322  0.52243776  0.00314458  1
  O  O406  1  0.12000193  0.51169845  0.49684609  1
  O  O407  1  0.61502799  -0.00024752  0.00750730  1
  O  O408  1  0.61076538  -0.00314132  0.50447998  1
  O  O409  1  0.62088504  0.50435135  0.00277835  1
  O  O410  1  0.61207419  0.50150469  0.49989145  1
  O  O411  1  0.36499992  0.36238042  0.12048761  1
  O  O412  1  0.37283162  0.36365649  0.61895127  1
  O  O413  1  0.37707188  0.86430222  0.12701532  1
  O  O414  1  0.38355199  0.85951802  0.62937764  1
  O  O415  1  0.87090084  0.36635598  0.12554190  1
  O  O416  1  0.86876242  0.37605205  0.61081273  1
  O  O417  1  0.86201075  0.87952607  0.11809045  1
  O  O418  1  0.86956086  0.87354050  0.61417656  1
  O  O419  1  0.11592218  0.13980871  0.37745762  1
  O  O420  1  0.13177206  0.12755017  0.88112794  1
  O  O421  1  0.13277583  0.62831186  0.38030592  1
  O  O422  1  0.12934611  0.64005662  0.88578746  1
  O  O423  1  0.62315128  0.13597728  0.37049726  1
  O  O424  1  0.64217019  0.12799857  0.86990294  1
  O  O425  1  0.62871356  0.63082801  0.37916695  1
  O  O426  1  0.62268746  0.62452169  0.88821975  1
