# generated using pymatgen
data_V85Zn86O256
_symmetry_space_group_name_H-M   'P 1'
_cell_length_a   16.92111164
_cell_length_b   16.92342828
_cell_length_c   16.91970237
_cell_angle_alpha   89.96665816
_cell_angle_beta   89.95159355
_cell_angle_gamma   90.01644362
_symmetry_Int_Tables_number   1
_chemical_formula_structural   V85Zn86O256
_chemical_formula_sum   'V85 Zn86 O256'
_cell_volume   4845.17768985
_cell_formula_units_Z   1
loop_
 _symmetry_equiv_pos_site_id
 _symmetry_equiv_pos_as_xyz
  1  'x, y, z'
loop_
 _atom_site_type_symbol
 _atom_site_label
 _atom_site_symmetry_multiplicity
 _atom_site_fract_x
 _atom_site_fract_y
 _atom_site_fract_z
 _atom_site_occupancy
  V  V0  1  0.00331270  0.00313851  0.49956325  1
  V  V1  1  0.87555583  0.62337731  0.24450236  1
  V  V2  1  0.12280584  0.12396535  -0.00282620  1
  V  V3  1  0.36918722  0.75425298  0.62865483  1
  V  V4  1  0.49661726  0.75297024  0.75433889  1
  V  V5  1  0.00033002  0.87685131  0.37455358  1
  V  V6  1  0.87557490  0.87525956  0.50036114  1
  V  V7  1  0.62806337  0.24879802  0.87174328  1
  V  V8  1  0.12528534  0.75122759  0.87297149  1
  V  V9  1  0.74977912  0.75130963  0.49844094  1
  V  V10  1  0.24862456  0.49870050  0.25117242  1
  V  V11  1  -0.01244645  0.24898897  0.25537916  1
  V  V12  1  0.25151367  0.75259748  0.00036339  1
  V  V13  1  0.12130246  0.25209931  0.87625524  1
  V  V14  1  0.37043387  0.13734366  0.24486783  1
  V  V15  1  0.86368242  0.25099002  0.62254069  1
  V  V16  1  0.36916053  0.87671318  0.50193257  1
  V  V17  1  0.74777493  0.49559484  0.24440581  1
  V  V18  1  0.12007778  0.25763804  0.37517335  1
  V  V19  1  0.75108568  0.76013240  -0.00304461  1
  V  V20  1  0.62971060  0.12875392  0.00053322  1
  V  V21  1  0.65818969  0.60184486  -0.01591113  1
  V  V22  1  0.88022653  0.49124905  0.37215597  1
  V  V23  1  0.25492298  -0.00353205  0.74616334  1
  V  V24  1  0.38007029  -0.00643455  0.87123827  1
  V  V25  1  -0.05763616  0.43207946  0.93577272  1
  V  V26  1  0.87404806  0.00397032  0.36647578  1
  V  V27  1  0.50227134  -0.00700904  -0.00402423  1
  V  V28  1  0.12161480  0.49622646  0.12179961  1
  V  V29  1  0.25112775  0.00238593  0.25009251  1
  V  V30  1  0.11639082  0.62491060  0.50310666  1
  V  V31  1  0.00076703  0.74033935  0.74442693  1
  V  V32  1  0.38114633  0.13985772  0.74424926  1
  V  V33  1  0.62886228  0.00165353  0.62748869  1
  V  V34  1  0.23992383  0.25282465  0.50930453  1
  V  V35  1  0.12244693  0.37543878  0.75245062  1
  V  V36  1  0.37542359  0.49835484  0.38587038  1
  V  V37  1  0.62410791  0.74981638  0.87837388  1
  V  V38  1  0.49345228  0.62904902  0.62902855  1
  V  V39  1  0.50205916  0.36962092  0.36978593  1
  V  V40  1  0.74904078  0.12070629  0.87100369  1
  V  V41  1  0.37801325  0.62716381  0.24867420  1
  V  V42  1  0.86123058  0.61646633  0.76285009  1
  V  V43  1  0.12562389  0.74915550  0.37496637  1
  V  V44  1  0.25008683  0.62597926  0.37711489  1
  V  V45  1  0.50362232  0.62488767  0.11918639  1
  V  V46  1  0.63361907  0.13259661  0.49676074  1
  V  V47  1  0.25607412  0.24647175  0.00282359  1
  V  V48  1  -0.00961301  -0.00696329  -0.00473380  1
  V  V49  1  0.00420750  0.12493324  0.62177955  1
  V  V50  1  0.87011294  0.11380448  0.74788161  1
  V  V51  1  0.63223352  0.50906753  0.63542817  1
  V  V52  1  0.24432949  0.12847928  0.38027783  1
  V  V53  1  -0.00124353  0.48601191  0.49797126  1
  V  V54  1  0.12537053  0.00046758  0.12166043  1
  V  V55  1  0.75253036  0.36771883  0.11232668  1
  V  V56  1  0.49617236  0.36573666  0.87214183  1
  V  V57  1  0.49310330  0.49703974  0.00236330  1
  V  V58  1  0.12280388  0.62048996  -0.00354109  1
  V  V59  1  0.00042017  0.74970649  0.24744639  1
  V  V60  1  0.37434442  0.50485066  0.87208438  1
  V  V61  1  0.62637310  0.75361303  0.36164027  1
  V  V62  1  0.49476328  0.13320809  0.12164391  1
  V  V63  1  0.12713627  0.87558457  0.24990298  1
  V  V64  1  0.74896733  0.87743256  0.13487590  1
  V  V65  1  0.11909583  0.50081837  0.62583853  1
  V  V66  1  0.87658618  0.75552170  0.11574758  1
  V  V67  1  0.50134082  0.00110188  0.50076898  1
  V  V68  1  0.50370093  0.87784808  0.36734294  1
  V  V69  1  0.62155896  0.62818093  0.49974158  1
  V  V70  1  0.75085838  0.62537669  0.37093767  1
  V  V71  1  0.12598826  0.87547805  0.74385749  1
  V  V72  1  0.43522279  0.31505924  0.55692550  1
  V  V73  1  0.62207175  -0.00205224  0.13407997  1
  V  V74  1  0.25364165  0.36828886  0.12751531  1
  V  V75  1  0.25338988  0.50388509  0.74785866  1
  V  V76  1  0.75233759  0.13895560  0.37026848  1
  V  V77  1  0.13175705  0.00124360  0.61972958  1
  V  V78  1  0.62433225  0.87833302  0.75730925  1
  V  V79  1  0.63145092  0.37843832  0.75281844  1
  V  V80  1  0.87815507  0.73877953  0.62319072  1
  V  V81  1  0.75158291  0.87815254  0.63059149  1
  V  V82  1  -0.00318541  0.25199711  0.75254267  1
  V  V83  1  -0.00137189  0.62033113  0.12045881  1
  V  V84  1  0.87192630  0.24305393  0.10883074  1
  Zn  Zn85  1  0.25417208  0.62618597  0.87075988  1
  Zn  Zn86  1  0.75648114  0.38953285  0.63204575  1
  Zn  Zn87  1  0.50047204  0.13850722  0.62334556  1
  Zn  Zn88  1  0.62126226  0.49156436  0.12722941  1
  Zn  Zn89  1  0.11738353  0.37605504  0.25260159  1
  Zn  Zn90  1  0.38099870  0.87220220  -0.00215670  1
  Zn  Zn91  1  -0.00938835  0.12063123  0.12995034  1
  Zn  Zn92  1  0.63244233  0.35690181  0.25660596  1
  Zn  Zn93  1  0.86175965  -0.01162786  0.87233944  1
  Zn  Zn94  1  0.25971326  0.37471469  0.62488484  1
  Zn  Zn95  1  0.37581138  0.36757753  0.00418555  1
  Zn  Zn96  1  0.49767084  0.49923548  0.50400584  1
  Zn  Zn97  1  0.50112864  0.24986548  0.24698413  1
  Zn  Zn98  1  0.37756025  0.75250911  0.12260237  1
  Zn  Zn99  1  0.37543016  0.00187937  0.37467155  1
  Zn  Zn100  1  -0.00976438  0.87152098  0.87416505  1
  Zn  Zn101  1  0.50309401  0.75617723  0.24379628  1
  Zn  Zn102  1  0.24670388  0.75386614  0.50480020  1
  Zn  Zn103  1  0.74821881  0.00249346  0.25299502  1
  Zn  Zn104  1  0.85224197  0.36629860  0.49490154  1
  Zn  Zn105  1  0.25513484  0.87462532  0.12435387  1
  Zn  Zn106  1  0.25185964  0.12483355  0.87215244  1
  Zn  Zn107  1  0.17990593  0.18807983  0.18891340  1
  Zn  Zn108  1  0.18787594  0.18342130  0.69010735  1
  Zn  Zn109  1  0.18888865  0.68557521  0.18541534  1
  Zn  Zn110  1  0.18758075  0.68390325  0.68590310  1
  Zn  Zn111  1  0.68542349  0.18832706  0.18996938  1
  Zn  Zn112  1  0.68375395  0.18747334  0.69267962  1
  Zn  Zn113  1  0.68894721  0.68101939  0.17532504  1
  Zn  Zn114  1  0.68857874  0.69090042  0.68921668  1
  Zn  Zn115  1  0.31197790  0.31550053  0.31806468  1
  Zn  Zn116  1  0.30704903  0.31690139  0.81619745  1
  Zn  Zn117  1  0.31510002  0.81321277  0.31465046  1
  Zn  Zn118  1  0.31129060  0.81536189  0.81176841  1
  Zn  Zn119  1  0.81372459  0.31305296  0.30768052  1
  Zn  Zn120  1  0.81321855  0.31042774  0.81805329  1
  Zn  Zn121  1  0.81486896  0.81393064  0.30868706  1
  Zn  Zn122  1  0.81208959  0.80766044  0.81159236  1
  Zn  Zn123  1  0.18964482  0.43424853  0.44082440  1
  Zn  Zn124  1  0.18590342  0.43467747  0.93757788  1
  Zn  Zn125  1  0.18834979  0.93911526  0.43676363  1
  Zn  Zn126  1  0.18826381  0.93684981  0.93155719  1
  Zn  Zn127  1  0.68817686  0.44503609  0.43705303  1
  Zn  Zn128  1  0.68799028  0.43306262  0.93791159  1
  Zn  Zn129  1  0.68790307  0.93927863  0.43787553  1
  Zn  Zn130  1  0.68668424  0.93794443  0.94152681  1
  Zn  Zn131  1  0.31311008  0.06100041  0.06040320  1
  Zn  Zn132  1  0.31441972  0.06793343  0.56329378  1
  Zn  Zn133  1  0.31021940  0.56323969  0.06241819  1
  Zn  Zn134  1  0.30817032  0.56715122  0.56530019  1
  Zn  Zn135  1  0.80809489  0.06452672  0.06250014  1
  Zn  Zn136  1  0.81406219  0.06184130  0.55992004  1
  Zn  Zn137  1  0.81273405  0.55095300  0.04272783  1
  Zn  Zn138  1  0.81386648  0.56296371  0.55864539  1
  Zn  Zn139  1  0.43279760  0.43842222  0.19168047  1
  Zn  Zn140  1  0.44641091  0.44343403  0.69469705  1
  Zn  Zn141  1  0.43456855  0.94152629  0.18384746  1
  Zn  Zn142  1  0.44122735  0.93706492  0.68516285  1
  Zn  Zn143  1  0.93561154  0.43028563  0.18051662  1
  Zn  Zn144  1  0.93849020  0.43827359  0.69063195  1
  Zn  Zn145  1  0.93794748  0.93654086  0.18461201  1
  Zn  Zn146  1  0.94145075  0.93208442  0.68780214  1
  Zn  Zn147  1  0.06318094  0.06963394  0.31237827  1
  Zn  Zn148  1  0.06119426  0.06306202  0.81091384  1
  Zn  Zn149  1  0.06161970  0.56105947  0.31170879  1
  Zn  Zn150  1  0.05872488  0.56173685  0.81359877  1
  Zn  Zn151  1  0.56233762  0.07254867  0.31289369  1
  Zn  Zn152  1  0.55908679  0.06451112  0.80926442  1
  Zn  Zn153  1  0.56146568  0.56008613  0.31222274  1
  Zn  Zn154  1  0.55891338  0.56384675  0.81401655  1
  Zn  Zn155  1  0.43583233  0.18141973  0.43427647  1
  Zn  Zn156  1  0.43807228  0.18055681  0.93279115  1
  Zn  Zn157  1  0.43840378  0.69224243  0.43767830  1
  Zn  Zn158  1  0.43943671  0.68710155  0.93523665  1
  Zn  Zn159  1  0.93583182  0.18798390  0.43965890  1
  Zn  Zn160  1  0.93763165  0.18123706  0.93442240  1
  Zn  Zn161  1  0.93854435  0.68324572  0.43534318  1
  Zn  Zn162  1  0.93900334  0.68567343  0.93561610  1
  Zn  Zn163  1  0.05915305  0.31117909  0.06507717  1
  Zn  Zn164  1  0.06220815  0.31244232  0.56760823  1
  Zn  Zn165  1  0.06514288  0.81381822  0.06114666  1
  Zn  Zn166  1  0.06242592  0.81411232  0.56340234  1
  Zn  Zn167  1  0.56713911  0.31230101  0.06087316  1
  Zn  Zn168  1  0.61913791  0.33254079  0.54135749  1
  Zn  Zn169  1  0.56668706  0.81278212  0.06319727  1
  Zn  Zn170  1  0.56035907  0.81488236  0.56107733  1
  O  O171  1  0.12339763  0.11233925  0.11734052  1
  O  O172  1  0.11558917  0.11395342  0.63116370  1
  O  O173  1  0.12049269  0.61742700  0.11754341  1
  O  O174  1  0.12820463  0.61515533  0.61469236  1
  O  O175  1  0.61934861  0.11930233  0.11581570  1
  O  O176  1  0.62392577  0.11933234  0.61634631  1
  O  O177  1  0.61896612  0.61550002  0.10817678  1
  O  O178  1  0.61644459  0.62814194  0.61957120  1
  O  O179  1  0.38579346  0.38753936  0.37174043  1
  O  O180  1  0.38198142  0.38239528  0.87810217  1
  O  O181  1  0.38438930  0.87838430  0.38302163  1
  O  O182  1  0.37309489  0.88881274  0.87664274  1
  O  O183  1  0.86715420  0.38700294  0.37885459  1
  O  O184  1  0.86993299  0.38385453  0.88021701  1
  O  O185  1  0.88153046  0.88129688  0.37970551  1
  O  O186  1  0.87667295  0.87706068  0.86876164  1
  O  O187  1  0.24850759  0.01042217  0.36774587  1
  O  O188  1  0.25776841  0.00299010  0.86482785  1
  O  O189  1  0.25605629  0.50429767  0.37180591  1
  O  O190  1  0.25756460  0.49829188  0.86780092  1
  O  O191  1  0.76057192  0.00170635  0.37450087  1
  O  O192  1  0.74593334  0.01359743  0.87898574  1
  O  O193  1  0.75675132  0.50754797  0.36536750  1
  O  O194  1  0.73615367  0.53405645  0.94665823  1
  O  O195  1  0.24049615  0.49530268  0.13105055  1
  O  O196  1  0.24140533  0.49699667  0.62979507  1
  O  O197  1  0.24218069  0.99854068  0.13148526  1
  O  O198  1  0.24002464  1.00536331  0.62885182  1
  O  O199  1  0.75277862  0.48483438  0.12824046  1
  O  O200  1  0.73628141  0.50929682  0.62429686  1
  O  O201  1  0.74186690  0.99499933  0.12695365  1
  O  O202  1  0.74259611  0.99008153  0.61946137  1
  O  O203  1  0.00051099  0.35610035  0.24399958  1
  O  O204  1  0.00848617  0.36328498  0.74419930  1
  O  O205  1  0.00714079  0.87050679  0.25479898  1
  O  O206  1  0.00956186  0.86279547  0.75081968  1
  O  O207  1  0.50094170  0.37460703  0.25951224  1
  O  O208  1  0.51285842  0.38077280  0.76468911  1
  O  O209  1  0.49400425  0.87748853  0.26319246  1
  O  O210  1  0.51221923  0.86374061  0.74375183  1
  O  O211  1  0.48677868  0.12336227  0.24130186  1
  O  O212  1  0.48673951  0.12752240  0.74433251  1
  O  O213  1  0.49466171  0.62332852  0.23795588  1
  O  O214  1  0.50530737  0.64061058  0.74179805  1
  O  O215  1  1.00715905  0.14187449  0.24410080  1
  O  O216  1  0.99286402  0.12885299  0.73950232  1
  O  O217  1  0.99563144  0.63058885  0.24196066  1
  O  O218  1  0.99825644  0.63737339  0.74986926  1
  O  O219  1  0.35956933  0.24411604  -0.00587183  1
  O  O220  1  0.37105643  0.25325659  0.50357334  1
  O  O221  1  0.36569283  0.75079542  -0.00311599  1
  O  O222  1  0.37450333  0.75961323  0.50807451  1
  O  O223  1  0.87670929  0.24378514  0.00989598  1
  O  O224  1  0.87989656  0.25265046  0.51786135  1
  O  O225  1  0.87131314  0.74802232  0.00959076  1
  O  O226  1  0.87241668  0.75423113  0.50428618  1
  O  O227  1  0.13307094  0.25071403  0.49538489  1
  O  O228  1  0.12889416  0.23942246  0.99763095  1
  O  O229  1  0.12465737  0.74281448  0.49607593  1
  O  O230  1  0.13045353  0.74548293  0.99068992  1
  O  O231  1  0.62359097  0.23060940  0.49564576  1
  O  O232  1  0.61877190  0.24006924  0.98588222  1
  O  O233  1  0.62889323  0.74260747  0.49331167  1
  O  O234  1  0.63268495  0.74672997  0.99194529  1
  O  O235  1  0.49987054  0.23658351  0.12063706  1
  O  O236  1  0.49919655  0.25863295  0.60832489  1
  O  O237  1  0.50113276  0.74042415  0.12568341  1
  O  O238  1  0.49291047  0.74677078  0.63135884  1
  O  O239  1  0.98530547  0.24678712  0.13083354  1
  O  O240  1  0.99473508  0.24163429  0.63382864  1
  O  O241  1  0.99429152  0.74686026  0.12733827  1
  O  O242  1  0.98954953  0.75516095  0.63120586  1
  O  O243  1  0.00459390  0.24381132  0.36583486  1
  O  O244  1  0.00505218  0.23882664  0.85967820  1
  O  O245  1  0.00546284  0.75467022  0.36794720  1
  O  O246  1  0.01275352  0.75066128  0.86805783  1
  O  O247  1  0.48959180  0.26745195  0.37633263  1
  O  O248  1  0.50399975  0.26058755  0.87973218  1
  O  O249  1  0.50965395  0.75859395  0.37098027  1
  O  O250  1  0.51154727  0.74894216  0.86842837  1
  O  O251  1  0.25732869  0.14047975  0.49195237  1
  O  O252  1  0.23882454  0.12817867  0.99906472  1
  O  O253  1  0.23762000  0.62689532  0.49247415  1
  O  O254  1  0.24025686  0.63563221  0.99800424  1
  O  O255  1  0.73954204  0.11988425  0.49296118  1
  O  O256  1  0.73561709  0.12284171  0.99290543  1
  O  O257  1  0.74334829  0.63220690  0.49135588  1
  O  O258  1  0.74831268  0.65081258  1.02689940  1
  O  O259  1  0.24962479  0.36338249  0.00779862  1
  O  O260  1  0.25184843  0.35837289  0.50341404  1
  O  O261  1  0.24728858  0.86198723  -0.00170934  1
  O  O262  1  0.26462657  0.87479120  0.49458346  1
  O  O263  1  0.74595034  0.36802030  0.01383217  1
  O  O264  1  0.73293159  0.37458894  0.51408565  1
  O  O265  1  0.74673631  0.86568594  0.01189460  1
  O  O266  1  0.75542208  0.86928412  0.50791629  1
  O  O267  1  0.13220554  0.49810546  0.24412527  1
  O  O268  1  0.12775510  0.49384752  0.74289008  1
  O  O269  1  0.13329606  0.99893300  0.24315268  1
  O  O270  1  0.13151172  0.99340574  0.74407036  1
  O  O271  1  0.63996732  0.50269903  0.24753383  1
  O  O272  1  0.62291320  0.49652507  0.74638717  1
  O  O273  1  0.62269790  1.00685267  0.23690828  1
  O  O274  1  0.61766216  0.99289443  0.73674950  1
  O  O275  1  0.36098770  0.00713890  0.25074458  1
  O  O276  1  0.37050480  0.00068487  0.75240672  1
  O  O277  1  0.36888453  0.51193208  0.25978984  1
  O  O278  1  0.36612686  0.49519276  0.75843670  1
  O  O279  1  0.87866062  -0.00129504  0.26339786  1
  O  O280  1  0.88098159  0.01103166  0.74689712  1
  O  O281  1  0.86872523  0.50218041  0.25354873  1
  O  O282  1  0.87795169  0.51882323  0.74134914  1
  O  O283  1  0.12707444  0.36221181  0.37498696  1
  O  O284  1  0.13134947  0.36816993  0.86012510  1
  O  O285  1  0.11982597  0.86980118  0.36990441  1
  O  O286  1  0.12343627  0.86742921  0.86155087  1
  O  O287  1  0.60678517  0.38626610  0.37443477  1
  O  O288  1  0.62069321  0.36842622  0.87273332  1
  O  O289  1  0.61801382  0.86480829  0.38073720  1
  O  O290  1  0.63040815  0.87027436  0.86342209  1
  O  O291  1  0.38236144  0.11898305  0.13220907  1
  O  O292  1  0.38004934  0.12440572  0.63876251  1
  O  O293  1  0.38143656  0.62590825  0.13302067  1
  O  O294  1  0.38683305  0.63421506  0.62018308  1
  O  O295  1  0.87143861  0.13761177  0.12480743  1
  O  O296  1  0.87933333  0.13260257  0.62997023  1
  O  O297  1  0.88246349  0.63093237  0.12803463  1
  O  O298  1  0.87187243  0.63672840  0.62604011  1
  O  O299  1  0.24111290  0.25712968  0.11735586  1
  O  O300  1  0.24460756  0.24948646  0.61263085  1
  O  O301  1  0.25113166  0.75175227  0.11457160  1
  O  O302  1  0.26470750  0.74525225  0.62554583  1
  O  O303  1  0.76110521  0.25640760  0.12991507  1
  O  O304  1  0.76275026  0.24803425  0.63025949  1
  O  O305  1  0.75789549  0.76180043  0.12488476  1
  O  O306  1  0.75685678  0.75708490  0.61700891  1
  O  O307  1  0.24277714  0.24688423  0.38424533  1
  O  O308  1  0.24007164  0.24723052  0.88408101  1
  O  O309  1  0.24250558  0.74441053  0.37710347  1
  O  O310  1  0.24039466  0.74778980  0.87732167  1
  O  O311  1  0.75736038  0.23781028  0.37622453  1
  O  O312  1  0.74055526  0.23570857  0.87187279  1
  O  O313  1  0.74515069  0.74651168  0.37740546  1
  O  O314  1  0.73761052  0.75180321  0.88478157  1
  O  O315  1  0.01021843  0.11454410  0.00216036  1
  O  O316  1  -0.00396795  0.11934071  0.51383360  1
  O  O317  1  0.01521523  0.63246391  0.00583431  1
  O  O318  1  0.01200163  0.61530426  0.49408285  1
  O  O319  1  0.50688062  0.11664393  0.00463433  1
  O  O320  1  0.50996793  0.11701169  0.49868499  1
  O  O321  1  0.49339685  0.61576914  0.01086072  1
  O  O322  1  0.50750081  0.62881530  0.50801926  1
  O  O323  1  0.50298529  0.37520781  0.49766092  1
  O  O324  1  0.49569521  0.38005607  0.99449723  1
  O  O325  1  0.49365807  0.88202850  0.49041403  1
  O  O326  1  0.50307183  0.88891725  1.00219461  1
  O  O327  1  0.99774042  0.38461756  0.50201845  1
  O  O328  1  1.00349107  0.36512288  0.98419444  1
  O  O329  1  0.99534156  0.88076888  0.49300963  1
  O  O330  1  1.00618681  0.88982980  0.99706009  1
  O  O331  1  0.49114514  0.49447644  0.37917609  1
  O  O332  1  0.49228588  0.49297659  0.88275914  1
  O  O333  1  0.50194143  0.99598142  0.38426042  1
  O  O334  1  0.49320850  1.00486237  0.88292155  1
  O  O335  1  0.98972776  0.50328662  0.38124382  1
  O  O336  1  1.00154912  0.48873679  0.87451162  1
  O  O337  1  0.99658932  0.99946854  0.38015530  1
  O  O338  1  1.00100334  0.99935807  0.88761237  1
  O  O339  1  0.00629829  0.00067590  0.11457913  1
  O  O340  1  0.00838386  0.00521125  0.62047202  1
  O  O341  1  0.01479504  0.50255481  0.13384972  1
  O  O342  1  0.01191986  0.49654726  0.61610924  1
  O  O343  1  0.50596060  0.00866030  0.11723481  1
  O  O344  1  0.50905321  0.00014208  0.61241951  1
  O  O345  1  0.49772317  0.50337118  0.11909657  1
  O  O346  1  0.50907954  0.51353740  0.62488771  1
  O  O347  1  0.24686925  0.38073903  0.24485470  1
  O  O348  1  0.24302310  0.38438780  0.74507701  1
  O  O349  1  0.24488240  0.88449858  0.25167177  1
  O  O350  1  0.24295739  0.88786311  0.74997289  1
  O  O351  1  0.74862494  0.38196313  0.24376676  1
  O  O352  1  0.73686032  0.37317297  0.75162023  1
  O  O353  1  0.75123268  0.88048751  0.23983043  1
  O  O354  1  0.74068199  0.86689525  0.73647508  1
  O  O355  1  0.25258349  0.12068595  0.25425277  1
  O  O356  1  0.26025855  0.11351760  0.74903333  1
  O  O357  1  0.25710735  0.61981322  0.25641773  1
  O  O358  1  0.24457609  0.60893137  0.75208338  1
  O  O359  1  0.74750097  0.12159499  0.26705691  1
  O  O360  1  0.75842910  0.12507905  0.75611799  1
  O  O361  1  0.75765814  0.61761215  0.24826021  1
  O  O362  1  0.76168794  0.63054518  0.75148897  1
  O  O363  1  0.36318413  0.12306619  0.36486577  1
  O  O364  1  0.37418122  0.11414595  0.86075801  1
  O  O365  1  0.37121941  0.62140469  0.36974213  1
  O  O366  1  0.37419497  0.60991424  0.87804163  1
  O  O367  1  0.86086361  0.11667929  0.38577912  1
  O  O368  1  0.86625838  0.11970977  0.86529457  1
  O  O369  1  0.86946716  0.61780238  0.36500070  1
  O  O370  1  0.87640905  0.62699908  0.86251392  1
  O  O371  1  0.13321945  0.38179420  0.12528177  1
  O  O372  1  0.12874127  0.38172846  0.63511346  1
  O  O373  1  0.12730859  0.88609302  0.13107362  1
  O  O374  1  0.12265131  0.88326713  0.63559297  1
  O  O375  1  0.63796440  0.37208933  0.13015458  1
  O  O376  1  0.62288705  0.39229519  0.63787744  1
  O  O377  1  0.63356948  0.88582980  0.12316063  1
  O  O378  1  0.63211578  0.88123826  0.62971054  1
  O  O379  1  0.11601339  0.25374890  0.25920060  1
  O  O380  1  0.11891144  0.25557489  0.75300781  1
  O  O381  1  0.12017605  0.75444179  0.25318344  1
  O  O382  1  0.12210869  0.75494309  0.75213564  1
  O  O383  1  0.61504287  0.24424525  0.25482501  1
  O  O384  1  0.62233160  0.25817170  0.76198800  1
  O  O385  1  0.62661876  0.74163845  0.25907046  1
  O  O386  1  0.62004115  0.75753593  0.75783755  1
  O  O387  1  0.37436207  0.24012080  0.25145778  1
  O  O388  1  0.36698770  0.23773316  0.75464527  1
  O  O389  1  0.37784483  0.73727760  0.25045452  1
  O  O390  1  0.38441240  0.75829988  0.74365559  1
  O  O391  1  0.88517027  0.24693911  0.24714508  1
  O  O392  1  0.88111417  0.24166019  0.74223622  1
  O  O393  1  0.88141766  0.74424731  0.23996809  1
  O  O394  1  0.88229045  0.74059903  0.74116626  1
  O  O395  1  0.37524786  0.50757715  0.48976122  1
  O  O396  1  0.37981696  0.49588533  0.99470435  1
  O  O397  1  0.38345789  0.99577287  0.49944603  1
  O  O398  1  0.38338885  1.00136390  0.98932278  1
  O  O399  1  0.88192047  0.49816803  0.49131334  1
  O  O400  1  0.90126009  0.49314573  1.00806144  1
  O  O401  1  0.88380176  0.99274625  0.49366619  1
  O  O402  1  0.88865662  1.00610048  0.99946399  1
  O  O403  1  0.12137558  0.00434823  0.00475201  1
  O  O404  1  0.11841352  -0.00599738  0.50978467  1
  O  O405  1  0.13254104  0.50919190  0.00847551  1
  O  O406  1  0.11895637  0.50341229  0.50477262  1
  O  O407  1  0.61785042  0.00782723  0.00694298  1
  O  O408  1  0.62000465  0.00508882  0.50952925  1
  O  O409  1  0.60484362  0.49907488  0.00255857  1
  O  O410  1  0.62155898  0.51724895  0.50716457  1
  O  O411  1  0.35846310  0.37990906  0.12438745  1
  O  O412  1  0.38254319  0.37512281  0.62257138  1
  O  O413  1  0.37307218  0.87176855  0.11829184  1
  O  O414  1  0.38195111  0.86691644  0.61431345  1
  O  O415  1  0.86186755  0.35985220  0.12696120  1
  O  O416  1  0.87238595  0.36270604  0.62717105  1
  O  O417  1  0.86715754  0.86626763  0.12745328  1
  O  O418  1  0.86804487  0.86783941  0.62106429  1
  O  O419  1  0.13797474  0.13649574  0.37255286  1
  O  O420  1  0.12732427  0.12975159  0.88164972  1
  O  O421  1  0.12991533  0.62999004  0.37976746  1
  O  O422  1  0.12733968  0.63178057  0.88102065  1
  O  O423  1  0.63969423  0.11569039  0.38764249  1
  O  O424  1  0.62776372  0.13069482  0.87713549  1
  O  O425  1  0.62898066  0.63171245  0.38116628  1
  O  O426  1  0.61858788  0.63191224  0.88837380  1
