# generated using pymatgen
data_V85Zn86O256
_symmetry_space_group_name_H-M   'P 1'
_cell_length_a   16.92082093
_cell_length_b   16.91589823
_cell_length_c   16.92025490
_cell_angle_alpha   89.99053806
_cell_angle_beta   89.97729623
_cell_angle_gamma   89.96696445
_symmetry_Int_Tables_number   1
_chemical_formula_structural   V85Zn86O256
_chemical_formula_sum   'V85 Zn86 O256'
_cell_volume   4843.09828106
_cell_formula_units_Z   1
loop_
 _symmetry_equiv_pos_site_id
 _symmetry_equiv_pos_as_xyz
  1  'x, y, z'
loop_
 _atom_site_type_symbol
 _atom_site_label
 _atom_site_symmetry_multiplicity
 _atom_site_fract_x
 _atom_site_fract_y
 _atom_site_fract_z
 _atom_site_occupancy
  V  V0  1  0.74991208  0.62532181  0.37381770  1
  V  V1  1  0.00124172  0.24774608  0.26200581  1
  V  V2  1  0.62365063  0.49834836  0.62487033  1
  V  V3  1  0.23992415  0.49742650  0.75073237  1
  V  V4  1  0.50397134  0.75556719  0.74906736  1
  V  V5  1  0.00194306  0.12283702  0.12669328  1
  V  V6  1  0.24524573  0.25137386  0.48928682  1
  V  V7  1  0.25180346  0.62987427  0.87422104  1
  V  V8  1  0.12382290  0.12290313  -0.00346495  1
  V  V9  1  0.62301846  0.00644858  0.12362534  1
  V  V10  1  0.87719905  0.62596396  0.24915286  1
  V  V11  1  0.62258503  0.36889948  0.74802055  1
  V  V12  1  0.62348423  0.62415950  0.50003913  1
  V  V13  1  0.37643687  0.75607584  0.62214183  1
  V  V14  1  0.87803120  0.49562623  0.87248421  1
  V  V15  1  0.01002920  -0.00034013  0.50727575  1
  V  V16  1  -0.00633498  0.87147650  0.87405488  1
  V  V17  1  0.87334011  0.24418210  0.62477167  1
  V  V18  1  0.48979626  0.87898685  0.38640251  1
  V  V19  1  0.12523304  0.75790417  0.37328102  1
  V  V20  1  0.37598296  0.62673138  0.24563436  1
  V  V21  1  0.50222428  0.50164234  -0.00239913  1
  V  V22  1  0.37261569  0.37240123  0.50148061  1
  V  V23  1  0.00205750  0.49854639  -0.00136039  1
  V  V24  1  0.24947631  0.62545438  0.37338362  1
  V  V25  1  0.49615802  0.12676050  0.63312421  1
  V  V26  1  0.25006801  0.49763544  0.23965283  1
  V  V27  1  0.74249312  -0.00385294  0.74979931  1
  V  V28  1  0.23932882  0.37424439  0.62906112  1
  V  V29  1  0.25443072  0.00696878  0.74609039  1
  V  V30  1  0.00509882  0.75283080  0.24943697  1
  V  V31  1  0.61461273  -0.00554146  0.61891506  1
  V  V32  1  0.26193426  0.11916684  0.87660190  1
  V  V33  1  0.01218705  0.12305344  0.63128930  1
  V  V34  1  0.37513174  0.49887952  0.37416514  1
  V  V35  1  0.74826908  0.24877438  -0.00141714  1
  V  V36  1  0.48528103  0.88126570  0.87815998  1
  V  V37  1  0.88355773  0.37201473  -0.00228807  1
  V  V38  1  0.75242046  0.88123538  0.12643071  1
  V  V39  1  0.87426351  0.10950184  0.25782892  1
  V  V40  1  0.74294395  0.24704475  0.48871977  1
  V  V41  1  0.26997267  0.87347553  0.12526820  1
  V  V42  1  0.25526872  0.75513746  0.49832741  1
  V  V43  1  0.74843837  0.36961719  0.62348176  1
  V  V44  1  0.62553311  0.36669953  0.25351061  1
  V  V45  1  0.75514281  0.75832621  -0.00299103  1
  V  V46  1  0.74603367  0.10537714  0.37451091  1
  V  V47  1  0.49840762  0.37096436  0.87030081  1
  V  V48  1  0.62387386  0.75137988  0.37320773  1
  V  V49  1  0.75077648  0.37556636  0.12482404  1
  V  V50  1  0.87426271  0.88606511  0.49853684  1
  V  V51  1  0.75152626  0.62436193  0.87055552  1
  V  V52  1  0.62202986  0.24513238  0.87176522  1
  V  V53  1  0.48700543  0.00344379  0.00237421  1
  V  V54  1  0.62753165  0.87979483  0.24999211  1
  V  V55  1  0.87897813  0.49715657  0.37497914  1
  V  V56  1  -0.00033165  0.88292996  0.37147872  1
  V  V57  1  0.00014195  0.50136261  0.50634752  1
  V  V58  1  0.62699559  0.62774575  -0.00268298  1
  V  V59  1  0.36872506  0.37397740  0.00710431  1
  V  V60  1  0.49351468  0.75534180  0.24470807  1
  V  V61  1  0.87780562  0.75362786  0.11997082  1
  V  V62  1  0.75091777  0.50077941  0.24953666  1
  V  V63  1  0.49894199  0.49878065  0.49878832  1
  V  V64  1  0.62725320  0.50158139  0.12443650  1
  V  V65  1  0.24475966  0.87886645  0.62751701  1
  V  V66  1  0.12643336  0.13215141  0.48578052  1
  V  V67  1  0.12223906  0.62465622  0.50685545  1
  V  V68  1  0.49906786  0.63134178  0.12321656  1
  V  V69  1  0.38234137  0.12267602  0.25432066  1
  V  V70  1  0.37611535  0.49967953  0.87032538  1
  V  V71  1  0.75208425  0.75171144  0.50099627  1
  V  V72  1  0.26547362  0.75658094  0.00313061  1
  V  V73  1  0.62826585  0.76317505  0.86955122  1
  V  V74  1  0.88526733  0.74546663  0.62400625  1
  V  V75  1  0.37559318  0.24926770  0.64189601  1
  V  V76  1  -0.01102395  -0.00510408  -0.00178107  1
  V  V77  1  0.00150057  0.26165315  0.75328093  1
  V  V78  1  0.13406769  0.36306688  0.24906266  1
  V  V79  1  0.24391802  0.00356037  0.25613226  1
  V  V80  1  0.12761877  0.62894929  0.00329634  1
  V  V81  1  0.87670775  0.24819535  0.12816665  1
  V  V82  1  0.50218093  0.36150436  0.37467668  1
  V  V83  1  0.12060757  0.26010906  0.87364776  1
  V  V84  1  0.12497086  -0.01413133  0.12290205  1
  Zn  Zn85  1  0.49847134  0.62587828  0.62649814  1
  Zn  Zn86  1  0.60798915  0.12441804  0.49255201  1
  Zn  Zn87  1  0.12833440  0.75634683  0.87397838  1
  Zn  Zn88  1  0.00827638  0.37267890  0.37775966  1
  Zn  Zn89  1  0.38000328  0.00696163  0.39057567  1
  Zn  Zn90  1  0.88361496  0.61922438  0.74142377  1
  Zn  Zn91  1  0.87769338  0.37087977  0.49804295  1
  Zn  Zn92  1  0.50635432  0.23828466  0.24183137  1
  Zn  Zn93  1  0.37485074  0.24116360  0.12669625  1
  Zn  Zn94  1  0.24444216  0.25362585  0.00616702  1
  Zn  Zn95  1  0.11612701  0.50223081  0.63306299  1
  Zn  Zn96  1  0.00977764  0.74455409  0.74524483  1
  Zn  Zn97  1  0.37573396  0.62713694  0.74639057  1
  Zn  Zn98  1  0.00248078  0.62440516  0.12558348  1
  Zn  Zn99  1  0.87589847  0.12166140  0.75357705  1
  Zn  Zn100  1  0.61927020  0.12744011  0.00537213  1
  Zn  Zn101  1  0.75079984  0.49864120  0.74815740  1
  Zn  Zn102  1  0.12651073  0.49513503  0.12409288  1
  Zn  Zn103  1  0.12274301  0.88020330  0.75039212  1
  Zn  Zn104  1  0.74653597  0.87433630  0.62864035  1
  Zn  Zn105  1  0.75083887  0.12424462  0.87263943  1
  Zn  Zn106  1  0.86985331  -0.00109222  0.87415923  1
  Zn  Zn107  1  0.19475391  0.18421478  0.18253290  1
  Zn  Zn108  1  0.18905223  0.18889085  0.69152569  1
  Zn  Zn109  1  0.18956955  0.69091116  0.18500896  1
  Zn  Zn110  1  0.18746972  0.69027217  0.68932679  1
  Zn  Zn111  1  0.69294459  0.18559158  0.19215216  1
  Zn  Zn112  1  0.68413041  0.18010116  0.68592861  1
  Zn  Zn113  1  0.68683501  0.69243795  0.18598141  1
  Zn  Zn114  1  0.68884496  0.68747471  0.68697651  1
  Zn  Zn115  1  0.31475485  0.30981307  0.30995424  1
  Zn  Zn116  1  0.30361462  0.31267086  0.81881249  1
  Zn  Zn117  1  0.31058954  0.81718529  0.30713287  1
  Zn  Zn118  1  0.31306812  0.81526986  0.80787776  1
  Zn  Zn119  1  0.81539925  0.31079696  0.31199202  1
  Zn  Zn120  1  0.81228756  0.31120265  0.81063698  1
  Zn  Zn121  1  0.81601401  0.81684525  0.31197115  1
  Zn  Zn122  1  0.81571888  0.81732529  0.80823224  1
  Zn  Zn123  1  0.18667272  0.43650121  0.43376551  1
  Zn  Zn124  1  0.18747987  0.44085655  0.93658631  1
  Zn  Zn125  1  0.22019366  0.96591524  0.46639009  1
  Zn  Zn126  1  0.18655859  0.93785930  0.93656718  1
  Zn  Zn127  1  0.68822139  0.43465387  0.43680398  1
  Zn  Zn128  1  0.68927947  0.43506877  0.93592141  1
  Zn  Zn129  1  0.68149998  0.93552189  0.44107777  1
  Zn  Zn130  1  0.68479171  0.94051608  0.93961657  1
  Zn  Zn131  1  0.31034460  0.06567028  0.06694445  1
  Zn  Zn132  1  0.31492489  0.07061776  0.56626805  1
  Zn  Zn133  1  0.31671000  0.56475690  0.06013694  1
  Zn  Zn134  1  0.31120532  0.56575011  0.56433562  1
  Zn  Zn135  1  0.81041953  0.06608005  0.06516982  1
  Zn  Zn136  1  0.80994213  0.06310632  0.56617402  1
  Zn  Zn137  1  0.81516445  0.56620256  0.05957323  1
  Zn  Zn138  1  0.81111169  0.56141016  0.56082066  1
  Zn  Zn139  1  0.44281705  0.43800057  0.18770953  1
  Zn  Zn140  1  0.43471263  0.43482997  0.68730775  1
  Zn  Zn141  1  0.43796801  0.94651222  0.19214386  1
  Zn  Zn142  1  0.43304204  0.93754643  0.69111427  1
  Zn  Zn143  1  0.94323144  0.43439685  0.18687834  1
  Zn  Zn144  1  0.93437708  0.43412537  0.68548307  1
  Zn  Zn145  1  0.94048371  0.93398397  0.18485722  1
  Zn  Zn146  1  0.93333909  0.93576017  0.68776697  1
  Zn  Zn147  1  0.06539730  0.05811698  0.31254338  1
  Zn  Zn148  1  0.06623123  0.05992391  0.81215086  1
  Zn  Zn149  1  0.06578033  0.56255259  0.31425411  1
  Zn  Zn150  1  0.06034828  0.56665899  0.81647623  1
  Zn  Zn151  1  0.56329704  0.05679305  0.31557404  1
  Zn  Zn152  1  0.55943284  0.06020692  0.80968818  1
  Zn  Zn153  1  0.56170107  0.56005223  0.31206936  1
  Zn  Zn154  1  0.56427037  0.56548490  0.80889897  1
  Zn  Zn155  1  0.42976134  0.18338322  0.44071285  1
  Zn  Zn156  1  0.44033176  0.18877747  0.93955998  1
  Zn  Zn157  1  0.43772726  0.68949208  0.43500933  1
  Zn  Zn158  1  0.43926206  0.69039797  0.93412791  1
  Zn  Zn159  1  0.93308570  0.18118809  0.44014608  1
  Zn  Zn160  1  0.93827246  0.18324463  0.93424365  1
  Zn  Zn161  1  0.93915671  0.68741149  0.43786018  1
  Zn  Zn162  1  0.93808767  0.68445134  0.93438302  1
  Zn  Zn163  1  0.06532846  0.30960089  0.06870895  1
  Zn  Zn164  1  0.05976187  0.31230767  0.56347728  1
  Zn  Zn165  1  0.06298586  0.81120687  0.05449710  1
  Zn  Zn166  1  0.06682796  0.81483271  0.55905456  1
  Zn  Zn167  1  0.55732195  0.31122666  0.06323084  1
  Zn  Zn168  1  0.55867869  0.30562046  0.56221532  1
  Zn  Zn169  1  0.56235316  0.81774603  0.05970453  1
  Zn  Zn170  1  0.56440485  0.81313754  0.56321528  1
  O  O171  1  0.12038719  0.11788484  0.11330229  1
  O  O172  1  0.11386494  0.13260672  0.62042428  1
  O  O173  1  0.12609926  0.62264938  0.11371924  1
  O  O174  1  0.13409105  0.62184959  0.61077600  1
  O  O175  1  0.63282362  0.11010130  0.12963451  1
  O  O176  1  0.61371265  0.11640883  0.62033802  1
  O  O177  1  0.62130098  0.62153761  0.11798483  1
  O  O178  1  0.62393874  0.61644034  0.61888351  1
  O  O179  1  0.38286446  0.38002812  0.37962472  1
  O  O180  1  0.38123489  0.38176580  0.87931101  1
  O  O181  1  0.38815397  0.87327696  0.37105944  1
  O  O182  1  0.38730640  0.87026251  0.87915867  1
  O  O183  1  0.87582408  0.38827495  0.37425270  1
  O  O184  1  0.86748595  0.38632318  0.88408028  1
  O  O185  1  0.88759317  0.86781367  0.38649708  1
  O  O186  1  0.88746996  0.87936787  0.87408667  1
  O  O187  1  0.23064202  -0.01464832  0.35280787  1
  O  O188  1  0.24946530  0.01369216  0.87289266  1
  O  O189  1  0.25734915  0.50557392  0.36634507  1
  O  O190  1  0.25749767  0.50685792  0.86948563  1
  O  O191  1  0.75149214  0.00685853  0.37943635  1
  O  O192  1  0.74579896  0.00099285  0.86377451  1
  O  O193  1  0.75748433  0.50514050  0.37001549  1
  O  O194  1  0.75618685  0.50861902  0.87522949  1
  O  O195  1  0.25219878  0.50439730  0.13682873  1
  O  O196  1  0.25071041  0.49305411  0.63488954  1
  O  O197  1  0.24350367  0.98899189  0.12835378  1
  O  O198  1  0.25210402  0.99476308  0.63743794  1
  O  O199  1  0.74785076  0.49691125  0.12883409  1
  O  O200  1  0.74123819  0.49003895  0.62239759  1
  O  O201  1  0.74422417  0.98650832  0.11831047  1
  O  O202  1  0.73831443  0.99989448  0.63152054  1
  O  O203  1  0.00862104  0.36392568  0.25282336  1
  O  O204  1  -0.00070712  0.36130693  0.74580952  1
  O  O205  1  -0.00372194  0.86667481  0.26031382  1
  O  O206  1  0.00056529  0.87281721  0.76076936  1
  O  O207  1  0.51003197  0.37756421  0.25897400  1
  O  O208  1  0.50660411  0.38042605  0.76229101  1
  O  O209  1  0.50616549  0.86877170  0.25425098  1
  O  O210  1  0.49726869  0.86643742  0.76397471  1
  O  O211  1  0.48885348  0.12017672  0.25543970  1
  O  O212  1  0.50065459  0.12366937  0.73526288  1
  O  O213  1  0.49742122  0.63299393  0.24425046  1
  O  O214  1  0.49804270  0.63987026  0.75010971  1
  O  O215  1  0.99174880  0.12798908  0.24922808  1
  O  O216  1  0.99904832  0.12995761  0.74378863  1
  O  O217  1  0.99427359  0.63180181  0.24839641  1
  O  O218  1  0.99463217  0.63216802  0.75717705  1
  O  O219  1  0.37658228  0.26754482  -0.00305027  1
  O  O220  1  0.36296388  0.25718748  0.50743048  1
  O  O221  1  0.36467576  0.74426438  0.00190802  1
  O  O222  1  0.36593124  0.74530975  0.50615548  1
  O  O223  1  0.87024498  0.25605449  0.00376189  1
  O  O224  1  0.86553666  0.24956076  0.50691534  1
  O  O225  1  0.86731412  0.74418540  0.00817910  1
  O  O226  1  0.86954588  0.75501439  0.50595683  1
  O  O227  1  0.12819428  0.24142825  0.50258411  1
  O  O228  1  0.12166867  0.24250544  0.99204277  1
  O  O229  1  0.13000889  0.74129484  0.49194269  1
  O  O230  1  0.13545410  0.74157562  0.99650323  1
  O  O231  1  0.63960645  0.24459843  0.50415091  1
  O  O232  1  0.63189342  0.25180981  0.99258788  1
  O  O233  1  0.63317787  0.74523979  0.49473674  1
  O  O234  1  0.63398848  0.74541011  0.99147946  1
  O  O235  1  0.48894058  0.25774243  0.13043912  1
  O  O236  1  0.48331915  0.24776018  0.62703881  1
  O  O237  1  0.50851812  0.74436943  0.13265651  1
  O  O238  1  0.49517152  0.75274603  0.63253022  1
  O  O239  1  0.99483976  0.24057217  0.13483817  1
  O  O240  1  0.99299376  0.24344242  0.63211953  1
  O  O241  1  0.99432039  0.75074314  0.13037685  1
  O  O242  1  0.98787608  0.75348643  0.62031821  1
  O  O243  1  -0.00736711  0.24943275  0.36488220  1
  O  O244  1  0.01092528  0.24711875  0.86870275  1
  O  O245  1  0.00533072  0.75493995  0.36757522  1
  O  O246  1  -0.00000553  0.76281097  0.87846889  1
  O  O247  1  0.49673628  0.25965122  0.37221643  1
  O  O248  1  0.50858547  0.26002783  0.87865577  1
  O  O249  1  0.50591733  0.75668788  0.36519406  1
  O  O250  1  0.50838751  0.75911654  0.87038309  1
  O  O251  1  0.23281718  0.13736577  0.50699902  1
  O  O252  1  0.24209595  0.12345462  0.99089655  1
  O  O253  1  0.24499205  0.63376045  0.49214596  1
  O  O254  1  0.24672206  0.63162673  0.99508023  1
  O  O255  1  0.75345879  0.13154576  0.48637020  1
  O  O256  1  0.74614289  0.13893945  0.99993929  1
  O  O257  1  0.74407186  0.63146938  0.49238174  1
  O  O258  1  0.74758258  0.63514306  0.98942042  1
  O  O259  1  0.26557939  0.37737218  -0.00626728  1
  O  O260  1  0.25281581  0.37199657  0.50853687  1
  O  O261  1  0.24721277  0.86971673  0.01291975  1
  O  O262  1  0.24055997  0.85837934  0.50740380  1
  O  O263  1  0.75817292  0.36581178  0.00469773  1
  O  O264  1  0.75040325  0.36163375  0.50373409  1
  O  O265  1  0.74651389  0.86398009  0.00635355  1
  O  O266  1  0.75774827  0.86750569  0.49839125  1
  O  O267  1  0.13487163  0.49468937  0.24718254  1
  O  O268  1  0.13572236  0.50359802  0.75220767  1
  O  O269  1  0.13258702  1.00732818  0.23441300  1
  O  O270  1  0.14403473  0.99680350  0.75729070  1
  O  O271  1  0.63310398  0.49405870  0.24425603  1
  O  O272  1  0.62666036  0.48937793  0.74342060  1
  O  O273  1  0.61984923  0.98630483  0.24199218  1
  O  O274  1  0.63452345  1.00417422  0.73766264  1
  O  O275  1  0.36290576  0.00497407  0.25880511  1
  O  O276  1  0.35558930  -0.00621319  0.75555202  1
  O  O277  1  0.37005707  0.50403096  0.25482784  1
  O  O278  1  0.36972186  0.50228854  0.75971199  1
  O  O279  1  0.87954863  0.01108194  0.24718795  1
  O  O280  1  0.85900366  0.00193004  0.74652087  1
  O  O281  1  0.87180584  0.50459745  0.25478672  1
  O  O282  1  0.87176177  0.49862503  0.75796582  1
  O  O283  1  0.12361098  0.37959267  0.35527337  1
  O  O284  1  0.12878455  0.35893860  0.88105425  1
  O  O285  1  0.11399229  0.85959250  0.38055905  1
  O  O286  1  0.11034605  0.87532675  0.87666353  1
  O  O287  1  0.61578085  0.38124537  0.36491119  1
  O  O288  1  0.61906741  0.36796030  0.86799588  1
  O  O289  1  0.61822725  0.86997548  0.36762876  1
  O  O290  1  0.62059605  0.86460866  0.87699703  1
  O  O291  1  0.37200919  0.11782156  0.14707371  1
  O  O292  1  0.37653821  0.14146493  0.62866722  1
  O  O293  1  0.38770719  0.61991021  0.13252436  1
  O  O294  1  0.37760791  0.63828483  0.62589607  1
  O  O295  1  0.87807842  0.12903587  0.13806650  1
  O  O296  1  0.88426859  0.13473373  0.62333679  1
  O  O297  1  0.87555570  0.63734124  0.13056808  1
  O  O298  1  0.86834862  0.64062947  0.62166085  1
  O  O299  1  0.26000627  0.24679117  0.11775626  1
  O  O300  1  0.25654438  0.25805939  0.62333278  1
  O  O301  1  0.24875646  0.76562163  0.11976864  1
  O  O302  1  0.25808528  0.75483678  0.61806181  1
  O  O303  1  0.75607912  0.25491062  0.11906601  1
  O  O304  1  0.75594909  0.24848301  0.61646950  1
  O  O305  1  0.75642271  0.75704683  0.11598492  1
  O  O306  1  0.75299150  0.75210289  0.61215465  1
  O  O307  1  0.25004355  0.25907435  0.39009982  1
  O  O308  1  0.23685340  0.23930528  0.87948269  1
  O  O309  1  0.24407815  0.74834486  0.37847691  1
  O  O310  1  0.25325961  0.74430637  0.88224674  1
  O  O311  1  0.75456095  0.24626548  0.38687082  1
  O  O312  1  0.74130595  0.25202960  0.88295972  1
  O  O313  1  0.74688075  0.74667235  0.38385005  1
  O  O314  1  0.74764668  0.74720130  0.87819714  1
  O  O315  1  0.00557422  0.11749771  0.00643297  1
  O  O316  1  0.00834302  0.11948595  0.50566070  1
  O  O317  1  0.01020802  0.61819179  0.00014946  1
  O  O318  1  0.01083357  0.61646581  0.49389859  1
  O  O319  1  0.50236159  0.10900445  -0.00552545  1
  O  O320  1  0.49556698  0.13103192  0.51694996  1
  O  O321  1  0.50632280  0.62174233  0.00266708  1
  O  O322  1  0.50751770  0.61915482  0.49934360  1
  O  O323  1  0.49498886  0.37755878  0.49273555  1
  O  O324  1  0.49498339  0.38453176  0.98729246  1
  O  O325  1  0.50045563  0.86535548  0.48426182  1
  O  O326  1  0.50412286  0.88438325  0.98656809  1
  O  O327  1  0.99825475  0.38305934  0.49546124  1
  O  O328  1  0.98893799  0.37867825  1.00629300  1
  O  O329  1  0.99688446  0.88403383  0.49572260  1
  O  O330  1  1.00006050  0.88327530  0.98960912  1
  O  O331  1  0.49305016  0.49386945  0.38069184  1
  O  O332  1  0.49379785  0.49681895  0.87716187  1
  O  O333  1  0.49830707  0.98405196  0.37776461  1
  O  O334  1  0.50408350  0.98814234  0.88340404  1
  O  O335  1  0.99255646  0.49984017  0.38252534  1
  O  O336  1  0.99227386  0.49995924  0.88866935  1
  O  O337  1  1.00666116  0.98930981  0.38580517  1
  O  O338  1  0.99722136  0.99136401  0.88214314  1
  O  O339  1  0.00625396  0.00298761  0.11823866  1
  O  O340  1  -0.00275354  0.00734631  0.61586126  1
  O  O341  1  -0.00097268  0.50365468  0.11218992  1
  O  O342  1  -0.00176886  0.49681253  0.61188507  1
  O  O343  1  0.50908473  -0.00997002  0.11106245  1
  O  O344  1  0.50820934  0.00342169  0.63036723  1
  O  O345  1  0.50922309  0.50845257  0.11829106  1
  O  O346  1  0.50602541  0.49959980  0.61821538  1
  O  O347  1  0.24202153  0.38096438  0.25208450  1
  O  O348  1  0.25399362  0.38585745  0.74301767  1
  O  O349  1  0.25181698  0.88278267  0.23261178  1
  O  O350  1  0.24762318  0.88335279  0.74320462  1
  O  O351  1  0.74457633  0.38013694  0.24622824  1
  O  O352  1  0.74094236  0.37542649  0.74137029  1
  O  O353  1  0.74049554  0.86637982  0.23997059  1
  O  O354  1  0.74970706  0.88952964  0.74701758  1
  O  O355  1  0.25424646  0.10866090  0.24992487  1
  O  O356  1  0.24703954  0.11764894  0.76299372  1
  O  O357  1  0.25556838  0.61976383  0.25347351  1
  O  O358  1  0.25313637  0.61926758  0.75943388  1
  O  O359  1  0.76161680  0.12658227  0.26490096  1
  O  O360  1  0.75168767  0.11328513  0.75048171  1
  O  O361  1  0.75569239  0.62244687  0.25450478  1
  O  O362  1  0.75420748  0.62351566  0.76118058  1
  O  O363  1  0.37177223  0.12100571  0.36317036  1
  O  O364  1  0.35971503  0.13295410  0.87930261  1
  O  O365  1  0.37031139  0.61978202  0.36645582  1
  O  O366  1  0.36650504  0.61750691  0.87537822  1
  O  O367  1  0.86638623  0.12292802  0.36514195  1
  O  O368  1  0.86944462  0.11881941  0.87306346  1
  O  O369  1  0.87020161  0.61611944  0.37026811  1
  O  O370  1  0.86712986  0.61165668  0.87718798  1
  O  O371  1  0.12126948  0.37829781  0.14246997  1
  O  O372  1  0.13628895  0.37920035  0.62242480  1
  O  O373  1  0.12368952  0.88445730  0.12136447  1
  O  O374  1  0.13998407  0.87107293  0.62607195  1
  O  O375  1  0.63197656  0.38266732  0.13078780  1
  O  O376  1  0.62588864  0.37631471  0.63127427  1
  O  O377  1  0.63345283  0.88010371  0.13147653  1
  O  O378  1  0.62582944  0.88949807  0.62178332  1
  O  O379  1  0.11982575  0.25636752  0.24640133  1
  O  O380  1  0.11800173  0.24594046  0.76518144  1
  O  O381  1  0.11306197  0.74313497  0.25657480  1
  O  O382  1  0.12610590  0.75731225  0.75564133  1
  O  O383  1  0.62633118  0.26266989  0.24682090  1
  O  O384  1  0.62944330  0.26119261  0.75572532  1
  O  O385  1  0.61659282  0.75828938  0.25386963  1
  O  O386  1  0.61852791  0.74707650  0.75759952  1
  O  O387  1  0.37593912  0.23392977  0.25247452  1
  O  O388  1  0.36956230  0.25813584  0.74007343  1
  O  O389  1  0.38675713  0.74425712  0.25244300  1
  O  O390  1  0.38379337  0.74915882  0.74184760  1
  O  O391  1  0.88327431  0.24333851  0.24576757  1
  O  O392  1  0.88160663  0.24695302  0.74315997  1
  O  O393  1  0.88551042  0.74529635  0.24454463  1
  O  O394  1  0.87245715  0.75160748  0.73060148  1
  O  O395  1  0.37847286  0.49354494  0.49572065  1
  O  O396  1  0.37957677  0.49439150  0.98724274  1
  O  O397  1  0.32967224  0.99344638  0.48962654  1
  O  O398  1  0.38825505  1.00256673  1.00539794  1
  O  O399  1  0.88116135  0.49908231  0.49145058  1
  O  O400  1  0.88078225  0.49247947  0.99490815  1
  O  O401  1  0.88272629  0.99016670  0.50577634  1
  O  O402  1  0.88622461  1.00416682  1.00316491  1
  O  O403  1  0.11607493  0.00631143  0.00542390  1
  O  O404  1  0.12058613  0.01703709  0.50136856  1
  O  O405  1  0.11867643  0.50530755  0.00215136  1
  O  O406  1  0.11726937  0.50732003  0.49870117  1
  O  O407  1  0.61838404  0.00380702  0.00851293  1
  O  O408  1  0.62737140  0.00498149  0.51511486  1
  O  O409  1  0.62261703  0.50616348  0.00288477  1
  O  O410  1  0.61992031  0.50317013  0.50476202  1
  O  O411  1  0.37935916  0.38672853  0.10680087  1
  O  O412  1  0.36792930  0.36672188  0.62013591  1
  O  O413  1  0.36825592  0.87739683  0.12630783  1
  O  O414  1  0.36448197  0.86341581  0.62807275  1
  O  O415  1  0.86961608  0.36945532  0.11857245  1
  O  O416  1  0.86677186  0.36156039  0.62209173  1
  O  O417  1  0.86742192  0.86252138  0.13047826  1
  O  O418  1  0.87105799  0.86388650  0.61413263  1
  O  O419  1  0.11981209  0.12872995  0.38710432  1
  O  O420  1  0.12708852  0.13035264  0.88707497  1
  O  O421  1  0.13246092  0.63319383  0.38197411  1
  O  O422  1  0.13928421  0.62383529  0.88673780  1
  O  O423  1  0.64029413  0.11930647  0.37565456  1
  O  O424  1  0.62440117  0.13800807  0.87359079  1
  O  O425  1  0.63003856  0.63102081  0.37812039  1
  O  O426  1  0.63391913  0.63251969  0.87852807  1
