# generated using pymatgen
data_V85Zn86O256
_symmetry_space_group_name_H-M   'P 1'
_cell_length_a   16.91090190
_cell_length_b   16.91252247
_cell_length_c   16.91360375
_cell_angle_alpha   89.95245052
_cell_angle_beta   90.01517889
_cell_angle_gamma   89.99041185
_symmetry_Int_Tables_number   1
_chemical_formula_structural   V85Zn86O256
_chemical_formula_sum   'V85 Zn86 O256'
_cell_volume   4837.39039282
_cell_formula_units_Z   1
loop_
 _symmetry_equiv_pos_site_id
 _symmetry_equiv_pos_as_xyz
  1  'x, y, z'
loop_
 _atom_site_type_symbol
 _atom_site_label
 _atom_site_symmetry_multiplicity
 _atom_site_fract_x
 _atom_site_fract_y
 _atom_site_fract_z
 _atom_site_occupancy
  V  V0  1  0.86925885  0.60255921  0.24996096  1
  V  V1  1  0.37771899  0.75305792  0.62437506  1
  V  V2  1  0.25154830  0.12593330  0.87076312  1
  V  V3  1  0.62913711  0.87819815  0.73875313  1
  V  V4  1  0.37356590  -0.00459950  0.38554209  1
  V  V5  1  0.51015799  0.00034396  0.00398045  1
  V  V6  1  0.12294327  0.25333438  0.87714741  1
  V  V7  1  0.37459859  0.74987257  0.12395685  1
  V  V8  1  0.12618878  0.50737981  0.12013625  1
  V  V9  1  0.74370589  0.88532700  0.12657567  1
  V  V10  1  0.12448326  0.12697808  0.49667374  1
  V  V11  1  0.25268332  0.00453811  0.24695306  1
  V  V12  1  0.86995298  0.75752896  0.63020882  1
  V  V13  1  0.62003363  0.88589535  0.24903529  1
  V  V14  1  0.63118843  0.38550119  0.24552309  1
  V  V15  1  0.11603069  0.87635735  0.25551556  1
  V  V16  1  0.24348215  0.62359640  0.87989291  1
  V  V17  1  -0.00169002  0.25255340  0.75397241  1
  V  V18  1  0.12703392  0.49652054  0.62317375  1
  V  V19  1  0.74997306  0.50110497  0.74551782  1
  V  V20  1  0.87849210  0.00241687  0.37303474  1
  V  V21  1  0.75038630  0.60926290  0.37273944  1
  V  V22  1  0.50157557  0.75182689  0.25133514  1
  V  V23  1  0.00458359  0.12130426  0.12659264  1
  V  V24  1  0.74892014  0.24602124  0.49662309  1
  V  V25  1  0.25080177  0.24894756  0.00017172  1
  V  V26  1  0.86403430  0.12771275  0.25405820  1
  V  V27  1  0.24310030  0.88108816  0.12532958  1
  V  V28  1  0.74229429  0.74678226  0.00334849  1
  V  V29  1  0.00852771  -0.00305563  0.00219458  1
  V  V30  1  0.75022240  0.12313070  0.88207701  1
  V  V31  1  0.00142434  0.63173676  0.62729664  1
  V  V32  1  0.12639698  -0.00012101  0.62612629  1
  V  V33  1  -0.00112227  0.86740392  0.87121068  1
  V  V34  1  0.25663937  0.62536292  0.37557930  1
  V  V35  1  0.51556761  0.50373154  0.00141195  1
  V  V36  1  0.87497641  0.75163387  0.13826551  1
  V  V37  1  0.51446127  0.62268901  0.12096803  1
  V  V38  1  0.62751029  0.24772517  0.37526991  1
  V  V39  1  0.87883558  0.36589718  -0.00690598  1
  V  V40  1  0.12609973  0.62598098  0.49812524  1
  V  V41  1  0.25550376  0.75341322  0.49702416  1
  V  V42  1  0.24970219  0.49571241  0.74856411  1
  V  V43  1  0.62329940  0.37652323  0.74736436  1
  V  V44  1  0.49511636  0.38393365  0.37595024  1
  V  V45  1  0.37414077  0.24310171  0.13074817  1
  V  V46  1  -0.00421698  0.25078509  0.24879728  1
  V  V47  1  0.74393732  0.62364769  0.87926437  1
  V  V48  1  0.25457710  0.87575834  0.62011903  1
  V  V49  1  0.25066720  0.50168062  0.25368221  1
  V  V50  1  0.51737397  0.12202028  0.62344461  1
  V  V51  1  0.00175135  0.12429979  0.62445512  1
  V  V52  1  0.25935785  0.12885521  0.37207335  1
  V  V53  1  0.24250195  0.74689460  0.00026213  1
  V  V54  1  0.37463841  0.49976428  0.87761373  1
  V  V55  1  0.37911742  0.61871497  0.25004567  1
  V  V56  1  0.37704528  0.37516173  0.00109378  1
  V  V57  1  -0.00045817  0.62902616  0.12309351  1
  V  V58  1  0.12383187  0.37954728  0.24882052  1
  V  V59  1  0.25537153  0.00088190  0.74964130  1
  V  V60  1  -0.00384930  0.39115944  0.37068376  1
  V  V61  1  0.49687373  0.87274338  0.38812103  1
  V  V62  1  0.87302274  0.38249355  0.49452512  1
  V  V63  1  0.87361667  0.87379320  0.00128769  1
  V  V64  1  -0.00058434  0.49986449  -0.00540256  1
  V  V65  1  0.74517935  0.37960264  0.11345591  1
  V  V66  1  0.12368317  0.25247035  0.37394022  1
  V  V67  1  0.49601046  0.24788306  0.25346266  1
  V  V68  1  0.87805656  0.86976122  0.48786845  1
  V  V69  1  0.37930362  0.00512999  0.87395968  1
  V  V70  1  0.62897623  0.24834817  0.88163031  1
  V  V71  1  0.12260922  0.86416424  0.74861318  1
  V  V72  1  0.50598106  0.12129006  0.12882252  1
  V  V73  1  0.74723654  -0.00229586  0.73675111  1
  V  V74  1  0.50060921  0.75254207  0.75309788  1
  V  V75  1  0.50713394  0.61728072  0.62724925  1
  V  V76  1  0.74563372  0.37696509  0.62212229  1
  V  V77  1  0.37518460  0.87661518  0.00021503  1
  V  V78  1  0.25138434  0.37589549  0.12567026  1
  V  V79  1  0.36870245  0.38168279  0.50526999  1
  V  V80  1  0.12043957  0.37462324  0.74730666  1
  V  V81  1  0.88019055  0.62787364  0.75313771  1
  V  V82  1  0.87377408  0.12277625  0.75018127  1
  V  V83  1  0.36810936  0.24171452  0.62924690  1
  V  V84  1  0.50088852  0.37349528  0.87511754  1
  Zn  Zn85  1  0.51972126  0.00472047  0.50313866  1
  Zn  Zn86  1  0.37439169  0.62501825  0.75174095  1
  Zn  Zn87  1  0.49534975  0.24204617  0.75142605  1
  Zn  Zn88  1  0.86488572  0.24662907  0.12075245  1
  Zn  Zn89  1  0.50371611  0.87750111  0.87476511  1
  Zn  Zn90  1  0.87473399  0.25236692  0.62304461  1
  Zn  Zn91  1  0.11860026  0.74379955  0.87621254  1
  Zn  Zn92  1  0.69366677  0.08029415  0.43276796  1
  Zn  Zn93  1  -0.00232974  0.50176784  0.49969152  1
  Zn  Zn94  1  0.63117311  0.61849078  0.50432160  1
  Zn  Zn95  1  0.87918982  0.49652348  0.87337910  1
  Zn  Zn96  1  0.00501820  -0.00948678  0.49147117  1
  Zn  Zn97  1  0.63345073  0.12430177  0.00724869  1
  Zn  Zn98  1  0.87415872  -0.00398373  0.87289876  1
  Zn  Zn99  1  0.74297371  0.00633680  0.25417208  1
  Zn  Zn100  1  0.62911330  0.74558525  0.37741592  1
  Zn  Zn101  1  0.11382348  0.76088399  0.37659885  1
  Zn  Zn102  1  0.50272244  0.49872729  0.50234969  1
  Zn  Zn103  1  0.74933147  0.74656815  0.49758091  1
  Zn  Zn104  1  0.12738872  0.12046849  0.00402377  1
  Zn  Zn105  1  0.62328310  0.75000239  0.87777926  1
  Zn  Zn106  1  0.24652078  0.25763069  0.50447143  1
  Zn  Zn107  1  0.18504404  0.18746203  0.18961207  1
  Zn  Zn108  1  0.19008566  0.18821954  0.68812022  1
  Zn  Zn109  1  0.18467512  0.69145221  0.18871523  1
  Zn  Zn110  1  0.19126821  0.68436587  0.68766734  1
  Zn  Zn111  1  0.68478111  0.19745823  0.18606046  1
  Zn  Zn112  1  0.68877565  0.19260028  0.69055722  1
  Zn  Zn113  1  0.69042095  0.69048748  0.19200013  1
  Zn  Zn114  1  0.68877287  0.68978521  0.69057857  1
  Zn  Zn115  1  0.31393923  0.31539011  0.31628746  1
  Zn  Zn116  1  0.31085996  0.31480052  0.80938755  1
  Zn  Zn117  1  0.31284186  0.81372735  0.31083104  1
  Zn  Zn118  1  0.31355617  0.81446980  0.81287214  1
  Zn  Zn119  1  0.81040229  0.31915836  0.31128027  1
  Zn  Zn120  1  0.81074947  0.31015605  0.81375098  1
  Zn  Zn121  1  0.80753174  0.81175621  0.31513174  1
  Zn  Zn122  1  0.80890898  0.81140099  0.81288483  1
  Zn  Zn123  1  0.18824384  0.44153810  0.43441448  1
  Zn  Zn124  1  0.18467217  0.43523847  0.93762504  1
  Zn  Zn125  1  0.18719732  0.94020049  0.43586099  1
  Zn  Zn126  1  0.18710899  0.93417261  0.93497251  1
  Zn  Zn127  1  0.68041261  0.43858827  0.43806969  1
  Zn  Zn128  1  0.69262446  0.43637444  0.93351666  1
  Zn  Zn129  1  0.69183059  0.91991702  0.43754550  1
  Zn  Zn130  1  0.68773268  0.93536266  0.92886392  1
  Zn  Zn131  1  0.31594268  0.06316634  0.06078527  1
  Zn  Zn132  1  0.31366072  0.06723487  0.56014669  1
  Zn  Zn133  1  0.31789358  0.56390715  0.06319840  1
  Zn  Zn134  1  0.31605922  0.56388714  0.56606178  1
  Zn  Zn135  1  0.82019981  0.06077951  0.06405884  1
  Zn  Zn136  1  0.81943166  0.05908341  0.56220797  1
  Zn  Zn137  1  0.81112170  0.55881996  0.06236908  1
  Zn  Zn138  1  0.81323450  0.56330009  0.56423369  1
  Zn  Zn139  1  0.44200522  0.43715654  0.18521007  1
  Zn  Zn140  1  0.43356611  0.43195416  0.68804060  1
  Zn  Zn141  1  0.43094693  0.94050574  0.19156233  1
  Zn  Zn142  1  0.44126433  0.94034200  0.68416081  1
  Zn  Zn143  1  0.93637167  0.43459347  0.17640003  1
  Zn  Zn144  1  0.93654027  0.43941850  0.68487017  1
  Zn  Zn145  1  0.93476929  0.94128025  0.18714146  1
  Zn  Zn146  1  0.93826957  0.93745627  0.68620150  1
  Zn  Zn147  1  0.06378832  0.05957382  0.30976417  1
  Zn  Zn148  1  0.06414700  0.05860106  0.81520187  1
  Zn  Zn149  1  0.04697778  0.59719539  0.32508302  1
  Zn  Zn150  1  0.06247684  0.56344907  0.81223587  1
  Zn  Zn151  1  0.55309000  0.06397095  0.31468599  1
  Zn  Zn152  1  0.56299809  0.06408806  0.80727145  1
  Zn  Zn153  1  0.56418328  0.56164897  0.31349167  1
  Zn  Zn154  1  0.56369404  0.56112467  0.81098975  1
  Zn  Zn155  1  0.43889576  0.19211804  0.44486584  1
  Zn  Zn156  1  0.44048179  0.18593971  0.93938584  1
  Zn  Zn157  1  0.43716314  0.68630507  0.43971566  1
  Zn  Zn158  1  0.43408454  0.68544554  0.93792874  1
  Zn  Zn159  1  0.93508795  0.19200645  0.43486085  1
  Zn  Zn160  1  0.93931762  0.18375193  0.93565447  1
  Zn  Zn161  1  0.93326304  0.68477279  0.43608753  1
  Zn  Zn162  1  0.93164476  0.68790654  0.94238918  1
  Zn  Zn163  1  0.06075545  0.31309866  0.06350093  1
  Zn  Zn164  1  0.05977306  0.31401906  0.56185588  1
  Zn  Zn165  1  0.06206062  0.81289260  0.06667303  1
  Zn  Zn166  1  0.06156583  0.80995530  0.56146577  1
  Zn  Zn167  1  0.56313394  0.31137592  0.06332073  1
  Zn  Zn168  1  0.55968583  0.30791556  0.56186626  1
  Zn  Zn169  1  0.56227690  0.81372713  0.06481801  1
  Zn  Zn170  1  0.56768387  0.80495772  0.56211059  1
  O  O171  1  0.11038343  0.13078102  0.12265709  1
  O  O172  1  0.12149629  0.12131352  0.61868886  1
  O  O173  1  0.11453401  0.61906689  0.13033157  1
  O  O174  1  0.11945523  0.62121893  0.62047006  1
  O  O175  1  0.61133489  0.13098513  0.12444920  1
  O  O176  1  0.61682915  0.13157091  0.62456364  1
  O  O177  1  0.61339057  0.63064204  0.12983046  1
  O  O178  1  0.61023529  0.62812126  0.63032198  1
  O  O179  1  0.38390534  0.36767981  0.39065050  1
  O  O180  1  0.38020187  0.37943226  0.88027477  1
  O  O181  1  0.38382063  0.88249022  0.37139690  1
  O  O182  1  0.37592907  0.88769270  0.88134266  1
  O  O183  1  0.88458192  0.37484097  0.38058800  1
  O  O184  1  0.87034329  0.37588602  0.88831105  1
  O  O185  1  0.87778522  0.88003457  0.38121038  1
  O  O186  1  0.88060914  0.87355052  0.88249988  1
  O  O187  1  0.25491774  0.00867736  0.37018837  1
  O  O188  1  0.25496249  0.00608358  0.86932929  1
  O  O189  1  0.25409864  0.50389696  0.35967693  1
  O  O190  1  0.25274357  0.50484227  0.87166006  1
  O  O191  1  0.76334632  0.00119602  0.37257731  1
  O  O192  1  0.75321136  0.00796118  0.86382229  1
  O  O193  1  0.74796927  0.50937043  0.37135311  1
  O  O194  1  0.75467689  0.50644956  0.86448518  1
  O  O195  1  0.24519174  0.49893186  0.13120612  1
  O  O196  1  0.23757825  0.50756726  0.63505579  1
  O  O197  1  0.25703986  0.99395754  0.13241227  1
  O  O198  1  0.24927724  0.99464313  0.63075103  1
  O  O199  1  0.75091371  0.48106240  0.12155999  1
  O  O200  1  0.75266746  0.49452577  0.63729718  1
  O  O201  1  0.75457249  0.98820217  0.12809966  1
  O  O202  1  0.75353447  1.00514294  0.63734063  1
  O  O203  1  0.00130176  0.37083486  0.25281638  1
  O  O204  1  0.00883787  0.36679735  0.74627835  1
  O  O205  1  0.01781412  0.88184862  0.23997388  1
  O  O206  1  0.00986553  0.88096170  0.75860981  1
  O  O207  1  0.50368645  0.36657516  0.25472787  1
  O  O208  1  0.50874216  0.37532679  0.75693194  1
  O  O209  1  0.50223573  0.86869308  0.25395334  1
  O  O210  1  0.50851346  0.86955878  0.75054482  1
  O  O211  1  0.49810982  0.13823911  0.24404139  1
  O  O212  1  0.50176595  0.12603798  0.73363775  1
  O  O213  1  0.49437328  0.63048071  0.24554073  1
  O  O214  1  0.49800398  0.63285041  0.74360891  1
  O  O215  1  0.99503581  0.13277882  0.24452722  1
  O  O216  1  0.99514768  0.12842235  0.74505580  1
  O  O217  1  0.98117998  0.61554341  0.23202282  1
  O  O218  1  0.98845261  0.62210273  0.74591459  1
  O  O219  1  0.37018414  0.25553995  0.00681848  1
  O  O220  1  0.37009720  0.25903908  0.51182990  1
  O  O221  1  0.36686064  0.75808709  0.00362699  1
  O  O222  1  0.36364680  0.74881785  0.50814019  1
  O  O223  1  0.88366136  0.26188372  -0.00031818  1
  O  O224  1  0.86954701  0.26359235  0.50050916  1
  O  O225  1  0.86536854  0.76078637  0.00896803  1
  O  O226  1  0.87798241  0.75611263  0.50753273  1
  O  O227  1  0.12601025  0.24575781  0.49396533  1
  O  O228  1  0.13055549  0.24985235  0.99249468  1
  O  O229  1  0.13795438  0.74432893  0.49933614  1
  O  O230  1  0.13912490  0.75680351  0.99859971  1
  O  O231  1  0.63533143  0.25760882  0.48854808  1
  O  O232  1  0.61999577  0.24676679  0.98624584  1
  O  O233  1  0.63003286  0.73754989  0.49720764  1
  O  O234  1  0.63823857  0.75465010  1.00007460  1
  O  O235  1  0.49268106  0.24581244  0.13263288  1
  O  O236  1  0.49062217  0.23954044  0.62644205  1
  O  O237  1  0.49316693  0.74458213  0.13084290  1
  O  O238  1  0.49361953  0.74444278  0.63472441  1
  O  O239  1  0.99726642  0.24682151  0.13739167  1
  O  O240  1  1.00169539  0.24001348  0.63606176  1
  O  O241  1  0.98860871  0.74128671  0.11782713  1
  O  O242  1  0.99177139  0.73825961  0.62486773  1
  O  O243  1  0.00498302  0.25876403  0.36340242  1
  O  O244  1  0.00877707  0.24300139  0.86230075  1
  O  O245  1  0.01926831  0.70176732  0.36943588  1
  O  O246  1  0.00065774  0.76241090  0.88370612  1
  O  O247  1  0.50454693  0.25714218  0.36936789  1
  O  O248  1  0.50503209  0.25526254  0.87175994  1
  O  O249  1  0.49750801  0.75572322  0.36759725  1
  O  O250  1  0.49793514  0.74918090  0.86355942  1
  O  O251  1  0.23739969  0.12828795  0.49208308  1
  O  O252  1  0.24819364  0.12955701  0.98968580  1
  O  O253  1  0.25111751  0.63192998  0.49408812  1
  O  O254  1  0.25599098  0.63453348  0.99339053  1
  O  O255  1  0.76331459  0.14153544  0.50177648  1
  O  O256  1  0.75282743  0.11660712  0.98766491  1
  O  O257  1  0.75643903  0.62204043  0.48389031  1
  O  O258  1  0.75783796  0.63352171  0.99196684  1
  O  O259  1  0.25524266  0.36844055  0.00627939  1
  O  O260  1  0.26415981  0.37682115  0.49373535  1
  O  O261  1  0.25572763  0.87165283  0.00626795  1
  O  O262  1  0.24398051  0.86941863  0.51232835  1
  O  O263  1  0.76069851  0.37554178  0.00492371  1
  O  O264  1  0.75464203  0.37144785  0.50538140  1
  O  O265  1  0.75564256  0.87165129  0.00609844  1
  O  O266  1  0.77144912  0.86595984  0.50003164  1
  O  O267  1  0.13435864  0.49667538  0.23800190  1
  O  O268  1  0.12795850  0.49229571  0.74574069  1
  O  O269  1  0.13959291  0.98970793  0.25406480  1
  O  O270  1  0.13706214  0.99280197  0.74588704  1
  O  O271  1  0.61511739  0.48319365  0.24592548  1
  O  O272  1  0.63446566  0.48574723  0.75624875  1
  O  O273  1  0.62173612  0.99005462  0.25505642  1
  O  O274  1  0.63167954  0.98652495  0.75262941  1
  O  O275  1  0.36025796  -0.00038972  0.26260430  1
  O  O276  1  0.36303310  -0.00699826  0.75795876  1
  O  O277  1  0.36874699  0.51222734  0.24052935  1
  O  O278  1  0.36471553  0.49677590  0.75768290  1
  O  O279  1  0.87212299  0.00965515  0.25591575  1
  O  O280  1  0.86961094  0.00702679  0.75021774  1
  O  O281  1  0.87097692  0.50443093  0.24250287  1
  O  O282  1  0.86941921  0.50764798  0.75248485  1
  O  O283  1  0.11827987  0.37256009  0.36799198  1
  O  O284  1  0.12755965  0.36086749  0.86750549  1
  O  O285  1  0.12493414  0.87701144  0.36292211  1
  O  O286  1  0.11835095  0.87172769  0.86533386  1
  O  O287  1  0.61743893  0.36879034  0.36207501  1
  O  O288  1  0.62208582  0.36746123  0.86952516  1
  O  O289  1  0.61486792  0.86645208  0.36432747  1
  O  O290  1  0.62136420  0.86877206  0.86360996  1
  O  O291  1  0.38339860  0.13820611  0.12014338  1
  O  O292  1  0.37443699  0.13910472  0.62505974  1
  O  O293  1  0.38118651  0.63312897  0.13337818  1
  O  O294  1  0.38058129  0.63768354  0.63112067  1
  O  O295  1  0.88559490  0.12901933  0.13243801  1
  O  O296  1  0.88477997  0.12798408  0.63392193  1
  O  O297  1  0.87385100  0.63157271  0.13347725  1
  O  O298  1  0.88339267  0.63139738  0.63232936  1
  O  O299  1  0.25647196  0.25284073  0.12201520  1
  O  O300  1  0.26178733  0.24945431  0.62392445  1
  O  O301  1  0.25537015  0.75612129  0.11823111  1
  O  O302  1  0.25717390  0.75619647  0.62004185  1
  O  O303  1  0.75105164  0.26818008  0.12682306  1
  O  O304  1  0.75223800  0.25953200  0.61727763  1
  O  O305  1  0.75632496  0.75870258  0.12037029  1
  O  O306  1  0.76786470  0.73907068  0.62023303  1
  O  O307  1  0.24171642  0.24405666  0.37462157  1
  O  O308  1  0.24567928  0.24302247  0.87741666  1
  O  O309  1  0.25017491  0.74385346  0.38271114  1
  O  O310  1  0.25083018  0.74207136  0.88218649  1
  O  O311  1  0.74065443  0.25904239  0.38290630  1
  O  O312  1  0.74155593  0.23705381  0.86962706  1
  O  O313  1  0.75009066  0.73580539  0.37576003  1
  O  O314  1  0.75104348  0.74205780  0.88571985  1
  O  O315  1  -0.00010036  0.11500741  0.00644384  1
  O  O316  1  0.00928713  0.12922075  0.50747309  1
  O  O317  1  -0.01004733  0.61559202  0.01320643  1
  O  O318  1  0.00490686  0.61964207  0.51233635  1
  O  O319  1  0.50258831  0.11650891  0.00945610  1
  O  O320  1  0.49714247  0.12473023  0.51584745  1
  O  O321  1  0.49567383  0.61694652  0.00845583  1
  O  O322  1  0.49509105  0.62448137  0.51793826  1
  O  O323  1  0.49197469  0.37447384  0.49194016  1
  O  O324  1  0.49590959  0.38184672  0.99558004  1
  O  O325  1  0.50493241  0.87459759  0.49029239  1
  O  O326  1  0.49282720  0.88180226  1.00020145  1
  O  O327  1  0.99295738  0.37734338  0.48903305  1
  O  O328  1  0.98709643  0.38225206  1.00594435  1
  O  O329  1  0.98670237  0.87424659  0.50363506  1
  O  O330  1  0.99387785  0.87937705  0.99658917  1
  O  O331  1  0.49657751  0.48702250  0.37183931  1
  O  O332  1  0.49385211  0.49582818  0.88062995  1
  O  O333  1  0.48923176  0.99197198  0.37758160  1
  O  O334  1  0.49306578  1.00243589  0.88212787  1
  O  O335  1  1.00791143  0.49338405  0.37303659  1
  O  O336  1  1.00242532  0.50430773  0.89008532  1
  O  O337  1  0.98635297  1.00559586  0.37531685  1
  O  O338  1  0.99752668  0.98830674  0.88262803  1
  O  O339  1  -0.00442759  0.00902598  0.11533473  1
  O  O340  1  0.00603949  0.01240429  0.62438113  1
  O  O341  1  0.00846920  0.50487844  0.11596706  1
  O  O342  1  0.01207283  0.50955414  0.62715451  1
  O  O343  1  0.49015991  0.01050979  0.11856460  1
  O  O344  1  0.49562797  0.01571433  0.62007609  1
  O  O345  1  0.49575628  0.50994173  0.11354899  1
  O  O346  1  0.49344382  0.51600977  0.63352609  1
  O  O347  1  0.24800351  0.38415012  0.24517661  1
  O  O348  1  0.23679431  0.38750948  0.75501187  1
  O  O349  1  0.24738144  0.88379698  0.24187988  1
  O  O350  1  0.24360331  0.88039213  0.74023652  1
  O  O351  1  0.73616590  0.37584533  0.24183791  1
  O  O352  1  0.74664979  0.38070020  0.74273236  1
  O  O353  1  0.73815330  0.87644384  0.24346990  1
  O  O354  1  0.73905811  0.88156584  0.75161159  1
  O  O355  1  0.24296533  0.11818560  0.26020188  1
  O  O356  1  0.24637248  0.11662577  0.76202566  1
  O  O357  1  0.25738799  0.62141639  0.25458366  1
  O  O358  1  0.25069471  0.61275325  0.75839647  1
  O  O359  1  0.76059215  0.12695374  0.24122574  1
  O  O360  1  0.75788601  0.11992559  0.75494884  1
  O  O361  1  0.76147879  0.62456806  0.25470526  1
  O  O362  1  0.75861726  0.61814809  0.75441643  1
  O  O363  1  0.36310361  0.12297808  0.38130883  1
  O  O364  1  0.36780191  0.11390054  0.87916460  1
  O  O365  1  0.36683283  0.62717057  0.36603495  1
  O  O366  1  0.36396383  0.61619977  0.87288366  1
  O  O367  1  0.87810068  0.12031977  0.36435080  1
  O  O368  1  0.87029940  0.12283758  0.86410473  1
  O  O369  1  0.86672466  0.62011592  0.35730940  1
  O  O370  1  0.86727940  0.62509426  0.86693446  1
  O  O371  1  0.13220749  0.38145998  0.13034429  1
  O  O372  1  0.12129321  0.38398288  0.63272351  1
  O  O373  1  0.13831846  0.87401987  0.13129902  1
  O  O374  1  0.13028837  0.88021035  0.63057305  1
  O  O375  1  0.63276686  0.37136408  0.13301876  1
  O  O376  1  0.63616150  0.36879306  0.63258737  1
  O  O377  1  0.63219532  0.87220830  0.13498297  1
  O  O378  1  0.62242294  0.87109364  0.63922881  1
  O  O379  1  0.11702532  0.25951982  0.25376701  1
  O  O380  1  0.12028737  0.25644781  0.75468969  1
  O  O381  1  0.13467229  0.77105889  0.25320093  1
  O  O382  1  0.13049321  0.76100229  0.75102531  1
  O  O383  1  0.61451694  0.26107117  0.25530136  1
  O  O384  1  0.62411441  0.26194616  0.76042649  1
  O  O385  1  0.61045647  0.75640903  0.24937757  1
  O  O386  1  0.61885264  0.75960915  0.75145028  1
  O  O387  1  0.38155968  0.25684840  0.24143595  1
  O  O388  1  0.37699657  0.26153172  0.73360238  1
  O  O389  1  0.38375438  0.74212716  0.24529040  1
  O  O390  1  0.38256249  0.75042049  0.74408032  1
  O  O391  1  0.88117156  0.24518434  0.25073354  1
  O  O392  1  0.88313200  0.24298774  0.74883424  1
  O  O393  1  0.87276231  0.75021241  0.23936891  1
  O  O394  1  0.87118067  0.74419411  0.73847683  1
  O  O395  1  0.38018204  0.48635347  0.50831715  1
  O  O396  1  0.37931268  0.49263882  0.99365759  1
  O  O397  1  0.37069675  0.99982983  0.48761816  1
  O  O398  1  0.38290730  0.99496289  0.99234775  1
  O  O399  1  0.87808203  0.48704786  0.50582579  1
  O  O400  1  0.88337846  0.48915798  0.99808482  1
  O  O401  1  0.87937844  0.98834160  0.49312977  1
  O  O402  1  0.88365811  0.98631139  0.99847814  1
  O  O403  1  0.11320933  -0.00076574  -0.00433867  1
  O  O404  1  0.12287487  0.00892372  0.50634727  1
  O  O405  1  0.11925162  0.49349869  0.01291742  1
  O  O406  1  0.12543793  0.50540207  0.50869004  1
  O  O407  1  0.61295224  -0.00067535  -0.00396746  1
  O  O408  1  0.63112660  0.00185173  0.48269439  1
  O  O409  1  0.61469000  0.49698770  -0.00691831  1
  O  O410  1  0.61617996  0.50569895  0.49857333  1
  O  O411  1  0.37028186  0.36624518  0.12061574  1
  O  O412  1  0.38093049  0.36479770  0.61118499  1
  O  O413  1  0.36563662  0.86940526  0.12082114  1
  O  O414  1  0.36783602  0.86391531  0.62964799  1
  O  O415  1  0.86486094  0.37080979  0.11238434  1
  O  O416  1  0.86393155  0.37358551  0.61933501  1
  O  O417  1  0.86845556  0.86944093  0.12006905  1
  O  O418  1  0.88105873  0.86021385  0.62068544  1
  O  O419  1  0.12855902  0.13079397  0.38148096  1
  O  O420  1  0.13244832  0.13514902  0.87637253  1
  O  O421  1  0.14781915  0.61329633  0.38304078  1
  O  O422  1  0.13777694  0.62640919  0.87295000  1
  O  O423  1  0.62363315  0.14198347  0.36437487  1
  O  O424  1  0.63378680  0.13064720  0.87527559  1
  O  O425  1  0.63999361  0.62542000  0.36837538  1
  O  O426  1  0.63970629  0.62882491  0.86760041  1
