# generated using pymatgen
data_V85Zn86O256
_symmetry_space_group_name_H-M   'P 1'
_cell_length_a   16.95178745
_cell_length_b   16.95333865
_cell_length_c   16.96958486
_cell_angle_alpha   89.99240823
_cell_angle_beta   89.97218568
_cell_angle_gamma   90.01589047
_symmetry_Int_Tables_number   1
_chemical_formula_structural   V85Zn86O256
_chemical_formula_sum   'V85 Zn86 O256'
_cell_volume   4876.87789259
_cell_formula_units_Z   1
loop_
 _symmetry_equiv_pos_site_id
 _symmetry_equiv_pos_as_xyz
  1  'x, y, z'
loop_
 _atom_site_type_symbol
 _atom_site_label
 _atom_site_symmetry_multiplicity
 _atom_site_fract_x
 _atom_site_fract_y
 _atom_site_fract_z
 _atom_site_occupancy
  V  V0  1  0.86555390  0.50011336  0.37368864  1
  V  V1  1  0.49894059  0.50135179  0.00447725  1
  V  V2  1  0.24706507  0.62405028  0.38052474  1
  V  V3  1  0.50276108  0.37416141  0.37599912  1
  V  V4  1  0.61824870  0.63018889  -0.00576667  1
  V  V5  1  0.74126505  0.87596869  0.63064020  1
  V  V6  1  0.24759485  0.12277736  0.37527503  1
  V  V7  1  0.86392135  0.12108054  0.25201611  1
  V  V8  1  0.74673633  0.49511509  0.74034746  1
  V  V9  1  0.24989192  0.74778363  0.50126301  1
  V  V10  1  0.61791508  0.35920152  0.75054006  1
  V  V11  1  0.49969339  0.50465286  0.50968486  1
  V  V12  1  0.00127675  0.50806568  0.49866249  1
  V  V13  1  0.86342362  0.25488107  0.12829544  1
  V  V14  1  0.51562991  0.87323506  0.87124186  1
  V  V15  1  -0.00748916  0.49522873  0.00055830  1
  V  V16  1  0.50044598  0.12766704  0.64022161  1
  V  V17  1  -0.00148932  0.24964342  0.25127498  1
  V  V18  1  0.00277051  0.75146568  0.74857697  1
  V  V19  1  0.12448828  0.12944521  0.00060359  1
  V  V20  1  0.24867216  0.74954754  0.00041287  1
  V  V21  1  0.24800024  0.49954223  0.24962501  1
  V  V22  1  0.37746835  0.48976221  0.87460854  1
  V  V23  1  0.63461511  0.37619428  0.25002341  1
  V  V24  1  0.86929795  0.87983127  0.50063946  1
  V  V25  1  0.87138450  0.50322885  0.87836304  1
  V  V26  1  0.88811965  0.11813028  0.75358013  1
  V  V27  1  0.01202285  0.10486460  0.60726761  1
  V  V28  1  0.12770893  0.88120045  0.75055246  1
  V  V29  1  0.86361760  0.62283582  0.25007026  1
  V  V30  1  0.12271308  0.49746935  0.12468324  1
  V  V31  1  0.24859228  0.37351651  0.62377896  1
  V  V32  1  0.24853207  0.50284124  0.74966918  1
  V  V33  1  0.86672736  0.75632260  0.12412971  1
  V  V34  1  -0.00420672  0.00143333  -0.00924271  1
  V  V35  1  0.12448325  0.75008648  0.87467235  1
  V  V36  1  -0.00450666  0.62524816  0.12549800  1
  V  V37  1  0.74327594  0.12503018  0.38587327  1
  V  V38  1  0.37384656  0.49758671  0.37470921  1
  V  V39  1  0.37581956  0.24306120  0.64102053  1
  V  V40  1  0.25008669  0.24059270  0.50120737  1
  V  V41  1  0.38309009  0.74641227  0.62716474  1
  V  V42  1  0.50406676  0.75663879  0.25113115  1
  V  V43  1  -0.00383066  0.12349779  0.12709338  1
  V  V44  1  0.11853940  0.87210037  0.24528266  1
  V  V45  1  0.74475760  0.75280069  -0.00756983  1
  V  V46  1  0.12217863  0.24556492  0.38013820  1
  V  V47  1  0.74470027  0.25492705  0.51187390  1
  V  V48  1  0.50411441  0.01012321  0.49840017  1
  V  V49  1  0.24717226  0.12286765  0.87688200  1
  V  V50  1  0.00811978  0.36699314  0.87328661  1
  V  V51  1  0.38143678  0.87642245  0.49728638  1
  V  V52  1  0.74475656  0.00249124  0.75938533  1
  V  V53  1  0.87418825  0.62591121  0.75007662  1
  V  V54  1  0.86931086  -0.00290807  0.37550017  1
  V  V55  1  0.63123704  0.14508228  -0.00528253  1
  V  V56  1  0.81850245  0.31768223  -0.05195564  1
  V  V57  1  -0.00124289  0.37656793  0.37728871  1
  V  V58  1  0.50601918  0.12057798  0.12573239  1
  V  V59  1  0.24947312  0.25115348  0.00372695  1
  V  V60  1  0.25269058  0.87973492  0.62670935  1
  V  V61  1  0.25000432  0.87336083  0.12431387  1
  V  V62  1  0.12757347  0.50623247  0.61893185  1
  V  V63  1  0.12294186  0.62457970  -0.00129080  1
  V  V64  1  0.50077113  0.24923675  0.24982234  1
  V  V65  1  0.37651242  0.87492116  -0.00196114  1
  V  V66  1  0.37932253  0.74411557  0.12266793  1
  V  V67  1  0.51313187  -0.00166394  0.00205870  1
  V  V68  1  0.37550298  0.36947877  0.50087208  1
  V  V69  1  0.51675039  0.75193631  0.75236281  1
  V  V70  1  0.25518882  0.00618656  0.74792689  1
  V  V71  1  0.89418250  0.24990840  0.62355159  1
  V  V72  1  0.02766423  0.90194523  0.41259566  1
  V  V73  1  0.69114075  0.93806947  0.18646354  1
  V  V74  1  0.00611944  0.62942470  0.62191434  1
  V  V75  1  0.12050376  0.74419717  0.37937176  1
  V  V76  1  0.62815237  0.50834877  0.13071555  1
  V  V77  1  0.87337557  0.75322649  0.62423605  1
  V  V78  1  0.87007201  0.88085239  -0.00454537  1
  V  V79  1  0.62995535  0.00698745  0.62087546  1
  V  V80  1  0.25104712  -0.00110214  0.24747889  1
  V  V81  1  0.38264289  0.62244936  0.24619455  1
  V  V82  1  0.38380767  0.62561776  0.75052648  1
  V  V83  1  -0.00382596  0.75256386  0.25142324  1
  V  V84  1  0.37852294  -0.00065404  0.87388883  1
  Zn  Zn85  1  0.62439283  0.24706958  0.38315352  1
  Zn  Zn86  1  0.87275451  0.37938552  0.51097464  1
  Zn  Zn87  1  0.37635423  0.12408836  0.24887673  1
  Zn  Zn88  1  0.50639380  0.35753219  0.88000496  1
  Zn  Zn89  1  0.74019120  0.63117304  0.86832354  1
  Zn  Zn90  1  0.51242392  0.88264546  0.36937394  1
  Zn  Zn91  1  0.37782522  0.00023481  0.37351571  1
  Zn  Zn92  1  0.37538461  0.25150790  0.12753431  1
  Zn  Zn93  1  0.75319109  0.13157032  0.87762546  1
  Zn  Zn94  1  0.25214462  0.37449728  0.12465112  1
  Zn  Zn95  1  0.74445691  0.74622428  0.49842268  1
  Zn  Zn96  1  0.11153824  0.36608703  0.74347130  1
  Zn  Zn97  1  0.62241495  0.49814373  0.62716938  1
  Zn  Zn98  1  -0.00336428  0.88036266  0.87183069  1
  Zn  Zn99  1  0.12446796  0.37356367  0.24995021  1
  Zn  Zn100  1  0.25205594  0.62398877  0.87573720  1
  Zn  Zn101  1  0.75219180  0.37975615  0.12236477  1
  Zn  Zn102  1  0.63037073  0.75312107  0.37733917  1
  Zn  Zn103  1  0.74233902  0.62390871  0.37703193  1
  Zn  Zn104  1  0.12294193  -0.00019584  0.12380494  1
  Zn  Zn105  1  0.37706652  0.37176191  0.00266637  1
  Zn  Zn106  1  0.62382495  0.62892255  0.50424174  1
  Zn  Zn107  1  0.18416469  0.18653137  0.18851891  1
  Zn  Zn108  1  0.17795827  0.18629954  0.68756467  1
  Zn  Zn109  1  0.18809103  0.68433301  0.18830431  1
  Zn  Zn110  1  0.19239686  0.68858596  0.68705013  1
  Zn  Zn111  1  0.68265939  0.18253837  0.18962780  1
  Zn  Zn112  1  0.69352644  0.17971624  0.68104810  1
  Zn  Zn113  1  0.68649633  0.68920160  0.18217056  1
  Zn  Zn114  1  0.68538026  0.67843486  0.67728229  1
  Zn  Zn115  1  0.31286066  0.31179004  0.31131512  1
  Zn  Zn116  1  0.27265315  0.29739959  0.79994760  1
  Zn  Zn117  1  0.31434354  0.81162567  0.31204466  1
  Zn  Zn118  1  0.31485323  0.81239522  0.81269171  1
  Zn  Zn119  1  0.81252348  0.30905640  0.31867667  1
  Zn  Zn120  1  0.81484444  0.31213441  0.78082551  1
  Zn  Zn121  1  0.80501313  0.81576731  0.31350710  1
  Zn  Zn122  1  0.81049012  0.81689759  0.81386265  1
  Zn  Zn123  1  0.18501593  0.43432946  0.43945888  1
  Zn  Zn124  1  0.18805116  0.43764485  0.93755820  1
  Zn  Zn125  1  0.19713544  0.93342318  0.43621685  1
  Zn  Zn126  1  0.18471510  0.93948060  0.93831398  1
  Zn  Zn127  1  0.68657852  0.43305232  0.44235242  1
  Zn  Zn128  1  0.67976590  0.44499386  0.92985959  1
  Zn  Zn129  1  0.68557230  0.93387936  0.43484768  1
  Zn  Zn130  1  0.69056582  0.94004244  0.94180454  1
  Zn  Zn131  1  0.31840419  0.06275917  0.06456603  1
  Zn  Zn132  1  0.31644330  0.06278107  0.56344666  1
  Zn  Zn133  1  0.31150534  0.56146753  0.06117966  1
  Zn  Zn134  1  0.31837604  0.56397333  0.56276005  1
  Zn  Zn135  1  0.80939146  0.06398322  0.06168036  1
  Zn  Zn136  1  0.81988319  0.06459516  0.56283492  1
  Zn  Zn137  1  0.80574138  0.56721297  0.06110071  1
  Zn  Zn138  1  0.81337976  0.56592650  0.56133295  1
  Zn  Zn139  1  0.44028915  0.43472059  0.18496778  1
  Zn  Zn140  1  0.43445352  0.42831727  0.69226396  1
  Zn  Zn141  1  0.43744923  0.93720186  0.18329306  1
  Zn  Zn142  1  0.44174585  0.93874544  0.68936793  1
  Zn  Zn143  1  0.93384691  0.43593910  0.19072609  1
  Zn  Zn144  1  0.93856537  0.43979690  0.68865869  1
  Zn  Zn145  1  0.92737993  0.93900933  0.18597875  1
  Zn  Zn146  1  0.93663819  0.93923598  0.68701747  1
  Zn  Zn147  1  0.06336919  0.06337808  0.31081994  1
  Zn  Zn148  1  0.06702630  0.06396112  0.81098758  1
  Zn  Zn149  1  0.05798696  0.56474967  0.31055325  1
  Zn  Zn150  1  0.06199918  0.56006682  0.81106698  1
  Zn  Zn151  1  0.56792708  0.05904754  0.31138156  1
  Zn  Zn152  1  0.56280499  0.18818841  0.81531311  1
  Zn  Zn153  1  0.56366436  0.56384821  0.31595018  1
  Zn  Zn154  1  0.55998074  0.56066654  0.81419544  1
  Zn  Zn155  1  0.43504859  0.18535074  0.43703106  1
  Zn  Zn156  1  0.43083170  0.18317062  0.94243301  1
  Zn  Zn157  1  0.43687868  0.68722311  0.43350782  1
  Zn  Zn158  1  0.43975083  0.68538696  0.93335362  1
  Zn  Zn159  1  0.93575283  0.18330278  0.44251883  1
  Zn  Zn160  1  0.94064128  0.18337537  0.93432708  1
  Zn  Zn161  1  0.93292630  0.69028125  0.43700323  1
  Zn  Zn162  1  0.93636504  0.68947641  0.93761394  1
  Zn  Zn163  1  0.05789842  0.31181375  0.06130350  1
  Zn  Zn164  1  0.06402062  0.31593783  0.55897829  1
  Zn  Zn165  1  0.05619799  0.81358819  0.06188998  1
  Zn  Zn166  1  0.06890054  0.82595360  0.56208050  1
  Zn  Zn167  1  0.56037317  0.31752483  0.06662449  1
  Zn  Zn168  1  0.56277388  0.31341965  0.57054252  1
  Zn  Zn169  1  0.56386600  0.81454266  0.06719843  1
  Zn  Zn170  1  0.56341179  0.81548075  0.56216178  1
  O  O171  1  0.11294163  0.12251147  0.12074239  1
  O  O172  1  0.11055281  0.12240782  0.62709925  1
  O  O173  1  0.11747199  0.61504875  0.12138303  1
  O  O174  1  0.11960854  0.61867903  0.62931934  1
  O  O175  1  0.61394112  0.12990494  0.11382787  1
  O  O176  1  0.61237924  0.11998086  0.62316033  1
  O  O177  1  0.62545145  0.61262434  0.11713009  1
  O  O178  1  0.62154118  0.61113649  0.61820758  1
  O  O179  1  0.38087989  0.37922143  0.37974973  1
  O  O180  1  0.37169232  0.38778246  0.87567184  1
  O  O181  1  0.37432928  0.87537520  0.38846552  1
  O  O182  1  0.37452576  0.88217546  0.88355471  1
  O  O183  1  0.88656688  0.38184065  0.37483299  1
  O  O184  1  0.87598271  0.37907684  0.88086757  1
  O  O185  1  0.87527357  0.88456074  0.38408555  1
  O  O186  1  0.88087967  0.86911049  0.88986368  1
  O  O187  1  0.24969773  0.00618950  0.36770745  1
  O  O188  1  0.25618760  0.00168573  0.86945255  1
  O  O189  1  0.25087262  0.50533196  0.37012461  1
  O  O190  1  0.25482673  0.50258697  0.86581675  1
  O  O191  1  0.76211860  0.00996909  0.38593465  1
  O  O192  1  0.74731003  0.00293008  0.86179909  1
  O  O193  1  0.76316089  0.49701215  0.38013339  1
  O  O194  1  0.76138155  0.50418154  0.86679070  1
  O  O195  1  0.23965068  0.50068309  0.13273526  1
  O  O196  1  0.24368765  0.49884492  0.62655791  1
  O  O197  1  0.24818030  0.99358631  0.13206917  1
  O  O198  1  0.25785854  0.99188910  0.63436273  1
  O  O199  1  0.73269689  0.49877765  0.12063178  1
  O  O200  1  0.75764960  0.49859121  0.63940097  1
  O  O201  1  0.74567383  0.99845641  0.12516006  1
  O  O202  1  0.74601989  0.99737875  0.62634380  1
  O  O203  1  0.00174813  0.36794464  0.25955276  1
  O  O204  1  -0.00278280  0.37962095  0.76763305  1
  O  O205  1  0.00947169  0.87100131  0.24327623  1
  O  O206  1  0.00990019  0.87091854  0.75022866  1
  O  O207  1  0.50698853  0.36872539  0.25847060  1
  O  O208  1  0.51403067  0.37580883  0.75578075  1
  O  O209  1  0.48835831  0.86005731  0.25115861  1
  O  O210  1  0.49859452  0.86908364  0.76428105  1
  O  O211  1  0.50268609  0.13150138  0.24446484  1
  O  O212  1  0.50374649  0.12084918  0.73821672  1
  O  O213  1  0.48538448  0.63046218  0.25301595  1
  O  O214  1  0.49035629  0.63510020  0.75754231  1
  O  O215  1  0.99250110  0.13018603  0.24367897  1
  O  O216  1  0.99127336  0.11794527  0.74457679  1
  O  O217  1  0.99134687  0.63350920  0.24382187  1
  O  O218  1  0.99397501  0.63082670  0.74415607  1
  O  O219  1  0.36264514  0.24985793  0.00829575  1
  O  O220  1  0.36542013  0.25328376  0.50253387  1
  O  O221  1  0.37037953  0.75219218  0.00585054  1
  O  O222  1  0.37376192  0.75538457  0.50776573  1
  O  O223  1  0.87482425  0.25309276  0.00703752  1
  O  O224  1  0.87262960  0.25236911  0.51283005  1
  O  O225  1  0.86881804  0.75482548  0.00624558  1
  O  O226  1  0.86979043  0.75145455  0.51536782  1
  O  O227  1  0.13468789  0.25546057  0.48734022  1
  O  O228  1  0.12785416  0.23602880  1.00622724  1
  O  O229  1  0.13459098  0.75666005  0.48863522  1
  O  O230  1  0.12611255  0.74573750  0.99321717  1
  O  O231  1  0.64047313  0.25525091  0.50447046  1
  O  O232  1  0.62311485  0.24327206  1.00251064  1
  O  O233  1  0.62505068  0.74800782  0.49998468  1
  O  O234  1  0.63211456  0.74159480  1.00907182  1
  O  O235  1  0.50018102  0.24383401  0.13536573  1
  O  O236  1  0.49164593  0.23570811  0.62136420  1
  O  O237  1  0.48522472  0.75278208  0.13343322  1
  O  O238  1  0.48855550  0.76327373  0.63770417  1
  O  O239  1  0.99048744  0.24031061  0.12818692  1
  O  O240  1  0.99634536  0.24212716  0.61842735  1
  O  O241  1  0.99001404  0.74263081  0.12795183  1
  O  O242  1  0.99550549  0.74931062  0.63048353  1
  O  O243  1  0.00501608  0.25555649  0.37559869  1
  O  O244  1  -0.00170018  0.26834972  0.88364727  1
  O  O245  1  0.00831523  0.75696337  0.37254119  1
  O  O246  1  0.01167283  0.75038096  0.86877639  1
  O  O247  1  0.50176010  0.25829981  0.37240738  1
  O  O248  1  0.49048592  0.24614992  0.87495298  1
  O  O249  1  0.49372192  0.75215469  0.35828686  1
  O  O250  1  0.49417487  0.76546539  0.86775760  1
  O  O251  1  0.25242637  0.13244194  0.49249612  1
  O  O252  1  0.24121851  0.12580955  0.99901567  1
  O  O253  1  0.25662355  0.62894957  0.48682998  1
  O  O254  1  0.24079391  0.63201119  0.99891376  1
  O  O255  1  0.75955191  0.13861979  0.49480583  1
  O  O256  1  0.73628992  0.12700340  0.99823787  1
  O  O257  1  0.74774341  0.62644849  0.49669198  1
  O  O258  1  0.73936834  0.63408572  0.99446022  1
  O  O259  1  0.24737285  0.36359412  0.00103982  1
  O  O260  1  0.25483095  0.36529538  0.50478057  1
  O  O261  1  0.25362374  0.86876405  0.00512091  1
  O  O262  1  0.26165647  0.86938012  0.50923467  1
  O  O263  1  0.75045406  0.37553825  -0.00299778  1
  O  O264  1  0.75699394  0.35993433  0.49907069  1
  O  O265  1  0.75815497  0.86782859  -0.00270094  1
  O  O266  1  0.75833663  0.87322883  0.51188645  1
  O  O267  1  0.13032128  0.50117488  0.24234013  1
  O  O268  1  0.13332470  0.49924791  0.73917577  1
  O  O269  1  0.13362280  0.99007745  0.24766284  1
  O  O270  1  0.13567121  0.98650453  0.75687242  1
  O  O271  1  0.61491207  0.49421393  0.23654471  1
  O  O272  1  0.63920923  0.50280123  0.75157675  1
  O  O273  1  0.63628869  0.99841251  0.24808178  1
  O  O274  1  0.64471267  1.00486908  0.73546680  1
  O  O275  1  0.36168005  -0.00271492  0.25154621  1
  O  O276  1  0.36695438  -0.00748740  0.76110282  1
  O  O277  1  0.36797062  0.50501688  0.25337879  1
  O  O278  1  0.37374931  0.50801722  0.75578940  1
  O  O279  1  0.87892999  0.01137795  0.26053151  1
  O  O280  1  0.86637985  0.01370051  0.74271091  1
  O  O281  1  0.88242638  0.51098632  0.26093903  1
  O  O282  1  0.86761098  0.50600984  0.75597030  1
  O  O283  1  0.11342360  0.36847419  0.37415591  1
  O  O284  1  0.10969267  0.38492791  0.87232942  1
  O  O285  1  0.12507208  0.86294420  0.35917879  1
  O  O286  1  0.12316582  0.86689898  0.86866828  1
  O  O287  1  0.61694365  0.37355777  0.36895541  1
  O  O288  1  0.62444997  0.37798802  0.85655138  1
  O  O289  1  0.62423746  0.86809869  0.37201029  1
  O  O290  1  0.61359269  0.87709255  0.87803141  1
  O  O291  1  0.38958282  0.12759487  0.12897778  1
  O  O292  1  0.38891345  0.12991947  0.62426746  1
  O  O293  1  0.36594307  0.63250283  0.13449397  1
  O  O294  1  0.37398269  0.63557934  0.63470111  1
  O  O295  1  0.87768063  0.13092153  0.13398641  1
  O  O296  1  0.89213780  0.13001866  0.62933836  1
  O  O297  1  0.87804052  0.62972468  0.13142986  1
  O  O298  1  0.88272037  0.63237798  0.63466238  1
  O  O299  1  0.24777784  0.25027866  0.11745265  1
  O  O300  1  0.25684762  0.24883594  0.61374722  1
  O  O301  1  0.25698690  0.75293309  0.12051605  1
  O  O302  1  0.26220189  0.75620116  0.62079566  1
  O  O303  1  0.76104175  0.25026454  0.13064248  1
  O  O304  1  0.76424385  0.24271856  0.61429823  1
  O  O305  1  0.76192174  0.74343676  0.11347050  1
  O  O306  1  0.75846673  0.76026937  0.63230232  1
  O  O307  1  0.24268311  0.24305225  0.37889140  1
  O  O308  1  0.25749347  0.23341360  0.89363340  1
  O  O309  1  0.24421575  0.74175607  0.37825762  1
  O  O310  1  0.23923843  0.74912347  0.88043735  1
  O  O311  1  0.75176543  0.24247055  0.39113298  1
  O  O312  1  0.77022488  0.25992905  0.88018385  1
  O  O313  1  0.75185309  0.74381776  0.37840061  1
  O  O314  1  0.75373400  0.74825130  0.88719122  1
  O  O315  1  0.00392413  0.12012666  0.00635013  1
  O  O316  1  0.00297385  0.11856760  0.50754142  1
  O  O317  1  0.00352808  0.61556172  0.00414607  1
  O  O318  1  -0.00380165  0.61518495  0.50372157  1
  O  O319  1  0.50884731  0.11720003  0.00662172  1
  O  O320  1  0.49488176  0.11278340  0.50469914  1
  O  O321  1  0.50592974  0.61789626  -0.00110819  1
  O  O322  1  0.49118453  0.60558518  0.49391772  1
  O  O323  1  0.49427978  0.37668380  0.49299363  1
  O  O324  1  0.49828907  0.38477216  0.99637099  1
  O  O325  1  0.49254384  0.88792186  0.50237284  1
  O  O326  1  0.49646350  0.87802110  0.99270076  1
  O  O327  1  0.99807271  0.38761916  0.49354156  1
  O  O328  1  1.00225481  0.38873143  0.99144248  1
  O  O329  1  0.97634881  0.85571661  0.49934180  1
  O  O330  1  0.99479271  0.88670386  0.99808401  1
  O  O331  1  0.49336408  0.48769492  0.38025906  1
  O  O332  1  0.49203776  0.49762635  0.88570186  1
  O  O333  1  0.49760449  1.00076853  0.38246315  1
  O  O334  1  0.49052727  0.98464047  0.88383778  1
  O  O335  1  0.99754097  0.49456589  0.38220045  1
  O  O336  1  0.98758895  0.49509643  0.88061399  1
  O  O337  1  0.99310774  0.99175183  0.36937211  1
  O  O338  1  1.00315565  1.00230572  0.88734950  1
  O  O339  1  -0.00325232  0.01315699  0.11963620  1
  O  O340  1  0.00155205  0.00557985  0.62162753  1
  O  O341  1  0.00269953  0.50329279  0.11831659  1
  O  O342  1  0.00708750  0.50632550  0.61815788  1
  O  O343  1  0.49555374  0.00721589  0.11440498  1
  O  O344  1  0.50769649  0.00911380  0.62211665  1
  O  O345  1  0.51066054  0.49564249  0.11252216  1
  O  O346  1  0.49081215  0.49126044  0.61025669  1
  O  O347  1  0.24643387  0.38842481  0.25188629  1
  O  O348  1  0.26185288  0.39640409  0.73826469  1
  O  O349  1  0.24195867  0.87860184  0.24497191  1
  O  O350  1  0.24716403  0.88180234  0.74496244  1
  O  O351  1  0.73687806  0.37024748  0.25379195  1
  O  O352  1  0.73895303  0.38847809  0.75124023  1
  O  O353  1  0.76177358  0.88149931  0.23576814  1
  O  O354  1  0.76142449  0.89302380  0.74290846  1
  O  O355  1  0.24914434  0.11473429  0.25510740  1
  O  O356  1  0.24465156  0.11118955  0.76004318  1
  O  O357  1  0.25475592  0.61477837  0.25869861  1
  O  O358  1  0.26050482  0.61560768  0.74916428  1
  O  O359  1  0.76061221  0.13497827  0.26239313  1
  O  O360  1  0.76085121  0.11552294  0.75148966  1
  O  O361  1  0.76104574  0.62767736  0.24930461  1
  O  O362  1  0.75918509  0.61681323  0.75088669  1
  O  O363  1  0.36042828  0.12336990  0.37018629  1
  O  O364  1  0.36116939  0.10593937  0.88609472  1
  O  O365  1  0.36551198  0.61772522  0.36617275  1
  O  O366  1  0.37152606  0.61778769  0.86565960  1
  O  O367  1  0.86997810  0.11819579  0.36986137  1
  O  O368  1  0.87513859  0.12968967  0.85753762  1
  O  O369  1  0.87655114  0.61635859  0.36589918  1
  O  O370  1  0.87754419  0.61962218  0.86271284  1
  O  O371  1  0.12276434  0.38725490  0.12690246  1
  O  O372  1  0.13106081  0.38496821  0.62548648  1
  O  O373  1  0.13054416  0.87363045  0.13115897  1
  O  O374  1  0.14443498  0.86699322  0.63738544  1
  O  O375  1  0.62912482  0.38475586  0.13329665  1
  O  O376  1  0.62171968  0.38037583  0.64415578  1
  O  O377  1  0.62783635  0.87874477  0.13173407  1
  O  O378  1  0.63720412  0.88409458  0.62622196  1
  O  O379  1  0.11824509  0.25108844  0.26229688  1
  O  O380  1  0.16724189  0.27008003  0.75702087  1
  O  O381  1  0.11832432  0.75415220  0.25367344  1
  O  O382  1  0.12542532  0.75806379  0.75743479  1
  O  O383  1  0.61507179  0.25784016  0.25397371  1
  O  O384  1  0.63203811  0.25531180  0.74620431  1
  O  O385  1  0.60441961  0.74091379  0.24320199  1
  O  O386  1  0.61536286  0.74345168  0.74727129  1
  O  O387  1  0.38868676  0.24880046  0.25130130  1
  O  O388  1  0.36291959  0.25261607  0.73858804  1
  O  O389  1  0.37711159  0.74106944  0.24185073  1
  O  O390  1  0.37807236  0.74251006  0.74438083  1
  O  O391  1  0.88067717  0.24351499  0.24577070  1
  O  O392  1  0.87513112  0.23258354  0.73158646  1
  O  O393  1  0.87920462  0.74541785  0.24150177  1
  O  O394  1  0.87973087  0.74495574  0.74304059  1
  O  O395  1  0.38085310  0.49058311  0.49399953  1
  O  O396  1  0.38104885  0.50105384  0.99263079  1
  O  O397  1  0.38251276  0.99171768  0.49859088  1
  O  O398  1  0.38259850  0.99130267  0.99547516  1
  O  O399  1  0.88450834  0.49792360  0.49382466  1
  O  O400  1  0.88059169  0.50874346  0.99136145  1
  O  O401  1  0.87676010  0.99020249  0.49225996  1
  O  O402  1  0.88239963  0.99308233  1.00409670  1
  O  O403  1  0.11598096  0.00964091  0.00445889  1
  O  O404  1  0.09721275  -0.06489065  0.48688003  1
  O  O405  1  0.11756807  0.50561550  0.00688769  1
  O  O406  1  0.11885743  0.49923781  0.51072142  1
  O  O407  1  0.61441967  0.00659242  -0.00415872  1
  O  O408  1  0.61850648  -0.00345589  0.51259731  1
  O  O409  1  0.61729874  0.50763065  0.00665193  1
  O  O410  1  0.60721978  0.49186377  0.50215042  1
  O  O411  1  0.37015424  0.37226220  0.12240813  1
  O  O412  1  0.36941863  0.36354371  0.61904833  1
  O  O413  1  0.36807528  0.86564470  0.11724726  1
  O  O414  1  0.36904994  0.86985440  0.61905680  1
  O  O415  1  0.87013531  0.36543188  0.12885939  1
  O  O416  1  0.88520159  0.35629703  0.62995379  1
  O  O417  1  0.88377305  0.86385233  0.11098451  1
  O  O418  1  0.86761697  0.86956415  0.62129012  1
  O  O419  1  0.13567464  0.13170719  0.37166475  1
  O  O420  1  0.13737698  0.11841731  0.88557248  1
  O  O421  1  0.13144655  0.63598095  0.36849717  1
  O  O422  1  0.12606465  0.63189931  0.87888041  1
  O  O423  1  0.64000450  0.12745624  0.37405567  1
  O  O424  1  0.63113103  0.13141550  0.88991891  1
  O  O425  1  0.62376180  0.63004400  0.38132840  1
  O  O426  1  0.62425425  0.62108782  0.88927277  1
