# generated using pymatgen
data_V85Zn86O256
_symmetry_space_group_name_H-M   'P 1'
_cell_length_a   16.91926456
_cell_length_b   16.92138301
_cell_length_c   16.93009675
_cell_angle_alpha   89.98212515
_cell_angle_beta   89.92809200
_cell_angle_gamma   90.06062883
_symmetry_Int_Tables_number   1
_chemical_formula_structural   V85Zn86O256
_chemical_formula_sum   'V85 Zn86 O256'
_cell_volume   4847.03516728
_cell_formula_units_Z   1
loop_
 _symmetry_equiv_pos_site_id
 _symmetry_equiv_pos_as_xyz
  1  'x, y, z'
loop_
 _atom_site_type_symbol
 _atom_site_label
 _atom_site_symmetry_multiplicity
 _atom_site_fract_x
 _atom_site_fract_y
 _atom_site_fract_z
 _atom_site_occupancy
  V  V0  1  0.62699289  0.87740118  0.25020901  1
  V  V1  1  0.49605577  -0.00517538  0.00293669  1
  V  V2  1  -0.00328070  0.37141544  0.37299497  1
  V  V3  1  0.87719036  0.75403104  0.62783603  1
  V  V4  1  0.12025397  0.00179164  0.12693701  1
  V  V5  1  0.62272254  0.36269225  0.75239475  1
  V  V6  1  0.25238262  0.12641463  0.87348465  1
  V  V7  1  0.37363089  0.00006475  0.37544928  1
  V  V8  1  0.37178150  0.25034574  0.12549423  1
  V  V9  1  0.12334632  0.62799836  0.49134945  1
  V  V10  1  0.37452655  0.74197828  0.12232126  1
  V  V11  1  0.75029957  0.87444163  0.62191378  1
  V  V12  1  0.75843488  0.74750620  0.00013541  1
  V  V13  1  -0.00369141  0.62822167  0.62677186  1
  V  V14  1  0.37771091  0.24945285  0.63893487  1
  V  V15  1  0.75010640  0.50324647  0.76638374  1
  V  V16  1  -0.00358337  0.49811712  -0.01172285  1
  V  V17  1  0.87508287  0.62358861  0.76198057  1
  V  V18  1  0.62689417  0.13609841  -0.00256304  1
  V  V19  1  0.75411945  0.74921991  0.49589890  1
  V  V20  1  0.12798988  0.74899123  0.86410574  1
  V  V21  1  0.37468186  0.87279681  0.49887154  1
  V  V22  1  0.74960083  0.25030709  0.49769126  1
  V  V23  1  0.24886132  0.37725167  0.62822469  1
  V  V24  1  0.87411676  0.37451305  0.49694757  1
  V  V25  1  0.25670250  0.87783033  0.11806893  1
  V  V26  1  0.62868153  0.74342946  0.37029330  1
  V  V27  1  0.50135820  0.36063920  0.87191355  1
  V  V28  1  0.62200566  0.87332644  0.75029021  1
  V  V29  1  0.87512684  -0.00481046  0.87450972  1
  V  V30  1  0.74624108  0.13714904  0.87772866  1
  V  V31  1  0.49872645  0.62202024  0.63275159  1
  V  V32  1  0.25017541  0.62215066  0.36215818  1
  V  V33  1  0.37526688  0.74421554  0.63280669  1
  V  V34  1  0.62991571  -0.00030067  0.12632573  1
  V  V35  1  -0.00993407  0.63496255  0.12713932  1
  V  V36  1  0.75611000  0.87061660  0.12548074  1
  V  V37  1  -0.00160892  0.49894686  0.49778562  1
  V  V38  1  0.75634431  0.50914619  0.24937894  1
  V  V39  1  0.75565970  0.36603440  0.12290077  1
  V  V40  1  0.87685049  0.12614597  0.74868459  1
  V  V41  1  0.62676616  0.62377025  0.49908298  1
  V  V42  1  0.12403729  0.50089531  0.62571445  1
  V  V43  1  0.01392748  0.13151584  0.62239628  1
  V  V44  1  0.12360154  0.25072053  0.87809225  1
  V  V45  1  0.49990522  0.87316173  0.37436427  1
  V  V46  1  0.37040556  0.50274737  0.36069187  1
  V  V47  1  0.63281295  0.62164148  -0.00266886  1
  V  V48  1  0.62273747  0.12517900  0.49898346  1
  V  V49  1  0.37261753  0.12486558  0.25175615  1
  V  V50  1  0.11930862  0.24637764  0.37775159  1
  V  V51  1  0.37372868  0.37555133  -0.00178879  1
  V  V52  1  0.37421329  0.37854757  0.50150739  1
  V  V53  1  0.24497721  0.24774368  0.50237504  1
  V  V54  1  0.74896281  0.38050928  0.62371038  1
  V  V55  1  0.87444821  0.11507652  0.24168620  1
  V  V56  1  0.62968323  0.74474883  0.87511561  1
  V  V57  1  0.24947149  0.87484240  0.62583148  1
  V  V58  1  0.50046081  0.37438813  0.37334011  1
  V  V59  1  0.37361793  0.51426495  0.87300847  1
  V  V60  1  0.49979597  0.00079491  0.50181102  1
  V  V61  1  0.13406122  0.62784581  -0.00294219  1
  V  V62  1  0.25261980  0.00091262  0.75032137  1
  V  V63  1  -0.00259326  0.25908937  0.75812505  1
  V  V64  1  0.12729379  0.37597471  0.25122017  1
  V  V65  1  0.12081725  0.50303636  0.12900124  1
  V  V66  1  0.24899525  0.74853976  0.49195122  1
  V  V67  1  -0.00264428  0.24277014  0.24110590  1
  V  V68  1  0.49519652  0.87273848  0.87940938  1
  V  V69  1  0.49832274  0.12410242  0.12520026  1
  V  V70  1  0.74895586  0.12097606  0.36625005  1
  V  V71  1  0.24876813  0.38054867  0.12683552  1
  V  V72  1  0.49636393  0.12838222  0.63703611  1
  V  V73  1  0.49522701  0.73956994  0.25180443  1
  V  V74  1  -0.00016268  0.00352123  0.00103973  1
  V  V75  1  0.62895804  0.50052176  0.12500751  1
  V  V76  1  0.25378475  0.51472679  0.75416592  1
  V  V77  1  0.12184850  0.38273448  0.76092246  1
  V  V78  1  0.37615513  0.00272841  0.87438464  1
  V  V79  1  0.50191293  0.49903069  -0.00320410  1
  V  V80  1  0.24096684  0.12223027  0.37932003  1
  V  V81  1  0.74979369  0.00096245  0.74987396  1
  V  V82  1  0.87669580  0.37035671  -0.01419652  1
  V  V83  1  0.12144702  0.86307378  0.25805552  1
  V  V84  1  0.87220844  0.51187217  0.37072883  1
  Zn  Zn85  1  0.62346032  0.25230447  0.37142591  1
  Zn  Zn86  1  0.49775617  0.61955248  0.12885293  1
  Zn  Zn87  1  0.12200499  0.12612013  0.00449964  1
  Zn  Zn88  1  0.00632646  -0.00338008  0.49632447  1
  Zn  Zn89  1  0.49573452  0.74275786  0.75528979  1
  Zn  Zn90  1  0.87958042  0.87076543  0.00349679  1
  Zn  Zn91  1  0.87602255  0.25316794  0.62608790  1
  Zn  Zn92  1  0.50066716  0.25180793  0.24963291  1
  Zn  Zn93  1  0.62844024  0.37246834  0.24926373  1
  Zn  Zn94  1  0.49997141  0.50134443  0.50001618  1
  Zn  Zn95  1  0.87585330  -0.00269576  0.38058684  1
  Zn  Zn96  1  -0.02855960  0.86360392  0.40479511  1
  Zn  Zn97  1  0.13009271  0.00645227  0.62035642  1
  Zn  Zn98  1  0.87634389  0.24535961  0.11749179  1
  Zn  Zn99  1  0.62416156  0.00012767  0.62479674  1
  Zn  Zn100  1  0.25756154  0.74955309  -0.00780639  1
  Zn  Zn101  1  0.11603943  0.87533353  0.74720938  1
  Zn  Zn102  1  -0.00079999  0.87001836  0.86842966  1
  Zn  Zn103  1  0.62284081  0.49950519  0.62564068  1
  Zn  Zn104  1  -0.01257750  0.74923739  0.26199872  1
  Zn  Zn105  1  0.24722249  0.24949050  0.00107377  1
  Zn  Zn106  1  0.24692336  -0.00473389  0.25151772  1
  Zn  Zn107  1  0.18734751  0.18722852  0.18990751  1
  Zn  Zn108  1  0.19309896  0.19306124  0.69787192  1
  Zn  Zn109  1  0.18621945  0.68892869  0.18133548  1
  Zn  Zn110  1  0.18659507  0.68836108  0.68078593  1
  Zn  Zn111  1  0.68622304  0.18878334  0.18706405  1
  Zn  Zn112  1  0.68895647  0.18720858  0.68306281  1
  Zn  Zn113  1  0.81267787  0.68930522  0.18359129  1
  Zn  Zn114  1  0.68814695  0.68526424  0.68820893  1
  Zn  Zn115  1  0.31007327  0.31185422  0.31345287  1
  Zn  Zn116  1  0.30964759  0.32142037  0.81630950  1
  Zn  Zn117  1  0.30973206  0.81113201  0.30740645  1
  Zn  Zn118  1  0.30969621  0.81244314  0.81398110  1
  Zn  Zn119  1  0.81258532  0.31062528  0.30867383  1
  Zn  Zn120  1  0.80925026  0.31438290  0.81121241  1
  Zn  Zn121  1  0.81368920  0.81889143  0.31397975  1
  Zn  Zn122  1  0.81171353  0.81027296  0.81025226  1
  Zn  Zn123  1  0.18775058  0.43847762  0.43667417  1
  Zn  Zn124  1  0.18927294  0.44327524  0.93959060  1
  Zn  Zn125  1  0.17937353  0.94037066  0.44091394  1
  Zn  Zn126  1  0.18507734  0.93395655  0.93799681  1
  Zn  Zn127  1  0.68743261  0.44116971  0.43454688  1
  Zn  Zn128  1  0.68767933  0.42595414  0.93827437  1
  Zn  Zn129  1  0.69216600  0.93532583  0.43635958  1
  Zn  Zn130  1  0.68657730  0.93868422  0.93917116  1
  Zn  Zn131  1  0.31028713  0.06112108  0.05880675  1
  Zn  Zn132  1  0.31366690  0.06485059  0.56301562  1
  Zn  Zn133  1  0.31315641  0.56001994  0.06680251  1
  Zn  Zn134  1  0.31166131  0.56283003  0.56102566  1
  Zn  Zn135  1  0.81032904  0.06105058  0.06000478  1
  Zn  Zn136  1  0.81728611  0.06221617  0.56197566  1
  Zn  Zn137  1  0.81313555  0.55469878  0.05493501  1
  Zn  Zn138  1  0.81216502  0.56435631  0.56133173  1
  Zn  Zn139  1  0.43916951  0.43640802  0.18680806  1
  Zn  Zn140  1  0.43784656  0.43860191  0.69048763  1
  Zn  Zn141  1  0.43670799  0.93420104  0.18916862  1
  Zn  Zn142  1  0.43572207  0.93764265  0.68891557  1
  Zn  Zn143  1  0.93805993  0.43699841  0.18368556  1
  Zn  Zn144  1  0.93480943  0.44072248  0.68953241  1
  Zn  Zn145  1  0.94046746  0.93489272  0.19060466  1
  Zn  Zn146  1  0.94311253  0.93905883  0.68168341  1
  Zn  Zn147  1  0.05705628  0.05245147  0.31322974  1
  Zn  Zn148  1  0.06354881  0.06124275  0.81048193  1
  Zn  Zn149  1  0.05876731  0.56443405  0.30918203  1
  Zn  Zn150  1  0.06303148  0.57082700  0.81287528  1
  Zn  Zn151  1  0.56107395  0.06273437  0.31245970  1
  Zn  Zn152  1  0.56543026  0.06204541  0.81479039  1
  Zn  Zn153  1  0.56575790  0.55897562  0.31268854  1
  Zn  Zn154  1  0.56538112  0.55719775  0.81293783  1
  Zn  Zn155  1  0.43333443  0.19027528  0.44187689  1
  Zn  Zn156  1  0.43580408  0.18441895  0.94069505  1
  Zn  Zn157  1  0.43737077  0.68406036  0.44071937  1
  Zn  Zn158  1  0.44302233  0.68768950  0.94372652  1
  Zn  Zn159  1  0.92765158  0.16555260  0.44508903  1
  Zn  Zn160  1  0.93781413  0.18384888  0.93613790  1
  Zn  Zn161  1  0.93701976  0.69210657  0.43747999  1
  Zn  Zn162  1  0.94655157  0.68679405  0.93886169  1
  Zn  Zn163  1  0.05921790  0.31565900  0.06083993  1
  Zn  Zn164  1  0.06203076  0.31200865  0.56656631  1
  Zn  Zn165  1  0.06682847  0.81684200  0.05680180  1
  Zn  Zn166  1  0.06412376  0.81308376  0.56051869  1
  Zn  Zn167  1  0.56062693  0.31399956  0.06494021  1
  Zn  Zn168  1  0.56172683  0.31222995  0.56327468  1
  Zn  Zn169  1  0.56444447  0.80874214  0.06385067  1
  Zn  Zn170  1  0.56253434  0.80896196  0.56254127  1
  O  O171  1  0.13686851  0.10670591  0.12455848  1
  O  O172  1  0.11602074  0.13136625  0.63843498  1
  O  O173  1  0.11816083  0.61780423  0.11771474  1
  O  O174  1  0.11575459  0.61958758  0.61671416  1
  O  O175  1  0.61923637  0.11649561  0.12046113  1
  O  O176  1  0.61804135  0.12486908  0.61306056  1
  O  O177  1  0.62219009  0.60646419  0.11412862  1
  O  O178  1  0.61677936  0.62467522  0.61832216  1
  O  O179  1  0.37611457  0.38430270  0.38040643  1
  O  O180  1  0.38129646  0.38339644  0.88275312  1
  O  O181  1  0.37920652  0.87909787  0.37882870  1
  O  O182  1  0.38827007  0.88264690  0.87078013  1
  O  O183  1  0.87979870  0.37919203  0.37977502  1
  O  O184  1  0.87295323  0.37404134  0.88669048  1
  O  O185  1  0.85695467  0.88530065  0.38984808  1
  O  O186  1  0.87049094  0.88677106  0.87428973  1
  O  O187  1  0.25616166  0.00788356  0.37509987  1
  O  O188  1  0.25711071  0.00338628  0.87158948  1
  O  O189  1  0.26188539  0.50547701  0.37677402  1
  O  O190  1  0.26030282  0.49896704  0.86728493  1
  O  O191  1  0.74859094  0.01846215  0.38237521  1
  O  O192  1  0.75610684  0.00543766  0.86821045  1
  O  O193  1  0.75675040  0.49481710  0.35818596  1
  O  O194  1  0.74802395  0.49670165  0.86444345  1
  O  O195  1  0.24094445  0.48808753  0.12388067  1
  O  O196  1  0.24448592  0.49529347  0.63067326  1
  O  O197  1  0.24850768  0.98841971  0.12594536  1
  O  O198  1  0.25485284  0.99319850  0.63261683  1
  O  O199  1  0.74737900  0.49138652  0.13141976  1
  O  O200  1  0.74907214  0.48839576  0.62539192  1
  O  O201  1  0.73437797  0.99129203  0.11751768  1
  O  O202  1  0.75195509  0.99256524  0.62871474  1
  O  O203  1  0.00852242  0.36705721  0.25304813  1
  O  O204  1  0.00829448  0.37226399  0.74878445  1
  O  O205  1  0.01592803  0.86901635  0.24346718  1
  O  O206  1  0.00248431  0.87939031  0.75325376  1
  O  O207  1  0.50201160  0.37419826  0.25913296  1
  O  O208  1  0.51098067  0.38130908  0.75966797  1
  O  O209  1  0.50711410  0.86682917  0.25560954  1
  O  O210  1  0.50992532  0.87384679  0.75619996  1
  O  O211  1  0.48677956  0.12540045  0.24560837  1
  O  O212  1  0.50677952  0.12003293  0.73595675  1
  O  O213  1  0.50556236  0.63572883  0.24852282  1
  O  O214  1  0.50561618  0.62384046  0.73749450  1
  O  O215  1  0.98530407  0.13019292  0.25378741  1
  O  O216  1  0.99326772  0.13536201  0.74749782  1
  O  O217  1  1.00399071  0.62978374  0.23171595  1
  O  O218  1  0.98460708  0.61578374  0.74046852  1
  O  O219  1  0.37138962  0.25667120  0.00820997  1
  O  O220  1  0.36281400  0.26280424  0.50400101  1
  O  O221  1  0.37745815  0.74941272  0.01622255  1
  O  O222  1  0.36934461  0.75469555  0.50794371  1
  O  O223  1  0.88745743  0.26518068  0.00066989  1
  O  O224  1  0.86193224  0.25305074  0.50036287  1
  O  O225  1  0.86226434  0.74989915  -0.01115097  1
  O  O226  1  0.86001192  0.74030538  0.51218440  1
  O  O227  1  0.13817293  0.26004243  0.49492286  1
  O  O228  1  0.12346119  0.25071008  0.98928821  1
  O  O229  1  0.13632400  0.73806838  0.50636388  1
  O  O230  1  0.13191564  0.74125753  0.99525760  1
  O  O231  1  0.63364020  0.24444788  0.49759070  1
  O  O232  1  0.61864124  0.23527468  1.00508919  1
  O  O233  1  0.63051527  0.74463248  0.49133168  1
  O  O234  1  0.63106372  0.73948415  0.99451600  1
  O  O235  1  0.48943924  0.24286106  0.12624187  1
  O  O236  1  0.48916097  0.24188156  0.61963010  1
  O  O237  1  0.49042699  0.74893222  0.13231378  1
  O  O238  1  0.49182882  0.74221120  0.62712588  1
  O  O239  1  1.00402030  0.24975891  0.13800320  1
  O  O240  1  0.99992611  0.24805496  0.64298012  1
  O  O241  1  1.00224852  0.73491327  0.11480854  1
  O  O242  1  0.99099054  0.73620789  0.62116604  1
  O  O243  1  0.00467129  0.25253851  0.36820627  1
  O  O244  1  0.00826617  0.24679029  0.86583387  1
  O  O245  1  0.00060024  0.75715236  0.37646650  1
  O  O246  1  0.02043889  0.75210320  0.88218389  1
  O  O247  1  0.49502846  0.26399362  0.37598185  1
  O  O248  1  0.49145129  0.26129864  0.87714891  1
  O  O249  1  0.50231833  0.75367804  0.36987601  1
  O  O250  1  0.50799963  0.75717074  0.87546891  1
  O  O251  1  0.25601487  0.13593200  0.49098765  1
  O  O252  1  0.24659550  0.12693911  0.98723796  1
  O  O253  1  0.24206229  0.63024571  0.49339257  1
  O  O254  1  0.23710434  0.62198043  1.00644747  1
  O  O255  1  0.74032441  0.13444103  0.49729111  1
  O  O256  1  0.73948923  0.11999641  0.99028831  1
  O  O257  1  0.73600585  0.63468648  0.50706680  1
  O  O258  1  0.74080099  0.62931088  1.00287352  1
  O  O259  1  0.25578378  0.37446716  0.00851720  1
  O  O260  1  0.25498162  0.37108545  0.50748326  1
  O  O261  1  0.24879860  0.87238187  0.01449779  1
  O  O262  1  0.25458694  0.86643000  0.50402575  1
  O  O263  1  0.76801247  0.38250522  0.00700910  1
  O  O264  1  0.75185363  0.36970469  0.50432902  1
  O  O265  1  0.74739982  0.86517895  0.00791968  1
  O  O266  1  0.73952545  0.86549711  0.51569321  1
  O  O267  1  0.11758533  0.49098229  0.23794702  1
  O  O268  1  0.12977627  0.49779148  0.74774861  1
  O  O269  1  0.12656914  0.98988672  0.24043854  1
  O  O270  1  0.14025950  0.99935368  0.74620751  1
  O  O271  1  0.63568378  0.49645259  0.24203983  1
  O  O272  1  0.63918099  0.49408466  0.74749969  1
  O  O273  1  0.61555751  0.99097975  0.23935706  1
  O  O274  1  0.63186060  0.99098886  0.74732242  1
  O  O275  1  0.37281614  0.00704341  0.25716972  1
  O  O276  1  0.36436340  -0.00359481  0.75997024  1
  O  O277  1  0.37449709  0.49768157  0.26183110  1
  O  O278  1  0.36560637  0.49577788  0.76071517  1
  O  O279  1  0.87659131  0.01273733  0.25015769  1
  O  O280  1  0.87008032  0.00914434  0.75456355  1
  O  O281  1  0.86544261  0.49568682  0.25515652  1
  O  O282  1  0.86111648  0.50973561  0.74705925  1
  O  O283  1  0.11899287  0.37107033  0.36747976  1
  O  O284  1  0.13136767  0.37052265  0.86682643  1
  O  O285  1  0.13733290  0.87455327  0.35658960  1
  O  O286  1  0.12667978  0.86240635  0.87061348  1
  O  O287  1  0.61285089  0.37602093  0.37488983  1
  O  O288  1  0.61484036  0.37515836  0.86670781  1
  O  O289  1  0.61994021  0.87000330  0.36900663  1
  O  O290  1  0.61630902  0.87040905  0.86804128  1
  O  O291  1  0.37534850  0.12818543  0.13279479  1
  O  O292  1  0.38392884  0.13708096  0.62057529  1
  O  O293  1  0.37674829  0.63654751  0.12678568  1
  O  O294  1  0.38451101  0.63350627  0.61658139  1
  O  O295  1  0.86597598  0.12727565  0.13664124  1
  O  O296  1  0.88103006  0.13243734  0.63967000  1
  O  O297  1  0.88609350  0.62176661  0.11811835  1
  O  O298  1  0.88003044  0.63088279  0.63054817  1
  O  O299  1  0.25246273  0.26152468  0.12432041  1
  O  O300  1  0.25446705  0.25580668  0.61973936  1
  O  O301  1  0.26191476  0.75642176  0.12236708  1
  O  O302  1  0.25803266  0.75450141  0.61541650  1
  O  O303  1  0.75054325  0.26292934  0.12389901  1
  O  O304  1  0.75121626  0.26231921  0.61664727  1
  O  O305  1  0.74759607  0.75766376  0.11282545  1
  O  O306  1  0.75432262  0.75601219  0.61998239  1
  O  O307  1  0.24264719  0.24363353  0.38287510  1
  O  O308  1  0.24354070  0.24362395  0.87521726  1
  O  O309  1  0.26039806  0.74001917  0.38607531  1
  O  O310  1  0.23869270  0.75168671  0.87818878  1
  O  O311  1  0.74683547  0.24275753  0.38174548  1
  O  O312  1  0.75295852  0.23655250  0.87296394  1
  O  O313  1  0.73850593  0.75271166  0.38524603  1
  O  O314  1  0.73553028  0.75687903  0.88207276  1
  O  O315  1  0.00269058  0.11032514  -0.00357710  1
  O  O316  1  0.01135726  0.15503277  0.52457926  1
  O  O317  1  0.00749470  0.61386945  0.00802190  1
  O  O318  1  0.00636893  0.61850810  0.50558504  1
  O  O319  1  0.50506086  0.11624558  0.00703907  1
  O  O320  1  0.50583732  0.12081213  0.50346128  1
  O  O321  1  0.51188896  0.61481022  0.00409726  1
  O  O322  1  0.51091380  0.62528960  0.50954187  1
  O  O323  1  0.49047135  0.37673699  0.49343334  1
  O  O324  1  0.49520350  0.38135642  0.99378182  1
  O  O325  1  0.49548890  0.87958719  0.49486937  1
  O  O326  1  0.50787011  0.88182225  0.99093824  1
  O  O327  1  0.99454004  0.37881550  0.49538852  1
  O  O328  1  0.99123241  0.38878061  1.00320475  1
  O  O329  1  0.99220539  0.88281387  0.51739410  1
  O  O330  1  0.99680888  0.88625797  0.99339262  1
  O  O331  1  0.48810787  0.49216510  0.37634094  1
  O  O332  1  0.49567118  0.49358175  0.88464653  1
  O  O333  1  0.49367154  0.99478420  0.38231312  1
  O  O334  1  0.49418109  0.99442620  0.88107763  1
  O  O335  1  0.99246182  0.49311936  0.37780134  1
  O  O336  1  1.00836136  0.50295574  0.89010531  1
  O  O337  1  0.99600865  0.98442830  0.37672041  1
  O  O338  1  0.99032017  1.00080194  0.87959068  1
  O  O339  1  0.01074827  -0.00591032  0.11709293  1
  O  O340  1  0.00114522  0.02427421  0.62673657  1
  O  O341  1  0.00610972  0.50829365  0.11806983  1
  O  O342  1  0.00218080  0.50855517  0.61791513  1
  O  O343  1  0.50391598  0.00276348  0.11898967  1
  O  O344  1  0.49771588  0.00747339  0.61710736  1
  O  O345  1  0.50750577  0.49528444  0.11336196  1
  O  O346  1  0.50013611  0.50764855  0.62127438  1
  O  O347  1  0.23529243  0.36992421  0.24452800  1
  O  O348  1  0.23955955  0.38434798  0.74480364  1
  O  O349  1  0.24244129  0.87404300  0.23680246  1
  O  O350  1  0.25053068  0.88267501  0.74081938  1
  O  O351  1  0.75018297  0.38175766  0.23869326  1
  O  O352  1  0.74669724  0.38530080  0.74303963  1
  O  O353  1  0.73293642  0.87056526  0.24090547  1
  O  O354  1  0.73948521  0.87789288  0.74173292  1
  O  O355  1  0.25978274  0.12340642  0.25881143  1
  O  O356  1  0.25105446  0.11831951  0.76403327  1
  O  O357  1  0.24238270  0.63003434  0.26318019  1
  O  O358  1  0.24881674  0.61328733  0.74121164  1
  O  O359  1  0.75824249  0.12906900  0.25541477  1
  O  O360  1  0.75611881  0.12114812  0.75340386  1
  O  O361  1  0.75041007  0.60772096  0.24027675  1
  O  O362  1  0.75773697  0.61081976  0.74693745  1
  O  O363  1  0.36711426  0.12243987  0.36930255  1
  O  O364  1  0.36988967  0.11143446  0.87897164  1
  O  O365  1  0.36828040  0.60951300  0.38110916  1
  O  O366  1  0.38349877  0.61370157  0.87929120  1
  O  O367  1  0.86259976  0.13160621  0.35563925  1
  O  O368  1  0.86835541  0.11706020  0.86576331  1
  O  O369  1  0.87638692  0.61063330  0.38114468  1
  O  O370  1  0.88098709  0.62843827  0.86049915  1
  O  O371  1  0.12963852  0.38099168  0.13065574  1
  O  O372  1  0.12816561  0.38272542  0.63606428  1
  O  O373  1  0.13720106  0.88224157  0.12848915  1
  O  O374  1  0.14190035  0.87193904  0.62736154  1
  O  O375  1  0.63458784  0.38479061  0.12039493  1
  O  O376  1  0.63104730  0.37762033  0.63098954  1
  O  O377  1  0.62824200  0.88019052  0.13179431  1
  O  O378  1  0.62916530  0.87455861  0.63453115  1
  O  O379  1  0.11810655  0.25464221  0.25720158  1
  O  O380  1  0.12013543  0.26180077  0.76163774  1
  O  O381  1  0.12341181  0.76124369  0.24295714  1
  O  O382  1  0.12957319  0.74712325  0.76056693  1
  O  O383  1  0.61908027  0.25332574  0.25297210  1
  O  O384  1  0.63234990  0.26354598  0.74678781  1
  O  O385  1  0.61362693  0.75869716  0.26293846  1
  O  O386  1  0.62348692  0.75551924  0.75802447  1
  O  O387  1  0.37394988  0.24216225  0.24438507  1
  O  O388  1  0.36742490  0.25906504  0.73749274  1
  O  O389  1  0.38438149  0.75468242  0.23758240  1
  O  O390  1  0.37577802  0.75441150  0.73678160  1
  O  O391  1  0.88356666  0.24338447  0.24366083  1
  O  O392  1  0.88241938  0.24636343  0.75187504  1
  O  O393  1  0.87416880  0.75636653  0.24553274  1
  O  O394  1  0.86400121  0.73268303  0.74126261  1
  O  O395  1  0.37367703  0.48783825  0.49460268  1
  O  O396  1  0.38336972  0.49562787  0.99635608  1
  O  O397  1  0.37962323  0.99332181  0.49462534  1
  O  O398  1  0.38811504  1.00131159  0.99371556  1
  O  O399  1  0.87750233  0.49359062  0.49191917  1
  O  O400  1  0.88916963  0.49120730  0.99788389  1
  O  O401  1  0.89768047  1.05112570  0.48592153  1
  O  O402  1  0.88018128  0.99883934  0.99056801  1
  O  O403  1  0.11819427  -0.00034917  0.00755800  1
  O  O404  1  0.12239808  0.00716549  0.50721336  1
  O  O405  1  0.11657961  0.50326065  0.00947515  1
  O  O406  1  0.11935437  0.50549965  0.50591833  1
  O  O407  1  0.61332905  0.00511960  0.00706691  1
  O  O408  1  0.61851999  0.00802461  0.50200217  1
  O  O409  1  0.62126006  0.50211407  0.00132835  1
  O  O410  1  0.62324082  0.51007203  0.50077112  1
  O  O411  1  0.36657516  0.37252876  0.12091237  1
  O  O412  1  0.37096168  0.37087080  0.61805987  1
  O  O413  1  0.36253695  0.86748444  0.12915049  1
  O  O414  1  0.36741846  0.86836401  0.61880614  1
  O  O415  1  0.86948382  0.37235073  0.11607172  1
  O  O416  1  0.86766689  0.37426678  0.61703520  1
  O  O417  1  0.85886923  0.88551542  0.12347685  1
  O  O418  1  0.86431227  0.86165313  0.63516000  1
  O  O419  1  0.13581225  0.12785217  0.36585086  1
  O  O420  1  0.13274753  0.13499095  0.87479027  1
  O  O421  1  0.13203476  0.61404000  0.38556670  1
  O  O422  1  0.12445930  0.63589462  0.88353490  1
  O  O423  1  0.62691019  0.12786540  0.38427595  1
  O  O424  1  0.63359501  0.11987305  0.88500090  1
  O  O425  1  0.61901860  0.63362921  0.38357586  1
  O  O426  1  0.61942817  0.63354556  0.88288544  1
