# generated using pymatgen
data_V85Zn86O256
_symmetry_space_group_name_H-M   'P 1'
_cell_length_a   16.92990058
_cell_length_b   16.92928867
_cell_length_c   16.92834224
_cell_angle_alpha   90.04845142
_cell_angle_beta   89.97695740
_cell_angle_gamma   90.04459818
_symmetry_Int_Tables_number   1
_chemical_formula_structural   V85Zn86O256
_chemical_formula_sum   'V85 Zn86 O256'
_cell_volume   4851.84844714
_cell_formula_units_Z   1
loop_
 _symmetry_equiv_pos_site_id
 _symmetry_equiv_pos_as_xyz
  1  'x, y, z'
loop_
 _atom_site_type_symbol
 _atom_site_label
 _atom_site_symmetry_multiplicity
 _atom_site_fract_x
 _atom_site_fract_y
 _atom_site_fract_z
 _atom_site_occupancy
  V  V0  1  0.86323526  0.74087853  0.62041020  1
  V  V1  1  0.87320131  0.62663176  0.25020508  1
  V  V2  1  0.24833249  0.88136213  0.13107260  1
  V  V3  1  0.62722226  0.12783774  0.50435630  1
  V  V4  1  0.75151360  0.62599173  0.85648877  1
  V  V5  1  0.11964777  0.87654251  0.26101298  1
  V  V6  1  0.12359830  0.24966475  0.37441732  1
  V  V7  1  0.12983804  0.62368909  -0.00669114  1
  V  V8  1  0.12084686  0.23821486  0.87451855  1
  V  V9  1  0.88001230  -0.00928782  0.37406150  1
  V  V10  1  0.13167872  0.49986976  0.61994468  1
  V  V11  1  0.37481440  0.24834988  0.12381539  1
  V  V12  1  0.24825114  0.50252467  0.25234885  1
  V  V13  1  0.25037568  0.74759292  -0.00514914  1
  V  V14  1  0.00184211  0.62317421  0.63073239  1
  V  V15  1  0.49953402  0.24854798  0.25171885  1
  V  V16  1  0.38061432  0.87388267  -0.00495672  1
  V  V17  1  0.87705926  0.24922896  0.12507952  1
  V  V18  1  0.75631328  0.26472182  0.50459150  1
  V  V19  1  0.50185421  0.00209181  0.50289880  1
  V  V20  1  0.24428436  0.87444560  0.62886745  1
  V  V21  1  0.37073307  -0.00061849  0.37380034  1
  V  V22  1  0.12766086  0.36947674  0.74597190  1
  V  V23  1  0.23494321  0.74606630  0.49868723  1
  V  V24  1  0.87784285  0.37704362  -0.00272930  1
  V  V25  1  0.50189601  0.74878207  0.25175133  1
  V  V26  1  0.62813151  0.74759928  0.38892926  1
  V  V27  1  0.74977482  0.37547917  0.12353567  1
  V  V28  1  0.37335288  0.37502408  -0.00392687  1
  V  V29  1  0.24897607  0.37570620  0.12490104  1
  V  V30  1  -0.00065935  0.50132923  -0.00432337  1
  V  V31  1  0.75190406  0.12507387  0.37630026  1
  V  V32  1  0.37530563  0.62499663  0.25294068  1
  V  V33  1  0.37352692  0.12207793  0.25041881  1
  V  V34  1  0.24397782  0.24041346  -0.00073842  1
  V  V35  1  0.74487145  0.62725404  0.38974465  1
  V  V36  1  0.74635583  0.87756484  0.12089857  1
  V  V37  1  0.62484887  0.87824268  0.24820611  1
  V  V38  1  0.12720718  0.75018990  0.86574664  1
  V  V39  1  0.75094695  0.24616140  -0.00272206  1
  V  V40  1  0.00120608  0.50379226  0.50099901  1
  V  V41  1  0.62263923  0.75279091  0.87946665  1
  V  V42  1  0.24333925  0.62664077  0.37981208  1
  V  V43  1  0.50490091  0.11441745  0.12544771  1
  V  V44  1  0.61937819  0.24889531  0.87591004  1
  V  V45  1  0.25370005  0.49466522  0.74666274  1
  V  V46  1  0.50299178  0.50250361  0.50315137  1
  V  V47  1  0.50157352  0.87495212  0.37712068  1
  V  V48  1  0.37463779  0.74912545  0.12531188  1
  V  V49  1  0.37593568  0.75052590  0.62123538  1
  V  V50  1  0.36819796  0.50451645  0.88104036  1
  V  V51  1  0.11764470  -0.00299930  0.62651474  1
  V  V52  1  0.87569171  0.87988369  -0.00490861  1
  V  V53  1  0.24433578  -0.00251640  0.75396187  1
  V  V54  1  0.75582530  0.11350870  0.86200534  1
  V  V55  1  0.62998130  0.38123434  0.74653797  1
  V  V56  1  0.49976871  0.76050053  0.75374881  1
  V  V57  1  0.00050142  0.37079230  0.86723725  1
  V  V58  1  -0.00005871  0.87765970  0.86831167  1
  V  V59  1  0.12336323  0.50198970  0.12523697  1
  V  V60  1  0.74940077  0.73876851  0.00173985  1
  V  V61  1  0.74687551  0.00220605  0.24422455  1
  V  V62  1  0.62841677  0.11483996  0.00247811  1
  V  V63  1  0.74733939  0.50115709  0.24777219  1
  V  V64  1  0.54017933  0.43278057  0.93337548  1
  V  V65  1  0.01014614  0.00152795  -0.00066877  1
  V  V66  1  0.49556697  0.37407624  0.37871630  1
  V  V67  1  -0.00567036  0.37524189  0.37897104  1
  V  V68  1  0.75243418  0.89012034  0.62348643  1
  V  V69  1  0.86902423  0.49657030  0.38287259  1
  V  V70  1  0.24955946  0.25570670  0.50740486  1
  V  V71  1  0.63584732  0.50148251  0.62751183  1
  V  V72  1  -0.00271739  0.63125413  0.12247642  1
  V  V73  1  0.50674984  0.61910417  0.11610120  1
  V  V74  1  0.24743951  0.12200669  0.37155385  1
  V  V75  1  -0.00645615  0.74738250  0.74901178  1
  V  V76  1  0.49666994  0.25481265  0.74991021  1
  V  V77  1  0.37029902  0.62594399  0.75463627  1
  V  V78  1  0.87893230  0.26400805  0.62871951  1
  V  V79  1  0.12265145  0.38021930  0.25099456  1
  V  V80  1  0.50466713  0.62536119  0.62367730  1
  V  V81  1  0.87560126  0.50689798  0.85802048  1
  V  V82  1  0.38495417  -0.00104343  0.87300944  1
  V  V83  1  0.62161013  0.37826071  0.24772879  1
  V  V84  1  0.00886697  0.12623839  0.12171568  1
  Zn  Zn85  1  0.37558692  0.49949375  0.37877722  1
  Zn  Zn86  1  0.87681741  0.86674379  0.49526110  1
  Zn  Zn87  1  0.87589014  0.75388345  0.12743528  1
  Zn  Zn88  1  0.62890130  0.00588221  0.63501990  1
  Zn  Zn89  1  0.87679318  0.12410831  0.24837954  1
  Zn  Zn90  1  -0.00177157  0.76542783  0.27541894  1
  Zn  Zn91  1  -0.00255843  0.24975769  0.25140946  1
  Zn  Zn92  1  0.88900404  0.12597968  0.74602457  1
  Zn  Zn93  1  -0.00151903  0.13579107  0.62189490  1
  Zn  Zn94  1  0.00370640  -0.00709786  0.49195122  1
  Zn  Zn95  1  0.37424659  0.87627323  0.50059828  1
  Zn  Zn96  1  0.24479966  0.11787875  0.87842441  1
  Zn  Zn97  1  0.62291224  0.50082571  0.10587630  1
  Zn  Zn98  1  0.12203178  0.12015282  0.49716081  1
  Zn  Zn99  1  0.36817141  0.25423691  0.63312728  1
  Zn  Zn100  1  0.13202799  0.00609581  0.12659131  1
  Zn  Zn101  1  0.37218184  0.12651570  0.75015329  1
  Zn  Zn102  1  0.63463741  0.88229586  0.75645205  1
  Zn  Zn103  1  0.62649590  0.25197093  0.37758691  1
  Zn  Zn104  1  0.36975611  0.37967869  0.51585595  1
  Zn  Zn105  1  0.50654462  -0.00964803  0.00057719  1
  Zn  Zn106  1  0.49528296  0.12884338  0.62698025  1
  Zn  Zn107  1  0.18746108  0.18970718  0.19109224  1
  Zn  Zn108  1  0.17605252  0.17807384  0.69266867  1
  Zn  Zn109  1  0.18488746  0.69320345  0.18818055  1
  Zn  Zn110  1  0.18828283  0.68185764  0.68543963  1
  Zn  Zn111  1  0.68680797  0.18900110  0.18723320  1
  Zn  Zn112  1  0.69001525  0.19305214  0.68583660  1
  Zn  Zn113  1  0.68603877  0.68997583  0.18887541  1
  Zn  Zn114  1  0.68234538  0.69168138  0.68801605  1
  Zn  Zn115  1  0.31142586  0.31152104  0.31436999  1
  Zn  Zn116  1  0.31117453  0.31439944  0.81636166  1
  Zn  Zn117  1  0.30956371  0.81247227  0.31484434  1
  Zn  Zn118  1  0.31202532  0.81526217  0.81241344  1
  Zn  Zn119  1  0.81029018  0.31187129  0.31303989  1
  Zn  Zn120  1  0.81133188  0.31010913  0.81102412  1
  Zn  Zn121  1  0.80789864  0.80894514  0.31010080  1
  Zn  Zn122  1  0.81425772  0.81298381  0.80889993  1
  Zn  Zn123  1  0.18628254  0.43943703  0.43627867  1
  Zn  Zn124  1  0.18855165  0.43435380  0.93393561  1
  Zn  Zn125  1  0.19004020  0.93417017  0.44090112  1
  Zn  Zn126  1  0.18671806  0.93253412  0.93792293  1
  Zn  Zn127  1  0.68031680  0.44096913  0.43692125  1
  Zn  Zn128  1  0.70488293  0.43519172  0.92681708  1
  Zn  Zn129  1  0.69203730  0.93637867  0.44229152  1
  Zn  Zn130  1  0.69085510  0.93703881  0.93365588  1
  Zn  Zn131  1  0.31729202  0.06033950  0.06003726  1
  Zn  Zn132  1  0.31097980  0.06774494  0.56373701  1
  Zn  Zn133  1  0.31388613  0.56327016  0.06416335  1
  Zn  Zn134  1  0.31671984  0.56244391  0.56414426  1
  Zn  Zn135  1  0.81798664  0.06113939  0.05968784  1
  Zn  Zn136  1  0.81928798  0.06933560  0.56067611  1
  Zn  Zn137  1  0.81363089  0.55996830  0.06011189  1
  Zn  Zn138  1  0.81614962  0.56192949  0.56582659  1
  Zn  Zn139  1  0.43662942  0.43995377  0.18509799  1
  Zn  Zn140  1  0.44092193  0.43241883  0.68964285  1
  Zn  Zn141  1  0.43454993  0.93636608  0.18911353  1
  Zn  Zn142  1  0.43435978  0.94036571  0.68629322  1
  Zn  Zn143  1  0.93740888  0.44143785  0.18979888  1
  Zn  Zn144  1  0.93872023  0.43122954  0.68359116  1
  Zn  Zn145  1  0.93675177  0.93992556  0.18596367  1
  Zn  Zn146  1  0.93032784  0.93197915  0.68956292  1
  Zn  Zn147  1  0.06391094  0.05985149  0.30257878  1
  Zn  Zn148  1  0.02828194  0.04664695  0.78940850  1
  Zn  Zn149  1  0.04427943  0.59290262  0.33025146  1
  Zn  Zn150  1  0.06583283  0.56127299  0.80984873  1
  Zn  Zn151  1  0.56407101  0.06206312  0.31667584  1
  Zn  Zn152  1  0.56405308  0.06541497  0.81111183  1
  Zn  Zn153  1  0.56203623  0.56211776  0.31313217  1
  Zn  Zn154  1  0.56414933  0.57276678  0.80864277  1
  Zn  Zn155  1  0.43490222  0.18834719  0.44057480  1
  Zn  Zn156  1  0.43676372  0.18237104  0.93687557  1
  Zn  Zn157  1  0.43878762  0.68621980  0.43882395  1
  Zn  Zn158  1  0.43811194  0.68714055  0.93595911  1
  Zn  Zn159  1  0.93676210  0.18223813  0.44358182  1
  Zn  Zn160  1  0.93884350  0.18496079  0.93656937  1
  Zn  Zn161  1  0.93690639  0.68537993  0.44267306  1
  Zn  Zn162  1  0.93408531  0.69051382  0.93663374  1
  Zn  Zn163  1  0.06234002  0.31305097  0.05886661  1
  Zn  Zn164  1  0.06398631  0.31829540  0.55867228  1
  Zn  Zn165  1  0.06508268  0.81280115  0.06089620  1
  Zn  Zn166  1  0.05484681  0.81697243  0.55863541  1
  Zn  Zn167  1  0.56499909  0.30172922  0.06783283  1
  Zn  Zn168  1  0.56352782  0.31377684  0.56555907  1
  Zn  Zn169  1  0.56523114  0.80740452  0.06426264  1
  Zn  Zn170  1  0.56498469  0.81731295  0.56631667  1
  O  O171  1  0.11382248  0.12795128  0.12787644  1
  O  O172  1  0.12615868  0.10700928  0.61857168  1
  O  O173  1  0.11728465  0.62083838  0.11671907  1
  O  O174  1  0.11753681  0.60949194  0.62937336  1
  O  O175  1  0.61679321  0.13049820  0.11572469  1
  O  O176  1  0.62504668  0.12541878  0.61404468  1
  O  O177  1  0.61153624  0.62261045  0.12922262  1
  O  O178  1  0.61183507  0.61849421  0.63426998  1
  O  O179  1  0.38776649  0.37657989  0.37289427  1
  O  O180  1  0.37581179  0.38318329  0.88902499  1
  O  O181  1  0.38128573  0.88251888  0.37597319  1
  O  O182  1  0.37188334  0.88219505  0.88518142  1
  O  O183  1  0.88211980  0.38502177  0.36683535  1
  O  O184  1  0.88227419  0.38064060  0.87659615  1
  O  O185  1  0.86628285  0.88749713  0.37113367  1
  O  O186  1  0.88664334  0.86615198  0.88310792  1
  O  O187  1  0.25958069  0.00827779  0.38106312  1
  O  O188  1  0.25319293  -0.00348466  0.86888711  1
  O  O189  1  0.25678415  0.50565757  0.37015896  1
  O  O190  1  0.26141175  0.49831912  0.86753535  1
  O  O191  1  0.75384620  0.00614434  0.36433080  1
  O  O192  1  0.75184814  0.01479457  0.87559753  1
  O  O193  1  0.75211372  0.50516506  0.36946642  1
  O  O194  1  0.75986426  0.51788637  0.87473743  1
  O  O195  1  0.24371594  0.49521693  0.13070822  1
  O  O196  1  0.24340719  0.50385031  0.63229160  1
  O  O197  1  0.25368376  0.98477890  0.12101474  1
  O  O198  1  0.24545589  0.99116083  0.63025101  1
  O  O199  1  0.74364085  0.49322860  0.12649336  1
  O  O200  1  0.73529949  0.50742672  0.62319151  1
  O  O201  1  0.75340400  0.99550504  0.13624498  1
  O  O202  1  0.75565177  0.99250194  0.62415279  1
  O  O203  1  0.00587766  0.37639046  0.26000067  1
  O  O204  1  0.01109340  0.37944987  0.76002239  1
  O  O205  1  0.01208251  0.87550490  0.24607421  1
  O  O206  1  0.00138711  0.86047584  0.75862024  1
  O  O207  1  0.50474863  0.37159045  0.25362598  1
  O  O208  1  0.51176371  0.36384548  0.75621670  1
  O  O209  1  0.50719820  0.87085852  0.25469261  1
  O  O210  1  0.49441246  0.86161434  0.74560182  1
  O  O211  1  0.49765699  0.12864434  0.24528733  1
  O  O212  1  0.50016651  0.14151299  0.75095785  1
  O  O213  1  0.49189662  0.62893976  0.24537716  1
  O  O214  1  0.48836407  0.63451940  0.74324723  1
  O  O215  1  0.99633985  0.12995141  0.23807938  1
  O  O216  1  1.00961136  0.14294052  0.73646655  1
  O  O217  1  0.98206362  0.60757872  0.23339256  1
  O  O218  1  1.00375210  0.62941316  0.73956354  1
  O  O219  1  0.36797161  0.25607028  0.00376010  1
  O  O220  1  0.35820072  0.25209533  0.49837471  1
  O  O221  1  0.36771522  0.75400726  0.00270457  1
  O  O222  1  0.37552590  0.75044544  0.51379511  1
  O  O223  1  0.87220952  0.25648947  0.00876553  1
  O  O224  1  0.86088311  0.24970228  0.50312390  1
  O  O225  1  0.86707457  0.76070536  0.00357774  1
  O  O226  1  0.87758039  0.74675570  0.51591133  1
  O  O227  1  0.13127704  0.25049378  0.48770980  1
  O  O228  1  0.13462384  0.25770311  0.98927613  1
  O  O229  1  0.13735602  0.74639696  0.50849117  1
  O  O230  1  0.13194664  0.74150114  0.99314776  1
  O  O231  1  0.63443121  0.24461176  0.49950413  1
  O  O232  1  0.63067020  0.24044596  0.99403207  1
  O  O233  1  0.61745348  0.75096748  0.48781516  1
  O  O234  1  0.63628274  0.75223797  0.99297217  1
  O  O235  1  0.49255918  0.23863230  0.13240903  1
  O  O236  1  0.50066295  0.24944463  0.63679471  1
  O  O237  1  0.49500326  0.74073898  0.13325189  1
  O  O238  1  0.49435834  0.74518518  0.63077492  1
  O  O239  1  0.99296434  0.24586911  0.12317462  1
  O  O240  1  0.98261569  0.25761502  0.61030797  1
  O  O241  1  0.99889449  0.73643790  0.12099963  1
  O  O242  1  0.99798272  0.74083519  0.63193382  1
  O  O243  1  0.00420793  0.25817827  0.37587781  1
  O  O244  1  0.00726348  0.26195994  0.88304196  1
  O  O245  1  0.00959601  0.69917771  0.36281667  1
  O  O246  1  0.00589498  0.75205927  0.86700930  1
  O  O247  1  0.50161528  0.25659056  0.37007542  1
  O  O248  1  0.51355144  0.24423337  0.87351159  1
  O  O249  1  0.50528450  0.75471559  0.36953451  1
  O  O250  1  0.51053155  0.74294245  0.86754337  1
  O  O251  1  0.24620909  0.13560398  0.48618304  1
  O  O252  1  0.25143670  0.13690368  1.00303455  1
  O  O253  1  0.25959525  0.63796558  0.49469714  1
  O  O254  1  0.24135806  0.63417986  1.00634225  1
  O  O255  1  0.74337044  0.13109056  0.49199927  1
  O  O256  1  0.74521106  0.12875576  0.99628958  1
  O  O257  1  0.75042118  0.61954022  0.48827845  1
  O  O258  1  0.75408090  0.63678419  0.99815323  1
  O  O259  1  0.25660921  0.36761390  0.00573521  1
  O  O260  1  0.25065678  0.35998246  0.49147199  1
  O  O261  1  0.25937250  0.86653235  0.00939481  1
  O  O262  1  0.25431246  0.85947057  0.50611644  1
  O  O263  1  0.75824736  0.36724345  0.00321782  1
  O  O264  1  0.74541747  0.36213608  0.48929384  1
  O  O265  1  0.75644258  0.87092987  0.00526967  1
  O  O266  1  0.75700364  0.87486125  0.51548982  1
  O  O267  1  0.13029855  0.49510393  0.24406877  1
  O  O268  1  0.13605611  0.49285461  0.74560998  1
  O  O269  1  0.12613009  0.98438304  0.24187007  1
  O  O270  1  0.13020981  0.99706752  0.73568001  1
  O  O271  1  0.62828605  0.48871673  0.24866326  1
  O  O272  1  0.61467686  0.48944320  0.74396769  1
  O  O273  1  0.63074514  0.98683708  0.25596934  1
  O  O274  1  0.61508731  0.99265648  0.74634657  1
  O  O275  1  0.38135570  0.00626334  0.26491763  1
  O  O276  1  0.36698862  0.00006303  0.75907885  1
  O  O277  1  0.36754973  0.50912532  0.25000966  1
  O  O278  1  0.37105580  0.50538699  0.75773881  1
  O  O279  1  0.86440780  0.00177786  0.25726358  1
  O  O280  1  0.91436325  0.01394306  0.76105354  1
  O  O281  1  0.86450280  0.50428418  0.25773432  1
  O  O282  1  0.88112356  0.49731188  0.75943397  1
  O  O283  1  0.11715939  0.36993400  0.36900268  1
  O  O284  1  0.11755847  0.37064812  0.86666070  1
  O  O285  1  0.13321829  0.87696847  0.35961146  1
  O  O286  1  0.11493336  0.85852375  0.88313777  1
  O  O287  1  0.61195776  0.37472025  0.36609668  1
  O  O288  1  0.61477617  0.37243924  0.87548076  1
  O  O289  1  0.62182096  0.86883381  0.36979288  1
  O  O290  1  0.63389030  0.85836686  0.87394557  1
  O  O291  1  0.38107968  0.12853661  0.13076912  1
  O  O292  1  0.37594631  0.13415221  0.62993534  1
  O  O293  1  0.38107649  0.62951645  0.13579980  1
  O  O294  1  0.38395968  0.63196762  0.63319750  1
  O  O295  1  0.88305109  0.13482271  0.12452730  1
  O  O296  1  0.87523200  0.14170018  0.62492281  1
  O  O297  1  0.87998816  0.62619188  0.12981175  1
  O  O298  1  0.88309648  0.63414261  0.62629285  1
  O  O299  1  0.25416255  0.25627969  0.11938502  1
  O  O300  1  0.23961453  0.24271547  0.60823680  1
  O  O301  1  0.25605671  0.75598541  0.11471472  1
  O  O302  1  0.25589486  0.75246566  0.61875208  1
  O  O303  1  0.75704135  0.25524183  0.11817642  1
  O  O304  1  0.75554702  0.25254089  0.61038259  1
  O  O305  1  0.75022614  0.75819183  0.11767132  1
  O  O306  1  0.76218298  0.74459325  0.62475260  1
  O  O307  1  0.24074708  0.24415256  0.37942424  1
  O  O308  1  0.24161320  0.24827058  0.88457031  1
  O  O309  1  0.25458746  0.74374051  0.39104771  1
  O  O310  1  0.24294842  0.75471639  0.88592991  1
  O  O311  1  0.74880996  0.24190301  0.38187938  1
  O  O312  1  0.73769303  0.24806811  0.88163782  1
  O  O313  1  0.74063655  0.73965412  0.37160202  1
  O  O314  1  0.74915562  0.74017268  0.88041147  1
  O  O315  1  -0.00539057  0.11280552  0.00641687  1
  O  O316  1  0.00405300  0.11373433  0.50426532  1
  O  O317  1  0.00534564  0.62028008  0.00442955  1
  O  O318  1  -0.00340737  0.61051394  0.51441885  1
  O  O319  1  0.50941753  0.12355405  0.00931848  1
  O  O320  1  0.50973712  0.12054333  0.49845653  1
  O  O321  1  0.49434000  0.62942440  0.01800715  1
  O  O322  1  0.49552258  0.61652710  0.51133639  1
  O  O323  1  0.49835554  0.37992583  0.49263308  1
  O  O324  1  0.49201171  0.36925602  1.00326322  1
  O  O325  1  0.49814326  0.88406882  0.49521259  1
  O  O326  1  0.48539832  0.87246898  1.01190931  1
  O  O327  1  1.00264037  0.38659373  0.48546453  1
  O  O328  1  0.99701048  0.38298854  0.98955165  1
  O  O329  1  0.99088161  0.87859503  0.49392800  1
  O  O330  1  0.99327879  0.87825548  0.99563250  1
  O  O331  1  0.50001180  0.49394875  0.38434206  1
  O  O332  1  0.49040978  0.50368939  0.87389689  1
  O  O333  1  0.49514487  0.99595796  0.38567612  1
  O  O334  1  0.48802308  1.00387813  0.87949623  1
  O  O335  1  0.99021903  0.49836391  0.38223454  1
  O  O336  1  0.99513522  0.49524524  0.87840519  1
  O  O337  1  0.98165795  1.00664046  0.36718608  1
  O  O338  1  1.01501722  0.98278722  0.88477546  1
  O  O339  1  0.00093643  0.01007599  0.11755246  1
  O  O340  1  0.01523060  -0.01249915  0.62356495  1
  O  O341  1  0.00415488  0.50587285  0.11421131  1
  O  O342  1  0.00499043  0.50345342  0.61923816  1
  O  O343  1  0.49539401  0.01105179  0.12411951  1
  O  O344  1  0.49686632  0.00331880  0.61123473  1
  O  O345  1  0.50247099  0.51407217  0.12702011  1
  O  O346  1  0.50513539  0.50793074  0.62124650  1
  O  O347  1  0.24424572  0.38043662  0.24502935  1
  O  O348  1  0.24376725  0.38730227  0.75523178  1
  O  O349  1  0.24500137  0.86854563  0.23591172  1
  O  O350  1  0.25268149  0.88481959  0.74158583  1
  O  O351  1  0.74049584  0.37944002  0.24451669  1
  O  O352  1  0.72799996  0.37838975  0.76791835  1
  O  O353  1  0.74313865  0.88071435  0.24154523  1
  O  O354  1  0.75162627  0.86685268  0.73054419  1
  O  O355  1  0.25680822  0.13010278  0.26233259  1
  O  O356  1  0.24912083  0.10929626  0.75310858  1
  O  O357  1  0.25681703  0.62475918  0.25520449  1
  O  O358  1  0.26319014  0.61462314  0.74598982  1
  O  O359  1  0.74752121  0.11784236  0.25568971  1
  O  O360  1  0.74855622  0.12786143  0.76080128  1
  O  O361  1  0.75911718  0.61973003  0.24910437  1
  O  O362  1  0.75318948  0.63055854  0.75842641  1
  O  O363  1  0.36819271  0.11948221  0.37052964  1
  O  O364  1  0.36749220  0.11280195  0.87574475  1
  O  O365  1  0.37090863  0.62516602  0.36377017  1
  O  O366  1  0.37676469  0.61740485  0.86764661  1
  O  O367  1  0.86273301  0.11966508  0.37073037  1
  O  O368  1  0.85741074  0.13861607  0.87189122  1
  O  O369  1  0.86303384  0.61529543  0.36686332  1
  O  O370  1  0.86430129  0.61991437  0.87656644  1
  O  O371  1  0.12818031  0.38114117  0.13026179  1
  O  O372  1  0.11986957  0.38594013  0.63524241  1
  O  O373  1  0.14088570  0.87484923  0.12311735  1
  O  O374  1  0.13778044  0.87995183  0.62070785  1
  O  O375  1  0.62944759  0.37643380  0.13075273  1
  O  O376  1  0.62417531  0.38341181  0.63937492  1
  O  O377  1  0.63666929  0.87265143  0.13211605  1
  O  O378  1  0.64247043  0.87770253  0.62408268  1
  O  O379  1  0.12326553  0.26017527  0.26088893  1
  O  O380  1  0.13630361  0.26350028  0.75856834  1
  O  O381  1  0.12011714  0.76930848  0.24166440  1
  O  O382  1  0.12045445  0.73901699  0.76162555  1
  O  O383  1  0.61909612  0.26198644  0.25100600  1
  O  O384  1  0.62153191  0.26091137  0.75755006  1
  O  O385  1  0.62025888  0.76205226  0.25578417  1
  O  O386  1  0.61475022  0.75495021  0.75731128  1
  O  O387  1  0.38006361  0.24399747  0.24419561  1
  O  O388  1  0.38360281  0.24922622  0.75797501  1
  O  O389  1  0.37998625  0.74398064  0.24636829  1
  O  O390  1  0.37622211  0.74354390  0.74245742  1
  O  O391  1  0.87418579  0.25114886  0.23579813  1
  O  O392  1  0.86809164  0.25162170  0.73260188  1
  O  O393  1  0.87992787  0.74099229  0.24800243  1
  O  O394  1  0.88709281  0.74890568  0.73840053  1
  O  O395  1  0.38705300  0.49701186  0.49947300  1
  O  O396  1  0.37044968  0.49174108  0.99361266  1
  O  O397  1  0.38169269  1.00166465  0.48996926  1
  O  O398  1  0.37704533  0.98970455  0.99181762  1
  O  O399  1  0.88020750  0.50106096  0.48917170  1
  O  O400  1  0.88084198  0.49397637  0.99044420  1
  O  O401  1  0.87039535  1.00095560  0.48020797  1
  O  O402  1  0.88571916  0.98618440  1.00223948  1
  O  O403  1  0.11457527  -0.00609332  0.00752866  1
  O  O404  1  0.12851935  -0.00189317  0.51172386  1
  O  O405  1  0.12218656  0.50641860  0.00237771  1
  O  O406  1  0.11677885  0.49459975  0.50927230  1
  O  O407  1  0.62456540  0.01029166  -0.00384635  1
  O  O408  1  0.61850235  0.00909576  0.50237611  1
  O  O409  1  0.61424888  0.48410800  -0.01206073  1
  O  O410  1  0.61163877  0.49465148  0.51170806  1
  O  O411  1  0.37070000  0.37063736  0.11564624  1
  O  O412  1  0.37351535  0.36851691  0.62882101  1
  O  O413  1  0.36536946  0.86823153  0.12253027  1
  O  O414  1  0.36408388  0.86672296  0.62379519  1
  O  O415  1  0.87139138  0.37050504  0.11939972  1
  O  O416  1  0.86924603  0.36488749  0.62356038  1
  O  O417  1  0.86291103  0.87419000  0.11989735  1
  O  O418  1  0.86614971  0.86136045  0.62410046  1
  O  O419  1  0.13019478  0.13215036  0.37081348  1
  O  O420  1  0.12337242  0.13812975  0.87146497  1
  O  O421  1  0.14564701  0.61364114  0.37613519  1
  O  O422  1  0.12099695  0.63039146  0.88735405  1
  O  O423  1  0.63553687  0.12673007  0.38361568  1
  O  O424  1  0.63545615  0.13199911  0.88279567  1
  O  O425  1  0.63374344  0.63479056  0.36619663  1
  O  O426  1  0.64128706  0.63501952  0.86973668  1
