# generated using pymatgen
data_V85Zn86O256
_symmetry_space_group_name_H-M   'P 1'
_cell_length_a   16.95854279
_cell_length_b   16.95628222
_cell_length_c   16.96457972
_cell_angle_alpha   89.99860308
_cell_angle_beta   89.95840956
_cell_angle_gamma   90.02533183
_symmetry_Int_Tables_number   1
_chemical_formula_structural   V85Zn86O256
_chemical_formula_sum   'V85 Zn86 O256'
_cell_volume   4878.22823640
_cell_formula_units_Z   1
loop_
 _symmetry_equiv_pos_site_id
 _symmetry_equiv_pos_as_xyz
  1  'x, y, z'
loop_
 _atom_site_type_symbol
 _atom_site_label
 _atom_site_symmetry_multiplicity
 _atom_site_fract_x
 _atom_site_fract_y
 _atom_site_fract_z
 _atom_site_occupancy
  V  V0  1  0.50259428  0.74745745  0.75291598  1
  V  V1  1  0.63717964  0.74775248  0.38032087  1
  V  V2  1  0.12650479  0.25803206  0.86951923  1
  V  V3  1  0.50623310  0.49733572  0.00320788  1
  V  V4  1  0.87379184  0.49560073  0.86978967  1
  V  V5  1  0.36211639  0.51707377  0.89065109  1
  V  V6  1  0.12149943  0.12821729  0.49797621  1
  V  V7  1  0.76782661  0.88034760  0.61318356  1
  V  V8  1  0.62097742  0.49566071  0.64530751  1
  V  V9  1  0.75038531  0.12485162  0.38070422  1
  V  V10  1  0.74876788  0.00244805  0.75090655  1
  V  V11  1  0.88617951  0.37972595  0.00149992  1
  V  V12  1  0.78597648  0.71107346  0.54351317  1
  V  V13  1  -0.00321775  -0.00832494  0.49280539  1
  V  V14  1  0.12070272  0.62621337  0.49447422  1
  V  V15  1  0.50176143  0.38098946  0.86972076  1
  V  V16  1  0.00341614  0.25442070  0.24578613  1
  V  V17  1  0.24802078  0.50405339  0.74676623  1
  V  V18  1  0.61258771  0.12296511  0.51002997  1
  V  V19  1  0.24257996  0.49465922  0.25131560  1
  V  V20  1  0.37176971  0.74599531  0.62460784  1
  V  V21  1  -0.00450400  0.37197871  0.37582356  1
  V  V22  1  0.62500994  -0.00437237  0.13232389  1
  V  V23  1  0.11851043  0.38448222  0.74878927  1
  V  V24  1  0.38107018  -0.00201707  0.38100291  1
  V  V25  1  0.87473583  0.00051204  0.87655059  1
  V  V26  1  0.00715801  0.62235379  0.12017745  1
  V  V27  1  0.50804090  0.75704039  0.25272418  1
  V  V28  1  0.63278978  0.37285048  0.24795643  1
  V  V29  1  -0.00354570  0.12823134  0.62710508  1
  V  V30  1  0.12375086  -0.00236126  0.62845354  1
  V  V31  1  0.37801204  0.75529757  0.12297692  1
  V  V32  1  0.62586101  0.62598466  -0.00001649  1
  V  V33  1  0.00573445  0.74771460  0.26592905  1
  V  V34  1  0.24628371  0.87163392  0.62513840  1
  V  V35  1  0.63524138  0.49548726  0.12572767  1
  V  V36  1  0.37704076  0.24918355  0.12756444  1
  V  V37  1  0.49112167  0.24690970  0.74998912  1
  V  V38  1  0.37674020  0.37997242  0.50349672  1
  V  V39  1  0.37587768  0.87660582  0.00277102  1
  V  V40  1  0.74732414  0.26088398  0.00420812  1
  V  V41  1  0.25062409  -0.00627331  0.24391145  1
  V  V42  1  0.25402416  0.12945506  0.86524138  1
  V  V43  1  0.12606291  0.25730657  0.37082478  1
  V  V44  1  0.87176260  0.49819166  0.37943315  1
  V  V45  1  0.87277861  0.12140331  0.25223718  1
  V  V46  1  0.50112635  0.24912266  0.25175380  1
  V  V47  1  0.50831647  0.87513126  0.38518112  1
  V  V48  1  -0.00030827  0.12896699  0.12541724  1
  V  V49  1  0.75825703  0.25887496  0.50403697  1
  V  V50  1  0.75091595  0.37894789  0.64185220  1
  V  V51  1  0.63007301  0.86867854  0.74395741  1
  V  V52  1  0.25404042  0.24950763  -0.00141109  1
  V  V53  1  0.12536479  0.13167221  0.00039025  1
  V  V54  1  0.50383974  0.62466362  0.12682870  1
  V  V55  1  0.24978381  0.12398731  0.37165086  1
  V  V56  1  0.24524242  0.37704188  0.62402469  1
  V  V57  1  0.25076578  0.00056393  0.74550894  1
  V  V58  1  0.37820989  0.00496082  0.86866836  1
  V  V59  1  0.50126555  0.37728290  0.38226055  1
  V  V60  1  -0.00163456  0.00643116  0.00576926  1
  V  V61  1  0.86948950  0.25591885  0.12630076  1
  V  V62  1  0.00391189  0.49175459  0.50167101  1
  V  V63  1  0.75222918  0.75015932  -0.00029359  1
  V  V64  1  0.37864791  0.50186534  0.37639053  1
  V  V65  1  0.62732492  0.61157775  0.49533103  1
  V  V66  1  0.75122514  0.50519384  0.25483444  1
  V  V67  1  0.74464926  0.87275424  0.13516640  1
  V  V68  1  0.37686033  0.62445436  0.25058897  1
  V  V69  1  0.87560998  0.74674043  0.13116295  1
  V  V70  1  0.12585783  0.87035810  0.27087163  1
  V  V71  1  0.50111306  0.87416890  0.87151058  1
  V  V72  1  0.24850470  0.75018392  0.48706866  1
  V  V73  1  0.50232344  0.62007816  0.61885029  1
  V  V74  1  -0.00089227  0.25471923  0.75443630  1
  V  V75  1  0.62612817  0.24981135  0.37947205  1
  V  V76  1  0.20324184  0.81672668  0.06705897  1
  V  V77  1  0.01532410  0.87661159  0.87441014  1
  V  V78  1  0.62820190  0.12532858  0.00071583  1
  V  V79  1  0.36864159  0.62372132  0.74966907  1
  V  V80  1  0.24040296  0.37103214  0.12898518  1
  V  V81  1  0.62673263  0.25558756  0.86792631  1
  V  V82  1  0.37771369  0.37222887  0.00177064  1
  V  V83  1  0.75332697  0.62040673  0.86051161  1
  V  V84  1  0.50137720  0.00087666  0.00025254  1
  Zn  Zn85  1  0.02920295  0.54210251  -0.03484540  1
  Zn  Zn86  1  0.62885450  0.75020863  0.87278367  1
  Zn  Zn87  1  0.87523758  0.62326554  0.25434869  1
  Zn  Zn88  1  0.75314195  0.12838794  0.87610727  1
  Zn  Zn89  1  0.12137177  0.49898092  0.12373593  1
  Zn  Zn90  1  0.45883384  0.09539326  0.65724905  1
  Zn  Zn91  1  0.37486889  0.25121818  0.62594136  1
  Zn  Zn92  1  0.14027164  0.72372815  -0.11845537  1
  Zn  Zn93  1  0.06862851  0.55352430  0.65492783  1
  Zn  Zn94  1  0.87172157  0.13151900  0.75137013  1
  Zn  Zn95  1  0.12717460  -0.00337737  0.12546954  1
  Zn  Zn96  1  0.87229110  0.87891085  0.00361635  1
  Zn  Zn97  1  0.61595206  -0.00177668  0.62187059  1
  Zn  Zn98  1  0.37714629  0.12213539  0.25118902  1
  Zn  Zn99  1  0.88075908  0.26626919  0.62411613  1
  Zn  Zn100  1  0.00276823  0.76617592  0.73788105  1
  Zn  Zn101  1  0.50116482  0.12336328  0.12718367  1
  Zn  Zn102  1  0.38155054  0.87577404  0.50350619  1
  Zn  Zn103  1  0.86685723  -0.01290927  0.39292838  1
  Zn  Zn104  1  0.24812739  0.62752331  0.37062616  1
  Zn  Zn105  1  0.74618281  -0.00733991  0.25923545  1
  Zn  Zn106  1  0.25127613  0.25137314  0.50047499  1
  Zn  Zn107  1  0.18674134  0.18642647  0.18837070  1
  Zn  Zn108  1  0.18929894  0.19008472  0.68458936  1
  Zn  Zn109  1  0.18251488  0.68126362  0.19487311  1
  Zn  Zn110  1  0.14650639  0.71105907  0.66770141  1
  Zn  Zn111  1  0.68833778  0.18496676  0.18812126  1
  Zn  Zn112  1  0.68736880  0.19162272  0.68852440  1
  Zn  Zn113  1  0.68923552  0.68710330  0.19117465  1
  Zn  Zn114  1  0.87866014  0.64345367  0.71315278  1
  Zn  Zn115  1  0.31380346  0.31318034  0.31362330  1
  Zn  Zn116  1  0.31277643  0.32419209  0.81435770  1
  Zn  Zn117  1  0.31894017  0.81786742  0.30882267  1
  Zn  Zn118  1  0.30673258  0.81583416  0.80915642  1
  Zn  Zn119  1  0.81306170  0.31284475  0.31344550  1
  Zn  Zn120  1  0.81235258  0.31641572  0.81361791  1
  Zn  Zn121  1  0.83314232  0.79581691  0.35684281  1
  Zn  Zn122  1  0.81816167  0.81245072  0.80731492  1
  Zn  Zn123  1  0.18798417  0.43867854  0.43589871  1
  Zn  Zn124  1  0.18758128  0.54014882  0.93596765  1
  Zn  Zn125  1  0.19057322  0.94156452  0.44122120  1
  Zn  Zn126  1  0.18783051  0.94966838  0.93681823  1
  Zn  Zn127  1  0.68999582  0.43445825  0.43991077  1
  Zn  Zn128  1  0.69109432  0.43606643  0.93575669  1
  Zn  Zn129  1  0.68295045  0.93949277  0.44001055  1
  Zn  Zn130  1  0.68777970  0.93561786  0.93756986  1
  Zn  Zn131  1  0.31421897  0.06451426  0.06125271  1
  Zn  Zn132  1  0.31079643  0.06486922  0.55765061  1
  Zn  Zn133  1  0.31840403  0.55694153  0.07392285  1
  Zn  Zn134  1  0.30683009  0.56385248  0.56067658  1
  Zn  Zn135  1  0.81019376  0.06537395  0.06516549  1
  Zn  Zn136  1  0.81172337  0.06642292  0.56594183  1
  Zn  Zn137  1  0.81568121  0.56359933  0.06230077  1
  Zn  Zn138  1  0.81085918  0.54185924  0.56113901  1
  Zn  Zn139  1  0.44034370  0.43553998  0.19108779  1
  Zn  Zn140  1  0.43677683  0.43879953  0.69045747  1
  Zn  Zn141  1  0.44028096  0.93604537  0.19266136  1
  Zn  Zn142  1  0.43491600  0.92822899  0.68662075  1
  Zn  Zn143  1  0.93763968  0.43554455  0.18827859  1
  Zn  Zn144  1  0.93603798  0.45442843  0.69852022  1
  Zn  Zn145  1  0.91340830  0.91067938  0.22843929  1
  Zn  Zn146  1  0.93900276  0.94294922  0.69227130  1
  Zn  Zn147  1  0.06355656  0.06159960  0.30993331  1
  Zn  Zn148  1  0.06441666  0.06560947  0.81341666  1
  Zn  Zn149  1  0.06159762  0.56231328  0.31446185  1
  Zn  Zn150  1  0.04947803  0.59826320  0.80436830  1
  Zn  Zn151  1  0.56351139  0.06317227  0.31699434  1
  Zn  Zn152  1  0.56814753  0.06450614  0.81282246  1
  Zn  Zn153  1  0.56233650  0.56276920  0.31306282  1
  Zn  Zn154  1  0.55739987  0.56886779  0.81702697  1
  Zn  Zn155  1  0.43373864  0.19087792  0.43946136  1
  Zn  Zn156  1  0.44177385  0.18594248  0.93562942  1
  Zn  Zn157  1  0.43964823  0.68968401  0.43854776  1
  Zn  Zn158  1  0.32347911  0.69063891  0.93449622  1
  Zn  Zn159  1  0.93585039  0.18668767  0.43773684  1
  Zn  Zn160  1  0.93606368  0.19180521  0.93692328  1
  Zn  Zn161  1  0.93791781  0.67550972  0.44293002  1
  Zn  Zn162  1  0.92007848  0.70646933  0.90825782  1
  Zn  Zn163  1  0.09827299  0.36649661  0.00399509  1
  Zn  Zn164  1  0.06434972  0.31509024  0.56367908  1
  Zn  Zn165  1  0.04113463  0.81230333  0.06104798  1
  Zn  Zn166  1  0.06006493  0.81266398  0.55100584  1
  Zn  Zn167  1  0.56366906  0.31224078  0.06318824  1
  Zn  Zn168  1  0.56591527  0.31361548  0.56519201  1
  Zn  Zn169  1  0.56169698  0.81217345  0.05991473  1
  Zn  Zn170  1  0.57334992  0.80311147  0.56330020  1
  O  O171  1  0.11759588  0.12778821  0.11714259  1
  O  O172  1  0.11922884  0.12014799  0.61684171  1
  O  O173  1  0.11223729  0.62380445  0.12166485  1
  O  O174  1  0.14465237  0.61357642  0.59997380  1
  O  O175  1  0.62467021  0.11891573  0.11481463  1
  O  O176  1  0.62696713  0.12634399  0.61351120  1
  O  O177  1  0.62238799  0.61711479  0.12059767  1
  O  O178  1  0.61755051  0.60664607  0.61327477  1
  O  O179  1  0.38306064  0.38116447  0.38056247  1
  O  O180  1  0.38074425  0.38790235  0.88531378  1
  O  O181  1  0.38616629  0.88174831  0.37883598  1
  O  O182  1  0.38023682  0.88803479  0.87912770  1
  O  O183  1  0.88567643  0.38138699  0.37017643  1
  O  O184  1  0.86226141  0.38771219  0.88801017  1
  O  O185  1  0.87626224  0.89311784  0.33565343  1
  O  O186  1  0.88145495  0.89007240  0.87913087  1
  O  O187  1  0.25524785  0.00686429  0.36619925  1
  O  O188  1  0.25711748  0.00852590  0.86529003  1
  O  O189  1  0.26355002  0.49604813  0.36626434  1
  O  O190  1  0.25885118  0.49061081  0.85750844  1
  O  O191  1  0.74987580  0.01060149  0.37603407  1
  O  O192  1  0.75756599  0.00148090  0.87020346  1
  O  O193  1  0.75956897  0.48953528  0.36758057  1
  O  O194  1  0.75080475  0.51538517  0.88160450  1
  O  O195  1  0.24969864  0.48842409  0.13416702  1
  O  O196  1  0.26078687  0.48890072  0.63729395  1
  O  O197  1  0.24996284  1.00912585  0.14041397  1
  O  O198  1  0.24464803  0.99634473  0.62869036  1
  O  O199  1  0.73975118  0.50082379  0.13261869  1
  O  O200  1  0.73436411  0.48725309  0.62616063  1
  O  O201  1  0.74145936  0.99006540  0.12161680  1
  O  O202  1  0.74917090  0.99381478  0.63450176  1
  O  O203  1  -0.00214223  0.36156548  0.25774853  1
  O  O204  1  0.01176408  0.37142093  0.74615975  1
  O  O205  1  0.01487489  0.85570938  0.24115141  1
  O  O206  1  -0.00010394  0.88150827  0.76958520  1
  O  O207  1  0.50778283  0.36534120  0.25987732  1
  O  O208  1  0.49634019  0.36992956  0.76574405  1
  O  O209  1  0.49749318  0.86397628  0.26319051  1
  O  O210  1  0.50810223  0.86655070  0.75305618  1
  O  O211  1  0.50066741  0.13808778  0.25133939  1
  O  O212  1  0.50021904  0.14144207  0.75699242  1
  O  O213  1  0.49458047  0.63134835  0.24512468  1
  O  O214  1  0.49439938  0.63072160  0.73974975  1
  O  O215  1  0.99157060  0.13197254  0.24686343  1
  O  O216  1  1.00242922  0.13466304  0.74171694  1
  O  O217  1  1.00299842  0.63561658  0.24310660  1
  O  O218  1  0.97691490  0.57841974  0.71901695  1
  O  O219  1  0.37410386  0.25145875  0.00728407  1
  O  O220  1  0.37036101  0.26731958  0.49693478  1
  O  O221  1  0.37605018  0.75670193  0.01527307  1
  O  O222  1  0.36558656  0.74829937  0.50819037  1
  O  O223  1  0.86586435  0.25508557  0.00680343  1
  O  O224  1  0.86320611  0.24647695  0.50553876  1
  O  O225  1  0.86643401  0.75382227  0.00797324  1
  O  O226  1  0.85173875  0.74701267  0.46870847  1
  O  O227  1  0.12749620  0.24274973  0.49182612  1
  O  O228  1  0.13590359  0.25353227  0.98754976  1
  O  O229  1  0.13349160  0.73608515  0.49482601  1
  O  O230  1  0.13919356  0.76380583  1.01014087  1
  O  O231  1  0.63294816  0.24238016  0.49787139  1
  O  O232  1  0.63017966  0.24416583  0.99637317  1
  O  O233  1  0.63914798  0.73576979  0.49403969  1
  O  O234  1  0.63057298  0.74175687  0.99702515  1
  O  O235  1  0.49498873  0.24913078  0.13451624  1
  O  O236  1  0.50105336  0.26042951  0.64650640  1
  O  O237  1  0.49572510  0.74687403  0.13284835  1
  O  O238  1  0.49698096  0.74107562  0.63380176  1
  O  O239  1  0.98983048  0.24336562  0.13562503  1
  O  O240  1  1.00015160  0.24629834  0.63436161  1
  O  O241  1  0.99198021  0.73959951  0.13308688  1
  O  O242  1  1.03707458  0.74516945  0.63329465  1
  O  O243  1  0.00530392  0.25291108  0.36865629  1
  O  O244  1  0.01049613  0.24372340  0.86176058  1
  O  O245  1  -0.00343555  0.74373152  0.36435644  1
  O  O246  1  0.01166304  0.77469953  0.89703858  1
  O  O247  1  0.50439324  0.25709449  0.36882413  1
  O  O248  1  0.50471429  0.25878113  0.86883287  1
  O  O249  1  0.50799881  0.75620203  0.36969077  1
  O  O250  1  0.50161168  0.75500393  0.85860203  1
  O  O251  1  0.23727333  0.12505461  0.48686216  1
  O  O252  1  0.24649247  0.13082442  0.98931563  1
  O  O253  1  0.24629899  0.63279128  0.49134082  1
  O  O254  1  0.28476594  0.58913236  0.97144716  1
  O  O255  1  0.74537652  0.13371564  0.49366712  1
  O  O256  1  0.74245441  0.13580511  0.99895175  1
  O  O257  1  0.73557296  0.61838339  0.50274770  1
  O  O258  1  0.74034113  0.63557898  1.00450122  1
  O  O259  1  0.26475645  0.36440619  0.01268759  1
  O  O260  1  0.25624086  0.37734592  0.50824623  1
  O  O261  1  0.25585875  0.88523673  0.00766525  1
  O  O262  1  0.25063541  0.86835658  0.50862501  1
  O  O263  1  0.75404899  0.36360095  0.00318667  1
  O  O264  1  0.74271188  0.36503661  0.51335697  1
  O  O265  1  0.74913492  0.86207218  0.00571404  1
  O  O266  1  0.75676833  0.89009442  0.51379067  1
  O  O267  1  0.13951523  0.50246906  0.24879967  1
  O  O268  1  0.13277375  0.49750376  0.74778672  1
  O  O269  1  0.13005258  0.98886766  0.24676631  1
  O  O270  1  0.13877014  1.00898451  0.74125117  1
  O  O271  1  0.62985584  0.49223754  0.24627855  1
  O  O272  1  0.62068052  0.50404910  0.74325571  1
  O  O273  1  0.62759855  1.00937126  0.23572349  1
  O  O274  1  0.63749832  0.99319301  0.75168589  1
  O  O275  1  0.36809844  0.00051241  0.26009168  1
  O  O276  1  0.36339961  -0.00165193  0.75620966  1
  O  O277  1  0.36990236  0.50482542  0.25501394  1
  O  O278  1  0.37108720  0.50678477  0.76091833  1
  O  O279  1  0.86675857  0.01905314  0.23648517  1
  O  O280  1  0.86478968  0.00448271  0.75848645  1
  O  O281  1  0.86480415  0.49621025  0.25502900  1
  O  O282  1  0.85473077  0.48971480  0.77136978  1
  O  O283  1  0.12212978  0.36141102  0.37449429  1
  O  O284  1  0.12861767  0.36150494  0.86724943  1
  O  O285  1  0.12552438  0.87939482  0.36950475  1
  O  O286  1  0.11487977  0.88705624  0.87651899  1
  O  O287  1  0.61771623  0.36957403  0.37001964  1
  O  O288  1  0.61481354  0.36687624  0.88435556  1
  O  O289  1  0.62072060  0.86358603  0.38175744  1
  O  O290  1  0.61987706  0.87402999  0.86405651  1
  O  O291  1  0.37814165  0.13694417  0.12810345  1
  O  O292  1  0.36700184  0.13849098  0.61754997  1
  O  O293  1  0.38435749  0.63269277  0.13081383  1
  O  O294  1  0.38294590  0.62623997  0.62890099  1
  O  O295  1  0.87870795  0.13704373  0.12985852  1
  O  O296  1  0.88855009  0.12850883  0.62899985  1
  O  O297  1  0.87650108  0.63514005  0.13303691  1
  O  O298  1  0.84922274  0.64357114  0.60126721  1
  O  O299  1  0.25942801  0.25258829  0.12371971  1
  O  O300  1  0.25141410  0.26478266  0.62312963  1
  O  O301  1  0.25634584  0.74957343  0.12735200  1
  O  O302  1  0.24667564  0.75861694  0.61901918  1
  O  O303  1  0.75797740  0.24582262  0.11849311  1
  O  O304  1  0.74999109  0.26253773  0.62120723  1
  O  O305  1  0.75444100  0.75385697  0.12114670  1
  O  O306  1  0.74933022  0.77190529  0.61996629  1
  O  O307  1  0.24281196  0.24250772  0.37335495  1
  O  O308  1  0.24838273  0.24519215  0.87522996  1
  O  O309  1  0.25956726  0.75245907  0.38476388  1
  O  O310  1  0.24968098  0.75625116  0.88275102  1
  O  O311  1  0.74559072  0.24742111  0.38527445  1
  O  O312  1  0.74150844  0.25081916  0.88355695  1
  O  O313  1  0.73289711  0.74448273  0.35365471  1
  O  O314  1  0.75152957  0.73961919  0.88383004  1
  O  O315  1  0.00513124  0.12538577  0.00402059  1
  O  O316  1  0.00910788  0.12559102  0.50818478  1
  O  O317  1  -0.01619151  0.63079520  0.02142531  1
  O  O318  1  0.01279610  0.61228914  0.50029508  1
  O  O319  1  0.50988889  0.11928481  0.00258486  1
  O  O320  1  0.51341740  0.13424146  0.49933651  1
  O  O321  1  0.51773309  0.61754206  0.00798232  1
  O  O322  1  0.51005474  0.63183985  0.51244273  1
  O  O323  1  0.49518564  0.37036795  0.48905378  1
  O  O324  1  0.49549363  0.37595510  0.99253189  1
  O  O325  1  0.50151562  0.86392377  0.48977243  1
  O  O326  1  0.49566915  0.88073286  0.99058968  1
  O  O327  1  1.00753467  0.37477313  0.48309821  1
  O  O328  1  0.98418313  0.36441153  0.99540983  1
  O  O329  1  1.00202287  0.89256371  0.49801944  1
  O  O330  1  0.99532832  0.89214260  0.99426675  1
  O  O331  1  0.48800496  0.48998184  0.36687735  1
  O  O332  1  0.49404254  0.49637615  0.88471358  1
  O  O333  1  0.49401307  0.98947565  0.37041036  1
  O  O334  1  0.49392959  0.99754838  0.87673560  1
  O  O335  1  0.99589821  0.48787761  0.37719903  1
  O  O336  1  0.97662327  0.50479749  0.87059494  1
  O  O337  1  0.99959083  1.01035641  0.39159022  1
  O  O338  1  0.99601333  0.99955953  0.88486557  1
  O  O339  1  0.00171934  0.01003565  0.11240575  1
  O  O340  1  0.00763990  0.00887325  0.62108615  1
  O  O341  1  0.00038305  0.51659283  0.13562723  1
  O  O342  1  0.00086907  0.47326450  0.60333042  1
  O  O343  1  0.50714802  0.00086316  0.12037221  1
  O  O344  1  0.50294104  -0.00124302  0.63454101  1
  O  O345  1  0.51080019  0.50373106  0.12342732  1
  O  O346  1  0.50963984  0.50576844  0.63002436  1
  O  O347  1  0.25829301  0.38194366  0.24067460  1
  O  O348  1  0.24031487  0.38182730  0.74328034  1
  O  O349  1  0.24080798  0.88231999  0.25358145  1
  O  O350  1  0.25073468  0.88507362  0.73450512  1
  O  O351  1  0.73681040  0.37904225  0.25330759  1
  O  O352  1  0.73807827  0.36558310  0.73939063  1
  O  O353  1  0.74229710  0.87567898  0.23459393  1
  O  O354  1  0.74622374  0.88074551  0.74522485  1
  O  O355  1  0.24987772  0.11854830  0.26085678  1
  O  O356  1  0.24844000  0.12225274  0.75996537  1
  O  O357  1  0.25873470  0.61567845  0.25129212  1
  O  O358  1  0.26543689  0.61775268  0.74454296  1
  O  O359  1  0.75450043  0.12922275  0.26570385  1
  O  O360  1  0.75014205  0.11792823  0.75331632  1
  O  O361  1  0.74900763  0.60825757  0.24987372  1
  O  O362  1  0.76058838  0.62990313  0.76402508  1
  O  O363  1  0.36677251  0.11962792  0.37450086  1
  O  O364  1  0.36852260  0.11338127  0.88029903  1
  O  O365  1  0.37730299  0.61689246  0.36955687  1
  O  O366  1  0.38847842  0.61811949  0.86305301  1
  O  O367  1  0.86672601  0.12311590  0.36854128  1
  O  O368  1  0.87496898  0.11442448  0.87394346  1
  O  O369  1  0.88283164  0.60340231  0.36960380  1
  O  O370  1  0.85882132  0.61089822  0.88973851  1
  O  O371  1  0.13945850  0.36884149  0.12115380  1
  O  O372  1  0.13427188  0.37453041  0.63496183  1
  O  O373  1  0.13416314  0.87086863  0.12267006  1
  O  O374  1  0.13159660  0.89233670  0.61728824  1
  O  O375  1  0.61828450  0.38339409  0.13628839  1
  O  O376  1  0.62660495  0.39082493  0.62428892  1
  O  O377  1  0.63041287  0.88532461  0.11680133  1
  O  O378  1  0.63370985  0.87762856  0.63380112  1
  O  O379  1  0.11381883  0.24226620  0.25842319  1
  O  O380  1  0.11998344  0.25782554  0.75276598  1
  O  O381  1  0.11638077  0.75454846  0.25318510  1
  O  O382  1  0.10060882  0.70529032  0.77279179  1
  O  O383  1  0.62030296  0.25547147  0.25551062  1
  O  O384  1  0.61558729  0.24640414  0.76472420  1
  O  O385  1  0.61126324  0.74007114  0.25645518  1
  O  O386  1  0.61763994  0.75946386  0.75103338  1
  O  O387  1  0.38417506  0.24886076  0.24462089  1
  O  O388  1  0.38855026  0.25666702  0.75487466  1
  O  O389  1  0.38326931  0.74603468  0.24061095  1
  O  O390  1  0.38084843  0.74287689  0.74386956  1
  O  O391  1  0.87828166  0.24223927  0.24441577  1
  O  O392  1  0.88517964  0.25181120  0.75020762  1
  O  O393  1  0.88796406  0.74525512  0.24742106  1
  O  O394  1  0.89833342  0.73484638  0.78246241  1
  O  O395  1  0.37165977  0.49012480  0.49064479  1
  O  O396  1  0.38999126  0.48898269  1.00300713  1
  O  O397  1  0.36801349  0.99623044  0.48464109  1
  O  O398  1  0.38205725  0.99670369  0.99368166  1
  O  O399  1  0.88754619  0.49712603  0.48979759  1
  O  O400  1  0.87060631  0.48836775  0.99728897  1
  O  O401  1  0.89251717  1.00912627  0.50427714  1
  O  O402  1  0.88126550  1.00293519  0.99564789  1
  O  O403  1  0.11737963  0.01272405  0.00376249  1
  O  O404  1  0.11646803  0.01012337  0.50632758  1
  O  O405  1  0.11754055  0.48042760  0.00663869  1
  O  O406  1  0.11598204  0.50611043  0.49226058  1
  O  O407  1  0.62097668  0.00785572  0.00480809  1
  O  O408  1  0.62631439  0.01930955  0.50212576  1
  O  O409  1  0.62609318  0.50386324  0.00910771  1
  O  O410  1  0.62151451  0.51002998  0.49489076  1
  O  O411  1  0.37538854  0.36266133  0.12239261  1
  O  O412  1  0.37078191  0.37443198  0.61779817  1
  O  O413  1  0.38115724  0.86750218  0.11905931  1
  O  O414  1  0.36478702  0.86388977  0.62197324  1
  O  O415  1  0.87835624  0.36313188  0.11946072  1
  O  O416  1  0.85558996  0.38275643  0.63535020  1
  O  O417  1  0.86667584  0.86166699  0.12828839  1
  O  O418  1  0.86658411  0.87852449  0.63045972  1
  O  O419  1  0.12976312  0.13224874  0.37987937  1
  O  O420  1  0.13520017  0.13543982  0.87950201  1
  O  O421  1  0.13111231  0.61864423  0.38758060  1
  O  O422  1  0.10614680  0.61214170  0.90176118  1
  O  O423  1  0.63199155  0.13192370  0.38420926  1
  O  O424  1  0.62653675  0.13397575  0.88757992  1
  O  O425  1  0.61415567  0.63103832  0.38913819  1
  O  O426  1  0.63598221  0.62648533  0.88251193  1
