# generated using pymatgen
data_V85Zn86O256
_symmetry_space_group_name_H-M   'P 1'
_cell_length_a   16.92690128
_cell_length_b   16.91263356
_cell_length_c   16.92124251
_cell_angle_alpha   89.97732748
_cell_angle_beta   89.96209704
_cell_angle_gamma   89.97672461
_symmetry_Int_Tables_number   1
_chemical_formula_structural   V85Zn86O256
_chemical_formula_sum   'V85 Zn86 O256'
_cell_volume   4844.18572197
_cell_formula_units_Z   1
loop_
 _symmetry_equiv_pos_site_id
 _symmetry_equiv_pos_as_xyz
  1  'x, y, z'
loop_
 _atom_site_type_symbol
 _atom_site_label
 _atom_site_symmetry_multiplicity
 _atom_site_fract_x
 _atom_site_fract_y
 _atom_site_fract_z
 _atom_site_occupancy
  V  V0  1  0.87434671  0.87562415  0.49967881  1
  V  V1  1  0.12374523  0.25324272  0.88247434  1
  V  V2  1  0.24958865  0.86356693  0.62390911  1
  V  V3  1  0.62499638  0.49919715  0.62470739  1
  V  V4  1  0.62640629  0.74950393  0.37037470  1
  V  V5  1  0.37399146  0.63602841  0.74841688  1
  V  V6  1  0.50861137  0.37669571  0.87735411  1
  V  V7  1  0.13275453  0.62207222  0.49665124  1
  V  V8  1  0.00147349  0.00071924  0.50022120  1
  V  V9  1  -0.00006361  0.49828947  0.49940345  1
  V  V10  1  0.74749816  0.50007940  0.75125164  1
  V  V11  1  0.62383792  0.63055191  0.00552151  1
  V  V12  1  0.86056098  0.74604542  0.12504404  1
  V  V13  1  0.00021989  0.87236698  0.37382716  1
  V  V14  1  0.23763642  0.63785344  0.88770870  1
  V  V15  1  0.74899479  0.36898551  0.62295379  1
  V  V16  1  0.74488080  0.13219931  0.87574431  1
  V  V17  1  0.49624062  0.13737028  0.62497677  1
  V  V18  1  0.24629989  0.49995837  0.24977287  1
  V  V19  1  0.13296294  0.74549117  0.37428257  1
  V  V20  1  0.75009334  -0.00309934  0.24457559  1
  V  V21  1  0.37431364  0.25254925  0.12387638  1
  V  V22  1  0.62693826  0.62352577  0.49856861  1
  V  V23  1  0.87310465  0.62506456  0.75127767  1
  V  V24  1  0.50054174  0.87570041  0.36918715  1
  V  V25  1  0.86104364  0.87574336  0.00434701  1
  V  V26  1  0.00612900  0.12439433  0.12714559  1
  V  V27  1  0.25298316  0.36746628  0.62655715  1
  V  V28  1  0.00629485  0.50614302  -0.00865471  1
  V  V29  1  0.61960856  0.49660545  0.13250403  1
  V  V30  1  0.37224540  0.12549416  0.25410945  1
  V  V31  1  0.49988795  0.50008738  0.49933156  1
  V  V32  1  0.37002523  0.50480842  0.37602394  1
  V  V33  1  0.87966192  0.13090888  0.24901795  1
  V  V34  1  -0.00041369  0.36948929  0.36623523  1
  V  V35  1  0.87755055  0.25385945  0.12571417  1
  V  V36  1  0.61906958  0.76103634  0.87065178  1
  V  V37  1  0.37238642  0.12639068  0.75587150  1
  V  V38  1  0.50017653  0.74643773  0.24107717  1
  V  V39  1  0.87436622  0.00144090  0.37439591  1
  V  V40  1  0.50264885  0.12262434  0.12568404  1
  V  V41  1  0.74692447  0.62988233  0.88110689  1
  V  V42  1  0.37828635  0.37040046  0.50218420  1
  V  V43  1  0.12588407  0.24709468  0.36982431  1
  V  V44  1  0.87803339  0.37778395  -0.00786123  1
  V  V45  1  0.37315099  0.50125367  0.87716600  1
  V  V46  1  0.24847007  -0.00039306  0.76206074  1
  V  V47  1  0.25583395  0.24448809  0.49657462  1
  V  V48  1  0.75070112  0.12957381  0.37867059  1
  V  V49  1  0.12209330  0.86992143  0.75480216  1
  V  V50  1  0.87186894  0.37197958  0.49766267  1
  V  V51  1  0.12581839  0.49700909  0.62397006  1
  V  V52  1  0.49569504  0.63196468  0.62663737  1
  V  V53  1  0.37325832  0.75103456  0.11911225  1
  V  V54  1  0.00255177  -0.00205518  0.00630674  1
  V  V55  1  0.57730473  -0.05824161  0.68250535  1
  V  V56  1  0.12732902  -0.00081268  0.62550669  1
  V  V57  1  0.87435356  0.24678772  0.62110696  1
  V  V58  1  0.87527948  0.75086019  0.62714750  1
  V  V59  1  0.38226117  0.87583162  -0.01504630  1
  V  V60  1  0.13075451  0.12410245  0.49622627  1
  V  V61  1  0.49778661  0.25464235  0.75369756  1
  V  V62  1  0.12632229  0.87794706  0.24996282  1
  V  V63  1  0.00149750  0.25902887  0.75369947  1
  V  V64  1  0.76121699  -0.00626277  0.75085221  1
  V  V65  1  0.50568803  0.25759099  0.24986942  1
  V  V66  1  0.50239199  -0.00010319  0.49879993  1
  V  V67  1  0.50057820  0.00045817  -0.01460515  1
  V  V68  1  0.36813854  0.00141212  0.37523360  1
  V  V69  1  -0.00826340  0.88403995  0.87683994  1
  V  V70  1  0.62645949  -0.00714076  0.12250267  1
  V  V71  1  0.25044607  0.50042896  0.75193072  1
  V  V72  1  0.37453830  0.86593096  0.50019271  1
  V  V73  1  0.62927290  0.12357845  0.50542443  1
  V  V74  1  0.75209693  0.75000339  0.49884553  1
  V  V75  1  0.75992825  0.62556315  0.36782724  1
  V  V76  1  0.75472729  0.49472606  0.24819034  1
  V  V77  1  0.00747258  0.62607208  0.12882907  1
  V  V78  1  0.37107820  0.62725832  0.24887358  1
  V  V79  1  0.62763902  0.25349067  0.37490788  1
  V  V80  1  0.00014145  0.74647806  0.76293876  1
  V  V81  1  0.49822462  0.50745116  0.00614990  1
  V  V82  1  0.24931247  -0.00295477  0.23823619  1
  V  V83  1  0.23263772  0.86301960  0.09921889  1
  V  V84  1  0.87881832  0.12547642  0.75836371  1
  Zn  Zn85  1  0.87899227  0.50297968  0.36953107  1
  Zn  Zn86  1  0.62312027  0.13369567  -0.00259017  1
  Zn  Zn87  1  0.12865501  0.49976447  0.11832007  1
  Zn  Zn88  1  0.25124375  0.24765840  0.00101262  1
  Zn  Zn89  1  0.87567043  0.49980125  0.87382858  1
  Zn  Zn90  1  0.74396640  0.25901013  -0.00435741  1
  Zn  Zn91  1  0.12957177  0.11662577  0.00243214  1
  Zn  Zn92  1  0.74533910  0.37088613  0.12673919  1
  Zn  Zn93  1  0.24407323  0.37371792  0.12247051  1
  Zn  Zn94  1  0.25111561  0.12209586  0.88247924  1
  Zn  Zn95  1  -0.00335354  0.74450192  0.24972777  1
  Zn  Zn96  1  0.00086545  0.62500164  0.62570718  1
  Zn  Zn97  1  0.74770388  0.87895663  0.62603104  1
  Zn  Zn98  1  0.00188001  0.12597545  0.62714443  1
  Zn  Zn99  1  0.12318067  0.37537591  0.75334022  1
  Zn  Zn100  1  0.50563595  0.37808599  0.37295560  1
  Zn  Zn101  1  0.62855240  0.36583248  0.75409742  1
  Zn  Zn102  1  0.12459184  0.37076808  0.24694402  1
  Zn  Zn103  1  0.25664408  0.74070057  0.49953913  1
  Zn  Zn104  1  0.50095183  0.76451105  0.74929550  1
  Zn  Zn105  1  0.62999828  0.87170127  0.24372408  1
  Zn  Zn106  1  0.37313660  0.37482569  0.00041316  1
  Zn  Zn107  1  0.19118149  0.18458873  0.18730553  1
  Zn  Zn108  1  0.18717151  0.18746921  0.68790348  1
  Zn  Zn109  1  0.18673486  0.68709666  0.18750388  1
  Zn  Zn110  1  0.18421324  0.68355108  0.68984800  1
  Zn  Zn111  1  0.68955828  0.18609554  0.18529852  1
  Zn  Zn112  1  0.68512868  0.18494620  0.68911904  1
  Zn  Zn113  1  0.68576992  0.67967478  0.18733395  1
  Zn  Zn114  1  0.68567578  0.69006449  0.68953029  1
  Zn  Zn115  1  0.31341185  0.31523194  0.31457772  1
  Zn  Zn116  1  0.31429105  0.31015080  0.81453591  1
  Zn  Zn117  1  0.31141135  0.81347936  0.30998264  1
  Zn  Zn118  1  0.31115217  0.81215666  0.81311058  1
  Zn  Zn119  1  0.81130576  0.31240386  0.31010550  1
  Zn  Zn120  1  0.81485275  0.31223803  0.81066437  1
  Zn  Zn121  1  0.81480864  0.81157520  0.30635711  1
  Zn  Zn122  1  0.81054006  0.81092231  0.81971591  1
  Zn  Zn123  1  0.18933856  0.43332227  0.43485054  1
  Zn  Zn124  1  0.18954617  0.43223007  0.93766316  1
  Zn  Zn125  1  0.19004670  0.93548903  0.43543756  1
  Zn  Zn126  1  0.17882873  0.92017487  0.94248548  1
  Zn  Zn127  1  0.69074066  0.43757104  0.43556539  1
  Zn  Zn128  1  0.68851777  0.44230961  0.94238502  1
  Zn  Zn129  1  0.68725795  0.93891930  0.43526450  1
  Zn  Zn130  1  0.68825483  0.94625730  0.93301153  1
  Zn  Zn131  1  0.31457251  0.05857927  0.06113494  1
  Zn  Zn132  1  0.31353573  0.05926010  0.56659575  1
  Zn  Zn133  1  0.31105577  0.56644680  0.06433262  1
  Zn  Zn134  1  0.31357239  0.55930264  0.56573479  1
  Zn  Zn135  1  0.81731550  0.06019194  0.06076987  1
  Zn  Zn136  1  0.81008542  0.06152483  0.56723584  1
  Zn  Zn137  1  0.81339839  0.56430075  0.06465411  1
  Zn  Zn138  1  0.81370322  0.56145416  0.56204338  1
  Zn  Zn139  1  0.43667648  0.43870299  0.18827247  1
  Zn  Zn140  1  0.43605273  0.43965723  0.68753384  1
  Zn  Zn141  1  0.43492534  0.93397092  0.18156065  1
  Zn  Zn142  1  0.41606228  0.94358613  0.68520872  1
  Zn  Zn143  1  0.93684521  0.44106836  0.18231698  1
  Zn  Zn144  1  0.93488881  0.43740618  0.68624796  1
  Zn  Zn145  1  0.93519207  0.93572145  0.18499961  1
  Zn  Zn146  1  0.93811773  0.93678268  0.68676683  1
  Zn  Zn147  1  0.06378800  0.06309243  0.31224880  1
  Zn  Zn148  1  0.06298276  0.06541097  0.81633182  1
  Zn  Zn149  1  0.06037816  0.56290544  0.31250461  1
  Zn  Zn150  1  0.06480054  0.56279344  0.81417404  1
  Zn  Zn151  1  0.56305605  0.06400675  0.31119511  1
  Zn  Zn152  1  0.56439057  0.07257929  0.81201438  1
  Zn  Zn153  1  0.56103730  0.56483379  0.31076372  1
  Zn  Zn154  1  0.56253298  0.56486868  0.81416694  1
  Zn  Zn155  1  0.43973502  0.18673297  0.43603836  1
  Zn  Zn156  1  0.43838074  0.18750666  0.93649264  1
  Zn  Zn157  1  0.43959677  0.68544066  0.43150200  1
  Zn  Zn158  1  0.43777101  0.68884855  0.93364250  1
  Zn  Zn159  1  0.94102911  0.18732503  0.43915827  1
  Zn  Zn160  1  0.93884887  0.18896986  0.93981473  1
  Zn  Zn161  1  0.94242506  0.68667607  0.43907444  1
  Zn  Zn162  1  0.93288574  0.68834852  0.94346120  1
  Zn  Zn163  1  0.05850106  0.31602110  0.06403445  1
  Zn  Zn164  1  0.06269406  0.31099387  0.56168789  1
  Zn  Zn165  1  0.06083131  0.81181166  0.06121913  1
  Zn  Zn166  1  0.06250674  0.80857180  0.56356449  1
  Zn  Zn167  1  0.56234364  0.31515728  0.05944619  1
  Zn  Zn168  1  0.56537412  0.30922000  0.56023038  1
  Zn  Zn169  1  0.56292094  0.81319926  0.05812578  1
  Zn  Zn170  1  0.55903582  0.80621657  0.55448356  1
  O  O171  1  0.10987926  0.13076839  0.12621758  1
  O  O172  1  0.12589026  0.11586182  0.61572004  1
  O  O173  1  0.11273685  0.62203340  0.12422796  1
  O  O174  1  0.12168414  0.61502467  0.61746963  1
  O  O175  1  0.61290912  0.11680438  0.12767069  1
  O  O176  1  0.61458435  0.12755974  0.61611855  1
  O  O177  1  0.62598466  0.61559197  0.11311773  1
  O  O178  1  0.62032820  0.61883277  0.61877813  1
  O  O179  1  0.37932330  0.38243599  0.38702427  1
  O  O180  1  0.38082769  0.39008461  0.87326799  1
  O  O181  1  0.38115188  0.88065541  0.37965971  1
  O  O182  1  0.37884147  0.87183736  0.88567161  1
  O  O183  1  0.88080611  0.37299649  0.38287991  1
  O  O184  1  0.87221981  0.37714999  0.88795777  1
  O  O185  1  0.88244838  0.87841462  0.37982840  1
  O  O186  1  0.88074281  0.86775142  0.89050944  1
  O  O187  1  0.26436771  -0.00748248  0.36662397  1
  O  O188  1  0.23524942  -0.00226174  0.86332010  1
  O  O189  1  0.26313503  0.49474698  0.36956367  1
  O  O190  1  0.25516695  0.50516825  0.86795149  1
  O  O191  1  0.75575467  0.01100919  0.36954032  1
  O  O192  1  0.74790205  0.01265449  0.85835140  1
  O  O193  1  0.75108264  0.50689983  0.36492161  1
  O  O194  1  0.74954424  0.50928467  0.86577508  1
  O  O195  1  0.24974548  0.49881585  0.13485587  1
  O  O196  1  0.24593641  0.48980010  0.63228088  1
  O  O197  1  0.25298787  0.98629663  0.13395310  1
  O  O198  1  0.23972307  0.98885039  0.63103315  1
  O  O199  1  0.74352711  0.50230690  0.13733794  1
  O  O200  1  0.74701230  0.49023690  0.63065729  1
  O  O201  1  0.74018968  1.01109303  0.13327858  1
  O  O202  1  0.74847865  0.99984296  0.64327263  1
  O  O203  1  -0.00053574  0.38324626  0.26349430  1
  O  O204  1  -0.00040435  0.36337483  0.74631626  1
  O  O205  1  0.00573549  0.87881626  0.26296384  1
  O  O206  1  0.00192943  0.86848526  0.75668004  1
  O  O207  1  0.49703084  0.36141872  0.25334075  1
  O  O208  1  0.49949343  0.37093693  0.75656464  1
  O  O209  1  0.50020925  0.86742461  0.25496804  1
  O  O210  1  0.50796257  0.88582213  0.73398113  1
  O  O211  1  0.49106700  0.13009085  0.24392533  1
  O  O212  1  0.49289490  0.13135831  0.74469151  1
  O  O213  1  0.48642553  0.63500968  0.25327084  1
  O  O214  1  0.48975881  0.62037913  0.74166110  1
  O  O215  1  0.98787564  0.11793721  0.24475110  1
  O  O216  1  0.99299670  0.13203434  0.74752639  1
  O  O217  1  0.99846539  0.62307821  0.23429826  1
  O  O218  1  0.99315391  0.63085370  0.74924662  1
  O  O219  1  0.37799502  0.25044829  0.01159455  1
  O  O220  1  0.36884631  0.25718982  0.49550589  1
  O  O221  1  0.38557206  0.76580827  0.00455505  1
  O  O222  1  0.37531668  0.76081436  0.49248234  1
  O  O223  1  0.87324561  0.26335862  0.00445197  1
  O  O224  1  0.87976130  0.25558712  0.51268222  1
  O  O225  1  0.87543308  0.76226808  0.01203194  1
  O  O226  1  0.87179102  0.75387187  0.50754944  1
  O  O227  1  0.13321466  0.24139444  0.49539050  1
  O  O228  1  0.12083108  0.24809373  0.98970025  1
  O  O229  1  0.12454933  0.73888475  0.49414291  1
  O  O230  1  0.16521151  0.82562250  1.02021612  1
  O  O231  1  0.61926509  0.23358790  0.49030899  1
  O  O232  1  0.63199555  0.24578755  1.00834134  1
  O  O233  1  0.63341713  0.74390556  0.49179471  1
  O  O234  1  0.61756938  0.73869896  0.99043128  1
  O  O235  1  0.49659771  0.24267165  0.13302893  1
  O  O236  1  0.49666709  0.24134383  0.62760306  1
  O  O237  1  0.49296299  0.75713206  0.13520657  1
  O  O238  1  0.50612586  0.73619325  0.62880340  1
  O  O239  1  0.98624108  0.24094511  0.11947590  1
  O  O240  1  0.99240272  0.24825726  0.63168543  1
  O  O241  1  1.00027498  0.73672071  0.12170754  1
  O  O242  1  0.98698628  0.74952072  0.63206733  1
  O  O243  1  0.01145940  0.25828776  0.38218435  1
  O  O244  1  0.01122196  0.24558481  0.86682944  1
  O  O245  1  0.00695017  0.75748490  0.37319048  1
  O  O246  1  -0.00589844  0.75631761  0.86625908  1
  O  O247  1  0.50953976  0.24883207  0.36676379  1
  O  O248  1  0.49330898  0.26451928  0.86786810  1
  O  O249  1  0.50606991  0.75538184  0.36401949  1
  O  O250  1  0.51322251  0.74849214  0.86832499  1
  O  O251  1  0.24535395  0.13262913  0.50666365  1
  O  O252  1  0.24739751  0.12633836  1.00107018  1
  O  O253  1  0.23792817  0.62238014  0.50452595  1
  O  O254  1  0.25050296  0.62405104  0.98680241  1
  O  O255  1  0.74196529  0.11891130  0.49235462  1
  O  O256  1  0.75653339  0.12097911  0.98147060  1
  O  O257  1  0.74589406  0.62994107  0.49346718  1
  O  O258  1  0.73908103  0.61755228  0.99091800  1
  O  O259  1  0.25607917  0.36884370  0.00404372  1
  O  O260  1  0.25780854  0.36761319  0.50650616  1
  O  O261  1  0.27917096  0.90440956  0.00237729  1
  O  O262  1  0.25705886  0.87226746  0.50703757  1
  O  O263  1  0.76309392  0.37960829  0.00438318  1
  O  O264  1  0.76362439  0.37940513  0.50699836  1
  O  O265  1  0.76251825  0.88447395  -0.00172305  1
  O  O266  1  0.75628755  0.86884138  0.49961533  1
  O  O267  1  0.13983428  0.50231533  0.25530444  1
  O  O268  1  0.13539521  0.49783519  0.74531530  1
  O  O269  1  0.14046719  0.99280018  0.26366292  1
  O  O270  1  0.12576592  0.99263600  0.74145638  1
  O  O271  1  0.63283009  0.50693203  0.24188307  1
  O  O272  1  0.63538684  0.49986106  0.74365038  1
  O  O273  1  0.63267669  1.00030175  0.24214409  1
  O  O274  1  0.63219292  0.99884765  0.74828393  1
  O  O275  1  0.37007979  0.00386879  0.25476367  1
  O  O276  1  0.36001937  0.00842134  0.75438701  1
  O  O277  1  0.36948504  0.50727674  0.25587116  1
  O  O278  1  0.36488181  0.50728337  0.75553949  1
  O  O279  1  0.86877968  0.00611775  0.25548160  1
  O  O280  1  0.86876218  0.00909630  0.74652957  1
  O  O281  1  0.85992670  0.49934249  0.25044810  1
  O  O282  1  0.86399029  0.50432549  0.75011419  1
  O  O283  1  0.11688245  0.36510302  0.37471658  1
  O  O284  1  0.12676296  0.35908392  0.87078284  1
  O  O285  1  0.11788953  0.86766859  0.37214164  1
  O  O286  1  0.11240424  0.87315054  0.85958649  1
  O  O287  1  0.62626300  0.35815587  0.38371492  1
  O  O288  1  0.61247131  0.38514076  0.87335530  1
  O  O289  1  0.61810391  0.86770000  0.37161739  1
  O  O290  1  0.63138345  0.85920507  0.88251540  1
  O  O291  1  0.38608363  0.13075457  0.13233436  1
  O  O292  1  0.38773811  0.11306507  0.63694882  1
  O  O293  1  0.37168184  0.64183011  0.13050037  1
  O  O294  1  0.38357937  0.62006203  0.63412169  1
  O  O295  1  0.88090925  0.13111108  0.13247231  1
  O  O296  1  0.87503657  0.13334502  0.63345924  1
  O  O297  1  0.88445689  0.64031549  0.11750919  1
  O  O298  1  0.87586693  0.63259386  0.63186331  1
  O  O299  1  0.26174569  0.25047556  0.12652106  1
  O  O300  1  0.24619213  0.26120934  0.61619026  1
  O  O301  1  0.25716890  0.75979418  0.12994160  1
  O  O302  1  0.24337809  0.76001147  0.62266180  1
  O  O303  1  0.76303461  0.24976353  0.12368848  1
  O  O304  1  0.75722193  0.26102521  0.63186998  1
  O  O305  1  0.76121480  0.74477740  0.12870180  1
  O  O306  1  0.76027516  0.75278857  0.62163003  1
  O  O307  1  0.24338253  0.25496731  0.38943737  1
  O  O308  1  0.23735253  0.24652489  0.87475442  1
  O  O309  1  0.23681444  0.75531914  0.37855802  1
  O  O310  1  0.25158467  0.73702192  0.87250528  1
  O  O311  1  0.74478388  0.23737156  0.37043198  1
  O  O312  1  0.75409056  0.23674302  0.87273579  1
  O  O313  1  0.74719073  0.74331656  0.37533768  1
  O  O314  1  0.73802188  0.73671543  0.87001049  1
  O  O315  1  -0.00373390  0.11480929  0.00907219  1
  O  O316  1  0.00975121  0.11736533  0.50447915  1
  O  O317  1  -0.00363710  0.61299117  0.00710349  1
  O  O318  1  0.00828584  0.61376865  0.50262571  1
  O  O319  1  0.50050539  0.11561768  0.00706223  1
  O  O320  1  0.50213651  0.11804213  0.50896463  1
  O  O321  1  0.50634326  0.61421400  -0.00640503  1
  O  O322  1  0.50488973  0.62054304  0.50613895  1
  O  O323  1  0.49386764  0.38080419  0.50016247  1
  O  O324  1  0.49555222  0.38770230  0.99288846  1
  O  O325  1  0.49315658  0.87946610  0.49263711  1
  O  O326  1  0.49384546  0.88985345  1.00228875  1
  O  O327  1  0.99176250  0.38007405  0.49412552  1
  O  O328  1  0.98574678  0.39016385  1.00545764  1
  O  O329  1  0.99725735  0.87924444  0.49083181  1
  O  O330  1  0.99357665  0.87868313  0.99253912  1
  O  O331  1  0.49228471  0.49904586  0.38087025  1
  O  O332  1  0.49153191  0.49676318  0.88055172  1
  O  O333  1  0.49156507  0.99392476  0.37662991  1
  O  O334  1  0.50747855  1.00529517  0.88681766  1
  O  O335  1  0.99889648  0.49245252  0.38498496  1
  O  O336  1  0.99502720  0.50582285  0.88673781  1
  O  O337  1  0.99418173  0.99331286  0.38119296  1
  O  O338  1  0.99775382  0.98869638  0.87791581  1
  O  O339  1  -0.00503802  0.00953451  0.11872539  1
  O  O340  1  0.01262364  -0.00163268  0.61937631  1
  O  O341  1  -0.00098068  0.51291021  0.11544948  1
  O  O342  1  0.00556714  0.49723820  0.61436262  1
  O  O343  1  0.50715370  0.00689702  0.12209843  1
  O  O344  1  0.50987924  0.00077558  0.62521140  1
  O  O345  1  0.50497106  0.49988474  0.11820457  1
  O  O346  1  0.50570264  0.50783828  0.61877847  1
  O  O347  1  0.25012775  0.38521578  0.24825229  1
  O  O348  1  0.25243996  0.38148058  0.74204140  1
  O  O349  1  0.24218365  0.87939208  0.24419215  1
  O  O350  1  0.24168245  0.87866105  0.74422637  1
  O  O351  1  0.74776095  0.38985233  0.25044708  1
  O  O352  1  0.74886774  0.38179888  0.74320005  1
  O  O353  1  0.74884235  0.89213320  0.25678964  1
  O  O354  1  0.75829057  0.88955887  0.75113097  1
  O  O355  1  0.26444274  0.11404001  0.24368163  1
  O  O356  1  0.25559535  0.11587011  0.74770697  1
  O  O357  1  0.26259910  0.61925433  0.24705834  1
  O  O358  1  0.25710997  0.61772398  0.75226005  1
  O  O359  1  0.75993030  0.11663051  0.25768975  1
  O  O360  1  0.75724007  0.12023697  0.75668386  1
  O  O361  1  0.74761890  0.61421770  0.25995174  1
  O  O362  1  0.75383867  0.61758834  0.75444104  1
  O  O363  1  0.38101788  0.11460354  0.36601621  1
  O  O364  1  0.37156634  0.12843846  0.86167800  1
  O  O365  1  0.37562676  0.61577861  0.36654755  1
  O  O366  1  0.36919064  0.61638202  0.86688005  1
  O  O367  1  0.87042400  0.12332589  0.37011444  1
  O  O368  1  0.86927340  0.13011023  0.86278857  1
  O  O369  1  0.86419356  0.62398655  0.38145761  1
  O  O370  1  0.86476497  0.62613088  0.86962226  1
  O  O371  1  0.12372872  0.38010203  0.13112230  1
  O  O372  1  0.13418704  0.38001819  0.62566998  1
  O  O373  1  0.12140419  0.87744878  0.14651392  1
  O  O374  1  0.12844256  0.88024411  0.63126232  1
  O  O375  1  0.62712246  0.39194133  0.12068675  1
  O  O376  1  0.63393913  0.37924597  0.62418451  1
  O  O377  1  0.62268649  0.88817351  0.12426550  1
  O  O378  1  0.62733306  0.87604393  0.62085837  1
  O  O379  1  0.13308365  0.24653233  0.26649941  1
  O  O380  1  0.11656887  0.25004652  0.75589004  1
  O  O381  1  0.12060934  0.75658310  0.25874952  1
  O  O382  1  0.11064065  0.75768731  0.73976107  1
  O  O383  1  0.61657945  0.24074064  0.25949275  1
  O  O384  1  0.60596172  0.24984588  0.74408920  1
  O  O385  1  0.61724758  0.74963039  0.25100051  1
  O  O386  1  0.62129114  0.74880544  0.76365086  1
  O  O387  1  0.38160985  0.24162499  0.24818446  1
  O  O388  1  0.38509347  0.24275798  0.74796154  1
  O  O389  1  0.37998220  0.74520757  0.24454412  1
  O  O390  1  0.38050525  0.74017807  0.75242157  1
  O  O391  1  0.87264282  0.24062307  0.24310711  1
  O  O392  1  0.88257898  0.24504059  0.74185951  1
  O  O393  1  0.88141029  0.75859192  0.23091400  1
  O  O394  1  0.87962995  0.74655311  0.74450476  1
  O  O395  1  0.37967297  0.49546183  0.49275574  1
  O  O396  1  0.38118136  0.50264554  0.99319154  1
  O  O397  1  0.37988196  0.99139082  0.49274547  1
  O  O398  1  0.39544844  0.99519120  1.00382646  1
  O  O399  1  0.88356036  0.49120702  0.49834220  1
  O  O400  1  0.88118841  0.49267225  0.99907149  1
  O  O401  1  0.87967219  0.99596086  0.49548671  1
  O  O402  1  0.88508593  0.98414638  1.00549026  1
  O  O403  1  0.10768933  -0.00178408  -0.00413961  1
  O  O404  1  0.12494525  0.00514829  0.50463189  1
  O  O405  1  0.10889083  0.49347630  -0.00274137  1
  O  O406  1  0.11958958  0.50265013  0.50166877  1
  O  O407  1  0.61705507  0.00676719  0.00579154  1
  O  O408  1  0.61637104  0.01188367  0.49225366  1
  O  O409  1  0.61626434  0.50884834  0.00745974  1
  O  O410  1  0.62073450  0.50422687  0.50350234  1
  O  O411  1  0.37836369  0.36070063  0.12695649  1
  O  O412  1  0.36768880  0.38243121  0.61113268  1
  O  O413  1  0.36607774  0.86420328  0.11698905  1
  O  O414  1  0.36314057  0.87611717  0.61296210  1
  O  O415  1  0.87272926  0.36856638  0.11829099  1
  O  O416  1  0.86862732  0.36777007  0.61809025  1
  O  O417  1  0.87901986  0.86325443  0.11335014  1
  O  O418  1  0.87369285  0.86831343  0.61737495  1
  O  O419  1  0.12205725  0.12981127  0.38852436  1
  O  O420  1  0.12792544  0.13676609  0.87781358  1
  O  O421  1  0.11875034  0.63350814  0.38381621  1
  O  O422  1  0.13861115  0.62652825  0.87122833  1
  O  O423  1  0.63330270  0.13045518  0.38035414  1
  O  O424  1  0.64082179  0.12797132  0.87506653  1
  O  O425  1  0.63326080  0.63083090  0.38031376  1
  O  O426  1  0.63002008  0.62975385  0.88344948  1
