# generated using pymatgen
data_V85Zn86O256
_symmetry_space_group_name_H-M   'P 1'
_cell_length_a   16.94510133
_cell_length_b   16.95753490
_cell_length_c   16.95341937
_cell_angle_alpha   89.87788773
_cell_angle_beta   90.02400317
_cell_angle_gamma   89.92268015
_symmetry_Int_Tables_number   1
_chemical_formula_structural   V85Zn86O256
_chemical_formula_sum   'V85 Zn86 O256'
_cell_volume   4871.50076017
_cell_formula_units_Z   1
loop_
 _symmetry_equiv_pos_site_id
 _symmetry_equiv_pos_as_xyz
  1  'x, y, z'
loop_
 _atom_site_type_symbol
 _atom_site_label
 _atom_site_symmetry_multiplicity
 _atom_site_fract_x
 _atom_site_fract_y
 _atom_site_fract_z
 _atom_site_occupancy
  V  V0  1  0.00697859  0.87525562  0.38604904  1
  V  V1  1  0.74037685  0.49770506  0.25063644  1
  V  V2  1  0.37884157  0.00206423  0.87931302  1
  V  V3  1  0.62538938  0.37219238  0.75655192  1
  V  V4  1  0.75466579  0.87830835  0.12554565  1
  V  V5  1  0.75115475  0.75414195  -0.00156988  1
  V  V6  1  -0.00423037  0.50256674  0.00012632  1
  V  V7  1  0.49198914  -0.00173192  0.49180299  1
  V  V8  1  0.00636609  0.37934145  0.86935276  1
  V  V9  1  0.62219012  0.50002803  0.62548809  1
  V  V10  1  0.74384719  0.63322145  0.37378729  1
  V  V11  1  0.12497128  0.24943125  0.87778860  1
  V  V12  1  0.74464569  0.37398761  0.12528145  1
  V  V13  1  0.25014857  0.62747382  0.87433561  1
  V  V14  1  0.87337949  0.49615446  0.37383676  1
  V  V15  1  0.12500436  0.88158984  0.74340625  1
  V  V16  1  0.24699361  0.37067893  0.12559626  1
  V  V17  1  0.03044842  0.91537249  0.89826846  1
  V  V18  1  0.49684367  0.11976466  0.11884368  1
  V  V19  1  0.37872136  0.50205667  0.87518558  1
  V  V20  1  0.62404113  0.87695392  0.74852968  1
  V  V21  1  0.87193426  0.37949415  -0.00095148  1
  V  V22  1  0.87513102  0.62482330  0.24911265  1
  V  V23  1  0.74694113  0.37530998  0.62418533  1
  V  V24  1  0.86790908  0.00346883  0.87488211  1
  V  V25  1  0.87485897  0.36950856  0.49955155  1
  V  V26  1  0.37450331  0.13027660  0.74734584  1
  V  V27  1  0.11748674  0.74654798  0.87468226  1
  V  V28  1  0.62312607  0.75246160  0.87406788  1
  V  V29  1  0.37367136  0.49538952  0.37801464  1
  V  V30  1  0.27060115  0.00523661  0.24533195  1
  V  V31  1  0.44202511  0.19036613  0.29590922  1
  V  V32  1  0.11689883  0.49448069  0.62838419  1
  V  V33  1  0.62495412  0.00069061  0.11937241  1
  V  V34  1  0.87623755  0.24925160  0.12164400  1
  V  V35  1  0.62544897  0.13247502  -0.00678187  1
  V  V36  1  0.24538652  0.23877554  0.00155961  1
  V  V37  1  0.24838148  0.00242672  0.74289176  1
  V  V38  1  0.13086619  0.75046808  0.37101381  1
  V  V39  1  0.49512982  0.75345672  0.74990138  1
  V  V40  1  0.88119654  -0.00223052  0.38206707  1
  V  V41  1  0.50086232  0.50642726  0.01805140  1
  V  V42  1  0.49662549  0.37180211  0.37783095  1
  V  V43  1  0.62762684  0.24122664  0.37029707  1
  V  V44  1  0.49789819  0.87543396  0.88169475  1
  V  V45  1  0.50068380  0.25129523  0.75466209  1
  V  V46  1  0.37129566  0.63258287  0.74731581  1
  V  V47  1  0.49051921  0.63537528  0.61829421  1
  V  V48  1  0.88099874  0.12313103  0.24761771  1
  V  V49  1  0.25242743  0.62548797  0.37399026  1
  V  V50  1  0.37842802  0.24479032  0.12442959  1
  V  V51  1  0.00918416  0.11473371  0.10725658  1
  V  V52  1  0.50319419  0.12851779  0.62440554  1
  V  V53  1  0.13378994  0.88822432  0.23759684  1
  V  V54  1  0.75302555  0.12234795  0.37944383  1
  V  V55  1  0.62584916  0.00271717  0.61234524  1
  V  V56  1  0.62384717  0.63506400  0.49771352  1
  V  V57  1  0.49220024  0.74141767  0.24612394  1
  V  V58  1  -0.00085372  0.75378155  0.73700250  1
  V  V59  1  0.49585921  0.49547206  0.50097699  1
  V  V60  1  0.87953321  0.63277694  0.73302061  1
  V  V61  1  0.87990453  0.88009407  -0.00371067  1
  V  V62  1  0.63109858  0.86296424  0.25723913  1
  V  V63  1  0.13262927  0.12007498  0.50275839  1
  V  V64  1  0.75382392  -0.00336087  0.25069178  1
  V  V65  1  0.00173372  0.75284205  0.24899483  1
  V  V66  1  0.00636498  0.12484947  0.62828867  1
  V  V67  1  0.87564377  0.50567885  0.87291037  1
  V  V68  1  0.00522906  0.25591567  0.74678341  1
  V  V69  1  0.61750143  0.36964541  0.24747774  1
  V  V70  1  0.12673096  0.24670133  0.37594237  1
  V  V71  1  0.73845689  0.24524585  0.50197441  1
  V  V72  1  0.11942904  0.62038656  0.50075650  1
  V  V73  1  0.74851279  0.00464850  0.74573813  1
  V  V74  1  0.24860928  0.49822334  0.24927337  1
  V  V75  1  0.00633587  -0.00314959  0.51079481  1
  V  V76  1  0.24671809  0.49169818  0.74965911  1
  V  V77  1  0.37361482  0.87519075  0.01068262  1
  V  V78  1  0.25378770  0.75172930  0.01146206  1
  V  V79  1  0.25949895  0.37279869  0.61622600  1
  V  V80  1  0.74890669  0.50426148  0.74913425  1
  V  V81  1  0.37381487  0.37333869  -0.00183611  1
  V  V82  1  0.75075793  0.63086066  0.87065602  1
  V  V83  1  0.76412686  0.87081370  0.62068851  1
  V  V84  1  0.12006713  0.49824179  0.12573486  1
  Zn  Zn85  1  0.74370305  0.25751178  -0.01135895  1
  Zn  Zn86  1  0.00245695  0.24868035  0.24895149  1
  Zn  Zn87  1  0.25973870  0.11953370  0.37273166  1
  Zn  Zn88  1  0.50463645  0.37247604  0.87931331  1
  Zn  Zn89  1  0.87691528  0.75392848  0.12699330  1
  Zn  Zn90  1  0.26280290  0.24655990  0.50244236  1
  Zn  Zn91  1  0.61337694  0.62820456  0.00905243  1
  Zn  Zn92  1  0.37946186  0.62108134  0.23771251  1
  Zn  Zn93  1  0.37625873  0.85798889  0.50290273  1
  Zn  Zn94  1  -0.00030850  0.37129278  0.37466718  1
  Zn  Zn95  1  0.87499244  0.24871333  0.62562097  1
  Zn  Zn96  1  0.74499325  0.13967109  0.86657298  1
  Zn  Zn97  1  0.11941478  0.37217759  0.25227405  1
  Zn  Zn98  1  0.87625556  0.12929886  0.75068196  1
  Zn  Zn99  1  -0.00480040  0.49926854  0.50318262  1
  Zn  Zn100  1  0.76509281  0.74737756  0.51013012  1
  Zn  Zn101  1  0.12328407  0.62496023  0.00066247  1
  Zn  Zn102  1  0.24811323  0.12298815  0.87663140  1
  Zn  Zn103  1  0.25911265  0.87172320  0.62354629  1
  Zn  Zn104  1  0.26307873  0.74485826  0.51289412  1
  Zn  Zn105  1  0.50014246  0.86742958  0.37473945  1
  Zn  Zn106  1  -0.00368852  0.62464665  0.12438333  1
  Zn  Zn107  1  0.18775811  0.17736541  0.18992397  1
  Zn  Zn108  1  0.18505998  0.19197394  0.68994858  1
  Zn  Zn109  1  0.18638263  0.68195600  0.18765964  1
  Zn  Zn110  1  0.18198979  0.68275776  0.68707052  1
  Zn  Zn111  1  0.69015871  0.18603620  0.18643770  1
  Zn  Zn112  1  0.68352567  0.18966444  0.68690221  1
  Zn  Zn113  1  0.68689824  0.68679598  0.18103840  1
  Zn  Zn114  1  0.68429665  0.69067208  0.68450741  1
  Zn  Zn115  1  0.30383147  0.31568690  0.31965613  1
  Zn  Zn116  1  0.31250284  0.31211961  0.81196100  1
  Zn  Zn117  1  0.31698182  0.82099842  0.31564070  1
  Zn  Zn118  1  0.30955914  0.81431302  0.81549835  1
  Zn  Zn119  1  0.81175679  0.30965900  0.31061511  1
  Zn  Zn120  1  0.81666273  0.31342791  0.81219309  1
  Zn  Zn121  1  0.83321886  0.79632090  0.34891832  1
  Zn  Zn122  1  0.81671987  0.81886967  0.80896460  1
  Zn  Zn123  1  0.18551662  0.43542825  0.44000874  1
  Zn  Zn124  1  0.18641600  0.43611314  0.93893613  1
  Zn  Zn125  1  0.20016228  0.93677738  0.43271082  1
  Zn  Zn126  1  0.19874547  0.93556954  0.93285069  1
  Zn  Zn127  1  0.68316063  0.43533235  0.43748798  1
  Zn  Zn128  1  0.68541294  0.44309506  0.93847237  1
  Zn  Zn129  1  0.69120554  0.93444325  0.43843724  1
  Zn  Zn130  1  0.68663443  0.94175404  0.93699454  1
  Zn  Zn131  1  0.31026938  0.05592233  0.06785467  1
  Zn  Zn132  1  0.31615758  0.06097134  0.56537076  1
  Zn  Zn133  1  0.30652998  0.55912995  0.05974186  1
  Zn  Zn134  1  0.30965931  0.56252888  0.56110966  1
  Zn  Zn135  1  0.81243038  0.06530253  0.05964264  1
  Zn  Zn136  1  0.81996917  0.06258270  0.56394630  1
  Zn  Zn137  1  0.78280051  0.57571439  0.07569815  1
  Zn  Zn138  1  0.80979733  0.56046494  0.55840723  1
  Zn  Zn139  1  0.43323841  0.43198780  0.19096787  1
  Zn  Zn140  1  0.43856132  0.44455973  0.69359346  1
  Zn  Zn141  1  0.44606756  0.93410297  0.18959377  1
  Zn  Zn142  1  0.43441552  0.93920542  0.68395320  1
  Zn  Zn143  1  0.93553739  0.43368679  0.19006030  1
  Zn  Zn144  1  0.93330910  0.43682881  0.68773718  1
  Zn  Zn145  1  0.94456813  0.93858026  0.18771543  1
  Zn  Zn146  1  0.94193965  0.93728574  0.69515233  1
  Zn  Zn147  1  0.06501031  0.06397019  0.31407881  1
  Zn  Zn148  1  0.06623808  0.06823979  0.82015216  1
  Zn  Zn149  1  0.06010369  0.56058377  0.31345923  1
  Zn  Zn150  1  0.06102065  0.56745781  0.80620900  1
  Zn  Zn151  1  0.57066090  0.05480471  0.31085621  1
  Zn  Zn152  1  0.56060937  0.06009432  0.81130095  1
  Zn  Zn153  1  0.56082022  0.56363729  0.31200098  1
  Zn  Zn154  1  0.56072404  0.56726557  0.81513332  1
  Zn  Zn155  1  0.44035974  0.17961092  0.45879384  1
  Zn  Zn156  1  0.44009854  0.18600370  0.93689714  1
  Zn  Zn157  1  0.43637573  0.69437741  0.42474227  1
  Zn  Zn158  1  0.43282338  0.69010355  1.06991898  1
  Zn  Zn159  1  0.94063347  0.18540853  0.44045381  1
  Zn  Zn160  1  0.93175202  0.19071549  0.93446485  1
  Zn  Zn161  1  0.94065760  0.68533658  0.44029088  1
  Zn  Zn162  1  0.93345407  0.68827527  0.93501605  1
  Zn  Zn163  1  0.05902145  0.31123432  0.06215478  1
  Zn  Zn164  1  0.06732095  0.31311584  0.56000851  1
  Zn  Zn165  1  0.06525353  0.81033697  0.06346791  1
  Zn  Zn166  1  0.09828261  0.80583893  0.56882985  1
  Zn  Zn167  1  0.55778619  0.31137503  0.06465927  1
  Zn  Zn168  1  0.43927435  0.31452720  0.56989368  1
  Zn  Zn169  1  0.56585095  0.81602000  0.06406602  1
  Zn  Zn170  1  0.56516292  0.81604167  0.56448602  1
  O  O171  1  0.10743718  0.13374211  0.12270749  1
  O  O172  1  0.11615455  0.12947550  0.61801155  1
  O  O173  1  0.12019209  0.60976324  0.12306305  1
  O  O174  1  0.13023315  0.60626326  0.61334530  1
  O  O175  1  0.61891657  0.12019546  0.11939416  1
  O  O176  1  0.61328371  0.11496577  0.63347228  1
  O  O177  1  0.67401213  0.61143900  0.10215408  1
  O  O178  1  0.61746690  0.61685493  0.61890728  1
  O  O179  1  0.38092452  0.38687798  0.36902666  1
  O  O180  1  0.37444741  0.38377258  0.88270734  1
  O  O181  1  0.38710686  0.86546063  0.38759130  1
  O  O182  1  0.38176611  0.88102595  0.88010589  1
  O  O183  1  0.87133283  0.37963443  0.38205341  1
  O  O184  1  0.88490659  0.38663818  0.87859711  1
  O  O185  1  0.89390912  0.89236062  0.36374124  1
  O  O186  1  0.87815537  0.88602587  0.88223544  1
  O  O187  1  0.24544593  0.00466276  0.35547963  1
  O  O188  1  0.26461920  0.00262139  0.86422361  1
  O  O189  1  0.25411868  0.50262079  0.36942638  1
  O  O190  1  0.25443811  0.50399238  0.86894781  1
  O  O191  1  0.76169940  0.00253860  0.37334123  1
  O  O192  1  0.75472682  0.00267016  0.86432588  1
  O  O193  1  0.75698282  0.50127735  0.36886206  1
  O  O194  1  0.75393780  0.51258229  0.86979942  1
  O  O195  1  0.23955431  0.49216502  0.13105485  1
  O  O196  1  0.24428099  0.49174015  0.63137003  1
  O  O197  1  0.24845269  1.00117590  0.14399922  1
  O  O198  1  0.25264448  1.00057502  0.63994088  1
  O  O199  1  0.75939718  0.48018351  0.13909004  1
  O  O200  1  0.74061510  0.49836680  0.62977228  1
  O  O201  1  0.74704645  0.99674294  0.13083523  1
  O  O202  1  0.74544193  0.99575041  0.62847631  1
  O  O203  1  0.00093811  0.36767120  0.25517335  1
  O  O204  1  -0.00385973  0.37107378  0.75930856  1
  O  O205  1  0.01065314  0.86829326  0.25695682  1
  O  O206  1  0.00759531  0.86858019  0.76562622  1
  O  O207  1  0.51138426  0.37836746  0.25816110  1
  O  O208  1  0.50683247  0.36952632  0.75034374  1
  O  O209  1  0.51710510  0.86508634  0.24889878  1
  O  O210  1  0.50390207  0.87161907  0.75674856  1
  O  O211  1  0.50274546  0.12606121  0.24279854  1
  O  O212  1  0.49532557  0.13169456  0.74667916  1
  O  O213  1  0.50152237  0.63483637  0.24583803  1
  O  O214  1  0.48972318  0.63106352  0.74309673  1
  O  O215  1  0.98942137  0.12601909  0.24527846  1
  O  O216  1  1.00295075  0.13448256  0.74322681  1
  O  O217  1  0.99096729  0.63168839  0.25067604  1
  O  O218  1  0.99365330  0.64166224  0.74682481  1
  O  O219  1  0.36969042  0.25611232  0.00562090  1
  O  O220  1  0.37586466  0.25658991  0.49912141  1
  O  O221  1  0.36108738  0.75643952  0.00086394  1
  O  O222  1  0.37597759  0.73653773  0.50578393  1
  O  O223  1  0.87104747  0.26120777  0.00653315  1
  O  O224  1  0.86673307  0.25914399  0.49846367  1
  O  O225  1  0.87061475  0.76435995  -0.00177959  1
  O  O226  1  0.86365030  0.76028360  0.45721370  1
  O  O227  1  0.12930239  0.23887808  0.49267358  1
  O  O228  1  0.13634934  0.26116204  0.99331561  1
  O  O229  1  0.12207810  0.73740755  0.47945432  1
  O  O230  1  0.13267189  0.74709650  0.99166544  1
  O  O231  1  0.63771318  0.25055651  0.48644231  1
  O  O232  1  0.62365746  0.23655966  1.00492932  1
  O  O233  1  0.62828045  0.73689854  0.50588989  1
  O  O234  1  0.63550707  0.75010601  0.99284314  1
  O  O235  1  0.48617638  0.24177893  0.12529638  1
  O  O236  1  0.49932967  0.24025509  0.63800393  1
  O  O237  1  0.50847782  0.74855489  0.13564443  1
  O  O238  1  0.50789299  0.73878480  0.63210558  1
  O  O239  1  0.98668831  0.24534188  0.12501078  1
  O  O240  1  1.00299649  0.24582818  0.63172888  1
  O  O241  1  0.99797319  0.74659728  0.13640141  1
  O  O242  1  1.00741177  0.76215139  0.63907507  1
  O  O243  1  0.01320608  0.24800916  0.37557248  1
  O  O244  1  0.00489519  0.26029492  0.87047882  1
  O  O245  1  0.00948958  0.75708917  0.36444128  1
  O  O246  1  0.01344792  0.74276803  0.87137997  1
  O  O247  1  0.50404880  0.24508200  0.36604931  1
  O  O248  1  0.49625158  0.25382058  0.86131942  1
  O  O249  1  0.51009920  0.74670569  0.35328061  1
  O  O250  1  0.50991172  0.76011265  0.86489819  1
  O  O251  1  0.24685044  0.12454646  0.49780711  1
  O  O252  1  0.25494843  0.13620390  0.99894444  1
  O  O253  1  0.23889651  0.62304476  0.48875425  1
  O  O254  1  0.24680280  0.63414916  0.98973116  1
  O  O255  1  0.75995975  0.13344970  0.49186320  1
  O  O256  1  0.73515227  0.13003951  1.00110194  1
  O  O257  1  0.74267403  0.62745782  0.49237648  1
  O  O258  1  0.76991753  0.64431100  0.97959260  1
  O  O259  1  0.26028047  0.37035631  0.00618909  1
  O  O260  1  0.25344231  0.37650832  0.51387431  1
  O  O261  1  0.25777721  0.86039903  -0.00535438  1
  O  O262  1  0.24826844  0.86602820  0.50312751  1
  O  O263  1  0.75162802  0.37902934  0.00883740  1
  O  O264  1  0.75311789  0.36744265  0.50539334  1
  O  O265  1  0.75664809  0.86833006  0.00093256  1
  O  O266  1  0.74695925  0.87304461  0.51713376  1
  O  O267  1  0.12873829  0.49622116  0.24322051  1
  O  O268  1  0.13182031  0.50502842  0.73722693  1
  O  O269  1  0.12082807  0.98808148  0.24911687  1
  O  O270  1  0.13638552  0.99291740  0.76484457  1
  O  O271  1  0.63507312  0.48964804  0.25695264  1
  O  O272  1  0.62959078  0.50196140  0.74408151  1
  O  O273  1  0.63459954  0.99098192  0.23935668  1
  O  O274  1  0.63427501  0.99624060  0.74394060  1
  O  O275  1  0.37002302  -0.00657231  0.24912616  1
  O  O276  1  0.37080555  0.01211081  0.75679269  1
  O  O277  1  0.36425954  0.49874088  0.25608376  1
  O  O278  1  0.36691653  0.50990635  0.75821420  1
  O  O279  1  0.87298860  0.00685251  0.25567749  1
  O  O280  1  0.86048538  0.00153157  0.75315489  1
  O  O281  1  0.86561823  0.50397497  0.25645690  1
  O  O282  1  0.86832016  0.51036922  0.75258988  1
  O  O283  1  0.12487003  0.36022767  0.37779374  1
  O  O284  1  0.11242265  0.37070599  0.87873556  1
  O  O285  1  0.12221094  0.86533286  0.36483648  1
  O  O286  1  0.12634853  0.86036729  0.86631457  1
  O  O287  1  0.61720405  0.36198083  0.37031433  1
  O  O288  1  0.62253451  0.38714188  0.86007981  1
  O  O289  1  0.62753609  0.87864786  0.35924436  1
  O  O290  1  0.61763622  0.87482621  0.86976896  1
  O  O291  1  0.38645725  0.13013265  0.11803216  1
  O  O292  1  0.39061681  0.11846308  0.63505175  1
  O  O293  1  0.36328437  0.62449227  0.12696888  1
  O  O294  1  0.38186207  0.61699762  0.63453947  1
  O  O295  1  0.87833825  0.13215568  0.12988912  1
  O  O296  1  0.89153948  0.12918025  0.62690660  1
  O  O297  1  0.87127360  0.62695387  0.13960174  1
  O  O298  1  0.86865151  0.62401777  0.63381465  1
  O  O299  1  0.25845185  0.25037048  0.12053193  1
  O  O300  1  0.24432886  0.27045770  0.62736926  1
  O  O301  1  0.23967471  0.74621248  0.10918008  1
  O  O302  1  0.20754972  0.76318774  0.61454436  1
  O  O303  1  0.75987463  0.25883596  0.12342223  1
  O  O304  1  0.75009793  0.25494038  0.61689109  1
  O  O305  1  0.75651978  0.76084128  0.11318698  1
  O  O306  1  0.75075059  0.76520997  0.62731517  1
  O  O307  1  0.23995760  0.24324977  0.37930965  1
  O  O308  1  0.24236309  0.25377723  0.88425030  1
  O  O309  1  0.24540777  0.73608640  0.36577299  1
  O  O310  1  0.24016361  0.74128366  0.87853508  1
  O  O311  1  0.74460940  0.24283286  0.37946581  1
  O  O312  1  0.74933665  0.25274813  0.87519664  1
  O  O313  1  0.73696483  0.73278956  0.36340913  1
  O  O314  1  0.74463426  0.75034268  0.87574973  1
  O  O315  1  -0.00645004  0.12925090  0.00872763  1
  O  O316  1  0.00877696  0.11720746  0.50885078  1
  O  O317  1  -0.00220141  0.61391116  0.00083652  1
  O  O318  1  0.01281101  0.61792418  0.49330673  1
  O  O319  1  0.51207258  0.12636245  0.00793070  1
  O  O320  1  0.50865213  0.11004352  0.51185551  1
  O  O321  1  0.49641711  0.61155750  0.00548470  1
  O  O322  1  0.50644238  0.61627100  0.50477533  1
  O  O323  1  0.50007683  0.38871158  0.49657588  1
  O  O324  1  0.48818421  0.38102592  0.99921862  1
  O  O325  1  0.50832602  0.88976412  0.49913461  1
  O  O326  1  0.49433578  0.86807215  0.98688067  1
  O  O327  1  0.98826402  0.37574666  0.49764994  1
  O  O328  1  0.99345945  0.38674840  0.99288652  1
  O  O329  1  1.01830679  0.88087747  0.49015162  1
  O  O330  1  0.99439151  0.86941481  0.99076757  1
  O  O331  1  0.49228908  0.49550067  0.38196207  1
  O  O332  1  0.48542479  0.50119448  0.87631399  1
  O  O333  1  0.51016332  1.00100746  0.39042270  1
  O  O334  1  0.48850208  0.99028172  0.86956105  1
  O  O335  1  0.98349887  0.49680743  0.37469845  1
  O  O336  1  0.99795186  0.49754280  0.87867092  1
  O  O337  1  0.99941526  0.99509794  0.38555296  1
  O  O338  1  0.97661413  1.00188351  0.85480853  1
  O  O339  1  -0.00377838  0.01552769  0.12207699  1
  O  O340  1  -0.00319522  0.00592747  0.61677488  1
  O  O341  1  0.00292481  0.49895330  0.11718089  1
  O  O342  1  0.01327274  0.49330894  0.62579562  1
  O  O343  1  0.51155630  0.01046277  0.12997401  1
  O  O344  1  0.51046109  0.00554686  0.61971686  1
  O  O345  1  0.49553804  0.49419689  0.11617943  1
  O  O346  1  0.50430749  0.50957214  0.61941302  1
  O  O347  1  0.24503173  0.38428322  0.24467366  1
  O  O348  1  0.25466641  0.38796170  0.74359162  1
  O  O349  1  0.23955112  0.88348213  0.25298600  1
  O  O350  1  0.24211449  0.88292486  0.74962122  1
  O  O351  1  0.73990330  0.37824085  0.24639828  1
  O  O352  1  0.74479842  0.38338851  0.74307965  1
  O  O353  1  0.74370714  0.87851691  0.24498181  1
  O  O354  1  0.74452877  0.88343564  0.74097611  1
  O  O355  1  0.25608943  0.11247908  0.25275685  1
  O  O356  1  0.25689587  0.12232666  0.75138473  1
  O  O357  1  0.24608310  0.61032509  0.25703541  1
  O  O358  1  0.25355931  0.61724432  0.75308977  1
  O  O359  1  0.76211502  0.11803438  0.25617922  1
  O  O360  1  0.75136812  0.11798658  0.74727759  1
  O  O361  1  0.75346001  0.61426993  0.25606565  1
  O  O362  1  0.75533476  0.62721990  0.75631563  1
  O  O363  1  0.38762890  0.13566918  0.36150562  1
  O  O364  1  0.37527110  0.11741814  0.86948340  1
  O  O365  1  0.36619378  0.61332716  0.36454249  1
  O  O366  1  0.35960549  0.61629102  0.86644446  1
  O  O367  1  0.87566019  0.11604802  0.36775587  1
  O  O368  1  0.86752755  0.11830024  0.87220356  1
  O  O369  1  0.86519108  0.61456548  0.36520804  1
  O  O370  1  0.86999288  0.62278035  0.86037253  1
  O  O371  1  0.12823170  0.38309145  0.12543609  1
  O  O372  1  0.13680293  0.38903625  0.62005566  1
  O  O373  1  0.12194255  0.87208030  0.14008522  1
  O  O374  1  0.11653065  0.89157730  0.64355054  1
  O  O375  1  0.63169378  0.36682533  0.13443118  1
  O  O376  1  0.62917623  0.39236102  0.63769354  1
  O  O377  1  0.63462089  0.88418093  0.12928765  1
  O  O378  1  0.63151751  0.88562575  0.63292323  1
  O  O379  1  0.12606805  0.24789996  0.26343478  1
  O  O380  1  0.11386034  0.25405894  0.75955079  1
  O  O381  1  0.12020037  0.75170580  0.25602978  1
  O  O382  1  0.11469172  0.75544351  0.75634616  1
  O  O383  1  0.63169707  0.25781225  0.25793913  1
  O  O384  1  0.61607293  0.26299274  0.74543915  1
  O  O385  1  0.62629778  0.76132632  0.24107520  1
  O  O386  1  0.61919640  0.75763046  0.75479367  1
  O  O387  1  0.37530767  0.25257128  0.24484476  1
  O  O388  1  0.37940898  0.23764870  0.75377418  1
  O  O389  1  0.39007366  0.75009162  0.24769128  1
  O  O390  1  0.37525417  0.73827465  0.75582705  1
  O  O391  1  0.87424519  0.24000274  0.24155295  1
  O  O392  1  0.89060582  0.25072896  0.74710018  1
  O  O393  1  0.88415646  0.74206802  0.25443971  1
  O  O394  1  0.89081331  0.74811983  0.75343587  1
  O  O395  1  0.38321481  0.50747965  0.48949621  1
  O  O396  1  0.38066349  0.49256959  0.99374114  1
  O  O397  1  0.39157512  1.00307474  0.49904985  1
  O  O398  1  0.36626631  0.99014974  0.98939757  1
  O  O399  1  0.87194700  0.48850893  0.49200169  1
  O  O400  1  0.88014609  0.49812644  0.99365494  1
  O  O401  1  0.88989366  1.00278995  0.49147771  1
  O  O402  1  0.86655439  0.98958281  0.98970365  1
  O  O403  1  0.09724584  -0.01389021  -0.06116371  1
  O  O404  1  0.11994956  0.01300099  0.49371957  1
  O  O405  1  0.11544443  0.50037922  0.00737155  1
  O  O406  1  0.12107975  0.50330887  0.50792759  1
  O  O407  1  0.63132463  0.00920834  0.01347856  1
  O  O408  1  0.62543553  -0.00077061  0.51026394  1
  O  O409  1  0.60151609  0.49863392  -0.00601330  1
  O  O410  1  0.61774874  0.50440806  0.50916052  1
  O  O411  1  0.36862526  0.36517122  0.11879754  1
  O  O412  1  0.36451518  0.38303166  0.62938001  1
  O  O413  1  0.38612234  0.87910901  0.10907235  1
  O  O414  1  0.37365506  0.87578873  0.61797830  1
  O  O415  1  0.86876946  0.36672212  0.11984433  1
  O  O416  1  0.86574322  0.37404132  0.61616346  1
  O  O417  1  0.87245089  0.87710870  0.11644864  1
  O  O418  1  0.86213687  0.88139545  0.63075109  1
  O  O419  1  0.12606856  0.13419836  0.38339962  1
  O  O420  1  0.12875566  0.14510358  0.87624060  1
  O  O421  1  0.13318972  0.62673021  0.37730345  1
  O  O422  1  0.13484038  0.62779767  0.87397997  1
  O  O423  1  0.63489924  0.13382523  0.36653471  1
  O  O424  1  0.62399315  0.11606832  0.89091880  1
  O  O425  1  0.63352668  0.61054748  0.38781419  1
  O  O426  1  0.63471257  0.63263525  0.87955197  1
