# generated using pymatgen
data_V85Zn86O256
_symmetry_space_group_name_H-M   'P 1'
_cell_length_a   16.91895877
_cell_length_b   16.92031197
_cell_length_c   16.91842423
_cell_angle_alpha   89.97606717
_cell_angle_beta   89.97991067
_cell_angle_gamma   90.07900690
_symmetry_Int_Tables_number   1
_chemical_formula_structural   V85Zn86O256
_chemical_formula_sum   'V85 Zn86 O256'
_cell_volume   4843.30067736
_cell_formula_units_Z   1
loop_
 _symmetry_equiv_pos_site_id
 _symmetry_equiv_pos_as_xyz
  1  'x, y, z'
loop_
 _atom_site_type_symbol
 _atom_site_label
 _atom_site_symmetry_multiplicity
 _atom_site_fract_x
 _atom_site_fract_y
 _atom_site_fract_z
 _atom_site_occupancy
  V  V0  1  0.37262524  0.61847550  0.74964175  1
  V  V1  1  0.00336379  0.62965234  0.12238586  1
  V  V2  1  0.87381041  0.24895954  0.62588323  1
  V  V3  1  0.37593547  0.11293280  0.25323026  1
  V  V4  1  0.11822030  0.74554382  0.36609191  1
  V  V5  1  0.50031521  0.25316233  0.24951858  1
  V  V6  1  0.87365943  0.86413156  0.49870336  1
  V  V7  1  0.25074586  0.10634765  0.37100290  1
  V  V8  1  0.24916551  0.25088656  0.48733102  1
  V  V9  1  0.62548955  0.00347660  0.61573586  1
  V  V10  1  0.62746042  0.00930582  0.12430251  1
  V  V11  1  0.87393361  -0.00496525  0.88301762  1
  V  V12  1  0.12505729  0.37180359  0.75042060  1
  V  V13  1  0.00443765  0.37275677  0.37613285  1
  V  V14  1  0.00471233  0.25066005  0.25240521  1
  V  V15  1  0.49759508  0.75280311  0.75333705  1
  V  V16  1  0.87429051  -0.00187393  0.37646403  1
  V  V17  1  0.87567579  0.74656350  0.64129313  1
  V  V18  1  0.50868811  0.37848027  0.37046713  1
  V  V19  1  -0.00240866  0.62801980  0.63978910  1
  V  V20  1  0.24961218  0.37354715  0.62285646  1
  V  V21  1  0.36884005  0.25040664  0.11726677  1
  V  V22  1  0.62872477  0.61411428  0.00371827  1
  V  V23  1  0.48439911  0.38448573  0.86847775  1
  V  V24  1  0.24520016  0.74872988  0.00106379  1
  V  V25  1  0.24994706  -0.00150666  0.75035761  1
  V  V26  1  0.13160557  0.37350577  0.25266124  1
  V  V27  1  0.74713340  0.62781416  0.38426411  1
  V  V28  1  0.12988689  0.24920644  0.88534367  1
  V  V29  1  0.24770786  0.87513790  0.62572584  1
  V  V30  1  0.38302073  0.74965601  0.12717516  1
  V  V31  1  0.12387572  0.50000052  0.62533507  1
  V  V32  1  0.62824666  0.50424283  0.62251606  1
  V  V33  1  0.75465156  0.75701587  0.00123095  1
  V  V34  1  0.61313540  0.75085711  0.88012227  1
  V  V35  1  0.11953626  0.62543851  0.50079445  1
  V  V36  1  0.87469194  0.37368973  0.49996157  1
  V  V37  1  0.87922132  0.75878471  0.12614278  1
  V  V38  1  0.61865709  0.24999802  0.86507610  1
  V  V39  1  0.11485776  0.87214910  0.75176989  1
  V  V40  1  0.74488598  0.13080902  0.88992409  1
  V  V41  1  0.73907108  0.49050726  0.23719730  1
  V  V42  1  0.74805495  0.87025142  0.61911203  1
  V  V43  1  0.49600008  0.87394862  0.37082597  1
  V  V44  1  0.62405575  0.24701372  0.37910155  1
  V  V45  1  0.38293106  -0.00792162  0.87223552  1
  V  V46  1  0.37427679  0.75264829  0.62223238  1
  V  V47  1  0.62652194  0.74845056  0.39263480  1
  V  V48  1  0.62426780  0.86184731  0.24307371  1
  V  V49  1  0.87129014  0.49861898  0.37197567  1
  V  V50  1  0.24929476  0.62450915  0.37466166  1
  V  V51  1  0.13143595  0.88186396  0.24872074  1
  V  V52  1  0.00420207  -0.00560072  0.00380492  1
  V  V53  1  0.25378683  0.12673129  0.88248728  1
  V  V54  1  0.74995848  0.37538869  0.62687588  1
  V  V55  1  0.50573760  0.50585525  0.49821471  1
  V  V56  1  0.87774767  0.62919394  0.24943831  1
  V  V57  1  0.50589589  0.13140083  0.61848940  1
  V  V58  1  0.87512143  0.12605249  0.25153943  1
  V  V59  1  0.87305018  0.12436187  0.75256917  1
  V  V60  1  0.50582999  0.62792656  0.62187532  1
  V  V61  1  0.38198241  0.63157755  0.25222426  1
  V  V62  1  0.37631309  0.50050476  0.37508559  1
  V  V63  1  0.37741093  0.25135214  0.62512217  1
  V  V64  1  0.50810341  0.61715989  0.12757083  1
  V  V65  1  0.25340868  0.37359589  0.10898014  1
  V  V66  1  0.61827167  0.87689751  0.75391646  1
  V  V67  1  0.38047123  0.12599458  0.74743377  1
  V  V68  1  0.87601691  0.50518114  0.87143358  1
  V  V69  1  0.75350360  0.62891336  0.86722061  1
  V  V70  1  0.11736215  0.74849079  0.87665654  1
  V  V71  1  -0.00336090  0.86915658  0.36838986  1
  V  V72  1  0.38446656  0.86793672  -0.00640634  1
  V  V73  1  0.24754667  0.62073440  0.87741157  1
  V  V74  1  0.69767876  0.30264428  0.05576048  1
  V  V75  1  0.12450038  0.12733762  0.49564757  1
  V  V76  1  -0.00267181  0.37288412  0.87953072  1
  V  V77  1  0.74571392  0.12290144  0.38363792  1
  V  V78  1  0.24706355  0.74957477  0.50031177  1
  V  V79  1  0.74745675  0.00228168  0.75123112  1
  V  V80  1  0.12507374  0.50366185  0.12046231  1
  V  V81  1  0.00195316  0.12351688  0.62660816  1
  V  V82  1  0.87631257  0.25469501  0.11752159  1
  V  V83  1  0.50550397  0.00308411  -0.00285536  1
  V  V84  1  0.49337284  0.00345869  0.49257476  1
  Zn  Zn85  1  0.86890019  0.37720352  0.00172208  1
  Zn  Zn86  1  0.74352442  0.24594419  0.50296985  1
  Zn  Zn87  1  -0.00217459  0.50107863  0.50161789  1
  Zn  Zn88  1  0.25437494  0.49579199  0.75425367  1
  Zn  Zn89  1  -0.00865600  0.86896593  0.87670123  1
  Zn  Zn90  1  0.13007826  0.12542411  0.00606040  1
  Zn  Zn91  1  0.00003314  0.50236415  0.00068931  1
  Zn  Zn92  1  0.36945309  0.88100580  0.49168912  1
  Zn  Zn93  1  0.50062067  0.12632675  0.12198146  1
  Zn  Zn94  1  0.75467031  0.87942926  0.12150739  1
  Zn  Zn95  1  0.13494454  0.00816078  0.13094053  1
  Zn  Zn96  1  0.74936712  -0.00203099  0.24918595  1
  Zn  Zn97  1  0.25178951  0.50018557  0.24821565  1
  Zn  Zn98  1  0.12455442  0.00003638  0.62570578  1
  Zn  Zn99  1  0.37610158  0.37559407  0.49881554  1
  Zn  Zn100  1  0.25789891  0.87884750  0.12887425  1
  Zn  Zn101  1  0.00049450  0.24683184  0.75337659  1
  Zn  Zn102  1  0.75415209  0.50562451  0.74701846  1
  Zn  Zn103  1  0.48448322  0.49429181  -0.00010445  1
  Zn  Zn104  1  0.00399399  0.12518148  0.12359263  1
  Zn  Zn105  1  0.61924371  0.37421014  0.74644283  1
  Zn  Zn106  1  0.00040189  -0.00274547  0.50026950  1
  Zn  Zn107  1  0.18967009  0.18708346  0.19087927  1
  Zn  Zn108  1  0.19060473  0.18807865  0.68817524  1
  Zn  Zn109  1  0.19194182  0.68899187  0.18754120  1
  Zn  Zn110  1  0.18423169  0.68824129  0.69171584  1
  Zn  Zn111  1  0.68676384  0.18690086  0.19774100  1
  Zn  Zn112  1  0.68805339  0.18699985  0.69031985  1
  Zn  Zn113  1  0.69495928  0.68222996  0.18889932  1
  Zn  Zn114  1  0.68668425  0.69179053  0.68627393  1
  Zn  Zn115  1  0.31892703  0.31244195  0.30900214  1
  Zn  Zn116  1  0.31190752  0.30852765  0.80898029  1
  Zn  Zn117  1  0.31092848  0.81056817  0.31255379  1
  Zn  Zn118  1  0.30867648  0.80871850  0.81318058  1
  Zn  Zn119  1  0.81059615  0.31224131  0.30926115  1
  Zn  Zn120  1  0.80961790  0.31202403  0.81389830  1
  Zn  Zn121  1  0.80688555  0.80991666  0.30909979  1
  Zn  Zn122  1  0.80422810  0.81562957  0.81286143  1
  Zn  Zn123  1  0.18698652  0.43896421  0.43795705  1
  Zn  Zn124  1  0.18662716  0.43941808  0.93803187  1
  Zn  Zn125  1  0.18125695  0.93608821  0.43936834  1
  Zn  Zn126  1  0.19130645  0.93452925  0.94009161  1
  Zn  Zn127  1  0.68901546  0.43905699  0.43722335  1
  Zn  Zn128  1  0.68383389  0.43933085  0.92873723  1
  Zn  Zn129  1  0.68565942  0.93532223  0.43534540  1
  Zn  Zn130  1  0.68690020  0.93734957  0.93745217  1
  Zn  Zn131  1  0.31577577  0.05779295  0.06490118  1
  Zn  Zn132  1  0.31265371  0.06288185  0.56105212  1
  Zn  Zn133  1  0.31056817  0.56236244  0.06364721  1
  Zn  Zn134  1  0.31237102  0.56247267  0.56275661  1
  Zn  Zn135  1  0.81689801  0.06371554  0.06531748  1
  Zn  Zn136  1  0.81525208  0.05787754  0.56113587  1
  Zn  Zn137  1  0.81538349  0.56512445  0.05898148  1
  Zn  Zn138  1  0.81595479  0.56482818  0.56167238  1
  Zn  Zn139  1  0.43729824  0.43732737  0.18832895  1
  Zn  Zn140  1  0.44061701  0.43565531  0.68887400  1
  Zn  Zn141  1  0.44371508  0.93486735  0.18403306  1
  Zn  Zn142  1  0.43843389  0.93939040  0.68200542  1
  Zn  Zn143  1  0.93600678  0.43800632  0.18843583  1
  Zn  Zn144  1  0.93909702  0.43853397  0.69167741  1
  Zn  Zn145  1  0.94258385  0.93879544  0.18986835  1
  Zn  Zn146  1  0.93474354  0.93917342  0.68796640  1
  Zn  Zn147  1  0.06105303  0.06167206  0.31664517  1
  Zn  Zn148  1  0.06301943  0.06032393  0.81622304  1
  Zn  Zn149  1  0.05953530  0.55817449  0.30723186  1
  Zn  Zn150  1  0.06582183  0.55984268  0.81533767  1
  Zn  Zn151  1  0.56401407  0.06022737  0.30820469  1
  Zn  Zn152  1  0.56226685  0.06671481  0.81006293  1
  Zn  Zn153  1  0.56683455  0.56711448  0.30995937  1
  Zn  Zn154  1  0.56476000  0.56388333  0.81026677  1
  Zn  Zn155  1  0.43511477  0.18676313  0.43653089  1
  Zn  Zn156  1  0.44147806  0.18629215  0.93555010  1
  Zn  Zn157  1  0.44131647  0.69135086  0.43715620  1
  Zn  Zn158  1  0.42103675  0.65360641  0.95204130  1
  Zn  Zn159  1  0.93649418  0.18943816  0.43805538  1
  Zn  Zn160  1  0.94094405  0.18169686  0.93858019  1
  Zn  Zn161  1  0.93549220  0.68597048  0.44140161  1
  Zn  Zn162  1  0.93671311  0.68615946  0.94225127  1
  Zn  Zn163  1  0.06335156  0.31369043  0.06522240  1
  Zn  Zn164  1  0.06252747  0.30797041  0.56114202  1
  Zn  Zn165  1  0.06005059  0.81324115  0.06295609  1
  Zn  Zn166  1  0.05836327  0.81022775  0.56193456  1
  Zn  Zn167  1  0.53866759  0.31082340  0.05256372  1
  Zn  Zn168  1  0.56233257  0.31685854  0.55834765  1
  Zn  Zn169  1  0.56156623  0.80888541  0.06210214  1
  Zn  Zn170  1  0.55921443  0.81844338  0.56126682  1
  O  O171  1  0.12291375  0.12523257  0.12468427  1
  O  O172  1  0.11756130  0.12482610  0.61988969  1
  O  O173  1  0.11661973  0.61668782  0.13814532  1
  O  O174  1  0.11766897  0.62234582  0.62102541  1
  O  O175  1  0.62295303  0.11310752  0.13291136  1
  O  O176  1  0.61608776  0.11762838  0.62931808  1
  O  O177  1  0.61871573  0.63104859  0.11904127  1
  O  O178  1  0.61352172  0.62275171  0.62694327  1
  O  O179  1  0.38567651  0.38474356  0.37607854  1
  O  O180  1  0.38483409  0.37391163  0.86572857  1
  O  O181  1  0.39083331  0.86618827  0.37334077  1
  O  O182  1  0.37414132  0.88122213  0.87836954  1
  O  O183  1  0.87934123  0.38114742  0.37954395  1
  O  O184  1  0.88261950  0.37857371  0.87737770  1
  O  O185  1  0.87839813  0.87414235  0.37951058  1
  O  O186  1  0.87201806  0.89068660  0.86852150  1
  O  O187  1  0.25257930  0.00793661  0.37938821  1
  O  O188  1  0.26232451  0.00479261  0.86839656  1
  O  O189  1  0.25981040  0.50643975  0.37524377  1
  O  O190  1  0.24253722  0.51587497  0.87341825  1
  O  O191  1  0.75467083  0.00580467  0.37332337  1
  O  O192  1  0.75387085  0.00740760  0.87134025  1
  O  O193  1  0.75570164  0.50669554  0.36959338  1
  O  O194  1  0.75621922  0.51076473  0.87183057  1
  O  O195  1  0.24556191  0.49295858  0.12790621  1
  O  O196  1  0.24231049  0.49159568  0.62406301  1
  O  O197  1  0.24554140  0.98987968  0.11674379  1
  O  O198  1  0.24951692  0.99361844  0.63155296  1
  O  O199  1  0.75746247  0.50612277  0.13869295  1
  O  O200  1  0.74503467  0.49655299  0.62419750  1
  O  O201  1  0.74345954  0.99820063  0.12539868  1
  O  O202  1  0.74238016  0.99485932  0.62944487  1
  O  O203  1  0.00810787  0.36973296  0.25637361  1
  O  O204  1  0.00759314  0.37179738  0.76162114  1
  O  O205  1  0.00839260  0.87413844  0.26311433  1
  O  O206  1  0.01153256  0.88200592  0.75286743  1
  O  O207  1  0.49604983  0.36744991  0.25896414  1
  O  O208  1  0.50255249  0.37392589  0.76057374  1
  O  O209  1  0.51447709  0.87804844  0.25730102  1
  O  O210  1  0.51045508  0.86976958  0.74151970  1
  O  O211  1  0.48827640  0.13105494  0.25115156  1
  O  O212  1  0.48730370  0.11925508  0.73678694  1
  O  O213  1  0.49047075  0.62354870  0.24465255  1
  O  O214  1  0.49274879  0.63262451  0.74201536  1
  O  O215  1  0.99153371  0.13371163  0.25528426  1
  O  O216  1  0.99359262  0.12406664  0.74336019  1
  O  O217  1  0.98538500  0.61928454  0.24289340  1
  O  O218  1  1.00576733  0.62282775  0.73896154  1
  O  O219  1  0.38051850  0.24233980  0.01838653  1
  O  O220  1  0.36716317  0.25053275  0.50860412  1
  O  O221  1  0.37148738  0.75216873  0.00593689  1
  O  O222  1  0.36939079  0.75055023  0.50988616  1
  O  O223  1  0.88107743  0.24919783  0.01413310  1
  O  O224  1  0.87170642  0.25702188  0.50813207  1
  O  O225  1  0.86644465  0.74677242  0.01141940  1
  O  O226  1  0.87491878  0.76087883  0.50816054  1
  O  O227  1  0.13454473  0.23654272  0.50357894  1
  O  O228  1  0.12428997  0.24883630  0.98856161  1
  O  O229  1  0.12763602  0.74326133  0.49180492  1
  O  O230  1  0.13523303  0.76021452  0.99262853  1
  O  O231  1  0.62415666  0.25217865  0.48489370  1
  O  O232  1  0.63104621  0.25262639  0.99321426  1
  O  O233  1  0.62795338  0.75601349  0.49131049  1
  O  O234  1  0.63250501  0.74530401  0.99360690  1
  O  O235  1  0.48850915  0.24659874  0.13289840  1
  O  O236  1  0.49302497  0.24147638  0.61517740  1
  O  O237  1  0.48892477  0.73901025  0.12249216  1
  O  O238  1  0.49355308  0.74488799  0.62668095  1
  O  O239  1  0.99238368  0.24903606  0.13423673  1
  O  O240  1  0.99358393  0.23847565  0.62748952  1
  O  O241  1  0.99231984  0.74305701  0.12377161  1
  O  O242  1  0.98529512  0.74400915  0.62422832  1
  O  O243  1  -0.00613640  0.26389992  0.36763796  1
  O  O244  1  0.00848389  0.25496745  0.87350252  1
  O  O245  1  0.00738017  0.75508688  0.38003332  1
  O  O246  1  0.01179778  0.75097123  0.88335027  1
  O  O247  1  0.50278315  0.25840724  0.37114107  1
  O  O248  1  0.51265698  0.25678511  0.87913022  1
  O  O249  1  0.51601545  0.75789077  0.37982730  1
  O  O250  1  0.51074263  0.74280493  0.87221295  1
  O  O251  1  0.24672269  0.12915128  0.48844227  1
  O  O252  1  0.25318233  0.11972535  0.98501614  1
  O  O253  1  0.24091099  0.62943009  0.49516298  1
  O  O254  1  0.25000569  0.64012816  0.99185276  1
  O  O255  1  0.75561965  0.12574544  0.48815279  1
  O  O256  1  0.75327686  0.12255043  0.98844591  1
  O  O257  1  0.75497710  0.62189123  0.48386911  1
  O  O258  1  0.74433869  0.63492439  0.99246335  1
  O  O259  1  0.25036132  0.37650192  0.00939567  1
  O  O260  1  0.25076875  0.36709714  0.50400761  1
  O  O261  1  0.26535643  0.86320599  -0.00285606  1
  O  O262  1  0.24912921  0.86885230  0.50629057  1
  O  O263  1  0.74976982  0.37207711  -0.00105810  1
  O  O264  1  0.75622764  0.37393306  0.51067291  1
  O  O265  1  0.74678564  0.86156601  0.00140320  1
  O  O266  1  0.75567458  0.87976639  0.51242180  1
  O  O267  1  0.12772679  0.48965738  0.24122528  1
  O  O268  1  0.12670566  0.48613408  0.74426411  1
  O  O269  1  0.12060136  0.98517499  0.25257539  1
  O  O270  1  0.13374986  0.99263297  0.75004723  1
  O  O271  1  0.63947728  0.50457330  0.25001737  1
  O  O272  1  0.62822389  0.50072261  0.73427515  1
  O  O273  1  0.62687358  0.98941081  0.23952368  1
  O  O274  1  0.62622855  0.99379208  0.74127880  1
  O  O275  1  0.38162607  0.01388245  0.24417887  1
  O  O276  1  0.37153094  0.00377221  0.75412804  1
  O  O277  1  0.37552123  0.50756099  0.26265545  1
  O  O278  1  0.37340001  0.51431535  0.74134448  1
  O  O279  1  0.87496143  0.00873540  0.25652286  1
  O  O280  1  0.86823272  0.00755292  0.75619707  1
  O  O281  1  0.87052033  0.50467763  0.26092311  1
  O  O282  1  0.87314495  0.49653250  0.76522015  1
  O  O283  1  0.11604429  0.38102278  0.36695084  1
  O  O284  1  0.12150790  0.36884377  0.86885169  1
  O  O285  1  0.11723508  0.86708800  0.36897535  1
  O  O286  1  0.12524574  0.86776812  0.86684639  1
  O  O287  1  0.61426139  0.37006108  0.37837926  1
  O  O288  1  0.62277623  0.36298993  0.86820378  1
  O  O289  1  0.62180024  0.86397525  0.36659158  1
  O  O290  1  0.62972134  0.86648705  0.86349918  1
  O  O291  1  0.37221414  0.13417110  0.13739769  1
  O  O292  1  0.38184662  0.13118043  0.62810331  1
  O  O293  1  0.38062399  0.63146918  0.13642532  1
  O  O294  1  0.38320979  0.63304386  0.62878254  1
  O  O295  1  0.87886777  0.13467808  0.13588198  1
  O  O296  1  0.88055284  0.12822470  0.63029975  1
  O  O297  1  0.88197256  0.63273188  0.13259175  1
  O  O298  1  0.87988160  0.63847844  0.62447992  1
  O  O299  1  0.26151520  0.25764615  0.13054544  1
  O  O300  1  0.25714068  0.25433199  0.61524381  1
  O  O301  1  0.26063783  0.75329990  0.11752123  1
  O  O302  1  0.25567049  0.75386407  0.62044104  1
  O  O303  1  0.75796285  0.24419712  0.12301747  1
  O  O304  1  0.75398110  0.25701171  0.62333641  1
  O  O305  1  0.75939015  0.75020725  0.11736664  1
  O  O306  1  0.76148506  0.75791014  0.62786375  1
  O  O307  1  0.25695179  0.24737267  0.38557219  1
  O  O308  1  0.24277298  0.23891724  0.86794319  1
  O  O309  1  0.24151774  0.74347069  0.38203555  1
  O  O310  1  0.23983625  0.74435006  0.88177042  1
  O  O311  1  0.74116977  0.24307584  0.37468539  1
  O  O312  1  0.73685742  0.24225289  0.87141039  1
  O  O313  1  0.73661238  0.74333841  0.37298147  1
  O  O314  1  0.74352619  0.74552737  0.88179414  1
  O  O315  1  0.00644891  0.11161139  0.00110579  1
  O  O316  1  0.00829704  0.12599594  0.50545196  1
  O  O317  1  -0.00182130  0.62155559  0.01765270  1
  O  O318  1  0.00606307  0.62307017  0.50923632  1
  O  O319  1  0.49398320  0.10809318  0.00235839  1
  O  O320  1  0.49767375  0.11779027  0.50683736  1
  O  O321  1  0.51740859  0.63073071  0.01160465  1
  O  O322  1  0.49579538  0.61468515  0.50717207  1
  O  O323  1  0.49714834  0.39005185  0.49290057  1
  O  O324  1  0.49676360  0.38130640  0.97842228  1
  O  O325  1  0.49679783  0.88417035  0.49071710  1
  O  O326  1  0.49035113  0.88085093  1.00069115  1
  O  O327  1  0.99500589  0.37497829  0.49296981  1
  O  O328  1  1.00066004  0.37582889  0.98831751  1
  O  O329  1  0.99266940  0.87508379  0.48991397  1
  O  O330  1  1.00126650  0.88923218  0.99664410  1
  O  O331  1  0.49858759  0.49780182  0.37969894  1
  O  O332  1  0.50350950  0.48804057  0.87066673  1
  O  O333  1  0.51092012  0.98932981  0.38351461  1
  O  O334  1  0.49045872  1.00354070  0.87814581  1
  O  O335  1  0.99104697  0.48878270  0.37494532  1
  O  O336  1  0.99526767  0.49258977  0.87770969  1
  O  O337  1  0.99189796  0.98987588  0.37842156  1
  O  O338  1  0.99081876  0.99873332  0.88421962  1
  O  O339  1  0.00488003  0.00119265  0.11480459  1
  O  O340  1  -0.00081017  0.01218194  0.62233959  1
  O  O341  1  0.00733026  0.50615791  0.12627856  1
  O  O342  1  0.00535567  0.50739514  0.62441498  1
  O  O343  1  0.50849873  0.00184943  0.11518962  1
  O  O344  1  0.50706270  0.00842299  0.61560550  1
  O  O345  1  0.49386992  0.51236614  0.12150014  1
  O  O346  1  0.50616926  0.50753472  0.61749028  1
  O  O347  1  0.24022927  0.37483320  0.25001171  1
  O  O348  1  0.24276747  0.37570717  0.74205566  1
  O  O349  1  0.23507427  0.87301590  0.25347752  1
  O  O350  1  0.24387946  0.88041908  0.74366212  1
  O  O351  1  0.75297145  0.39096512  0.25250946  1
  O  O352  1  0.74917303  0.37783443  0.73588387  1
  O  O353  1  0.73599792  0.87761860  0.24712137  1
  O  O354  1  0.73906688  0.88161363  0.73911217  1
  O  O355  1  0.25895584  0.12745301  0.26458403  1
  O  O356  1  0.26148818  0.11653598  0.75256711  1
  O  O357  1  0.26170485  0.62330603  0.25791697  1
  O  O358  1  0.25615292  0.62232926  0.75385105  1
  O  O359  1  0.76294843  0.12485784  0.26145555  1
  O  O360  1  0.75543679  0.11826061  0.75630665  1
  O  O361  1  0.76154851  0.61683629  0.25987643  1
  O  O362  1  0.74546835  0.62854584  0.76324054  1
  O  O363  1  0.36459263  0.12570605  0.36452633  1
  O  O364  1  0.37236448  0.12007943  0.86477667  1
  O  O365  1  0.37325546  0.62183897  0.37054592  1
  O  O366  1  0.35976358  0.64498673  0.85524028  1
  O  O367  1  0.87013800  0.12016161  0.37076248  1
  O  O368  1  0.86728616  0.11853933  0.86968949  1
  O  O369  1  0.87095910  0.61870261  0.36961387  1
  O  O370  1  0.86623052  0.61903210  0.87952171  1
  O  O371  1  0.13433105  0.37928727  0.13267822  1
  O  O372  1  0.12712720  0.37703198  0.63144639  1
  O  O373  1  0.12282511  0.86990325  0.14439620  1
  O  O374  1  0.12914332  0.87431715  0.63213083  1
  O  O375  1  0.63349243  0.35236876  0.11250170  1
  O  O376  1  0.63261878  0.38346601  0.62427666  1
  O  O377  1  0.62405608  0.87777980  0.13456641  1
  O  O378  1  0.63119131  0.88107495  0.63014276  1
  O  O379  1  0.11262024  0.25769285  0.24750878  1
  O  O380  1  0.12477419  0.26015760  0.75500451  1
  O  O381  1  0.12874120  0.75633647  0.26271728  1
  O  O382  1  0.12909617  0.76172212  0.76086359  1
  O  O383  1  0.60898730  0.24516737  0.26094053  1
  O  O384  1  0.62291093  0.25117635  0.76081087  1
  O  O385  1  0.62851295  0.76037343  0.25115883  1
  O  O386  1  0.61818997  0.75780236  0.75647569  1
  O  O387  1  0.38475950  0.24125199  0.24526183  1
  O  O388  1  0.37025163  0.23990602  0.73383979  1
  O  O389  1  0.37177836  0.74222026  0.24206591  1
  O  O390  1  0.37843523  0.74751382  0.73659151  1
  O  O391  1  0.88363469  0.24533497  0.24448775  1
  O  O392  1  0.87552057  0.24135717  0.74425940  1
  O  O393  1  0.86894111  0.73948016  0.24188337  1
  O  O394  1  0.87425959  0.75715462  0.73980459  1
  O  O395  1  0.38193272  0.50199545  0.48841490  1
  O  O396  1  0.38487206  0.54611660  0.98416251  1
  O  O397  1  0.38828598  0.99828270  0.50268185  1
  O  O398  1  0.38295965  0.98891586  0.99012728  1
  O  O399  1  0.87617554  0.49351166  0.48857769  1
  O  O400  1  0.87739859  0.49657884  0.98821044  1
  O  O401  1  0.87657212  0.98515938  0.49444399  1
  O  O402  1  0.88765178  1.00484613  0.99369759  1
  O  O403  1  0.11441114  0.00095068  -0.00374582  1
  O  O404  1  0.12296143  0.01277399  0.50401674  1
  O  O405  1  0.12289129  0.49684231  0.01607483  1
  O  O406  1  0.12226059  0.50796075  0.50704918  1
  O  O407  1  0.61633141  -0.00890267  0.00940526  1
  O  O408  1  0.61808652  -0.00552986  0.51164621  1
  O  O409  1  0.62430345  0.51286583  -0.00409483  1
  O  O410  1  0.61872358  0.49971908  0.51049454  1
  O  O411  1  0.36683726  0.36218256  0.13168842  1
  O  O412  1  0.37086900  0.36763872  0.62221034  1
  O  O413  1  0.37909010  0.86502971  0.11722483  1
  O  O414  1  0.36747671  0.86761467  0.62181582  1
  O  O415  1  0.87866157  0.36053666  0.12397937  1
  O  O416  1  0.87035525  0.37096999  0.62120732  1
  O  O417  1  0.87515197  0.86304274  0.13455682  1
  O  O418  1  0.86934685  0.86699976  0.62046438  1
  O  O419  1  0.13937286  0.12166843  0.38051552  1
  O  O420  1  0.13622424  0.13306531  0.87218681  1
  O  O421  1  0.12553300  0.62889436  0.37781904  1
  O  O422  1  0.13378302  0.63606679  0.86873839  1
  O  O423  1  0.63467761  0.13166430  0.36912786  1
  O  O424  1  0.62978488  0.13757575  0.87145533  1
  O  O425  1  0.63053435  0.64072671  0.37310060  1
  O  O426  1  0.63209152  0.63276335  0.88208338  1
