# generated using pymatgen
data_V85Zn86O256
_symmetry_space_group_name_H-M   'P 1'
_cell_length_a   16.96873377
_cell_length_b   16.95901762
_cell_length_c   16.97389278
_cell_angle_alpha   90.00707435
_cell_angle_beta   90.01325990
_cell_angle_gamma   90.01306758
_symmetry_Int_Tables_number   1
_chemical_formula_structural   V85Zn86O256
_chemical_formula_sum   'V85 Zn86 O256'
_cell_volume   4884.62868751
_cell_formula_units_Z   1
loop_
 _symmetry_equiv_pos_site_id
 _symmetry_equiv_pos_as_xyz
  1  'x, y, z'
loop_
 _atom_site_type_symbol
 _atom_site_label
 _atom_site_symmetry_multiplicity
 _atom_site_fract_x
 _atom_site_fract_y
 _atom_site_fract_z
 _atom_site_occupancy
  V  V0  1  0.11546274  0.00355206  0.12488331  1
  V  V1  1  0.50406586  0.01351055  0.49834338  1
  V  V2  1  0.37432077  0.01044673  0.87206142  1
  V  V3  1  0.12737013  0.25527871  0.87747923  1
  V  V4  1  0.00044887  0.49468580  0.51680709  1
  V  V5  1  -0.05821201  0.67760783  0.58488835  1
  V  V6  1  0.12849541  0.74573325  0.37324944  1
  V  V7  1  0.24877118  0.01177769  0.75541045  1
  V  V8  1  0.62615241  0.87425388  0.24738920  1
  V  V9  1  0.50330136  0.62109168  0.12784032  1
  V  V10  1  0.61662397  0.26043589  0.87111493  1
  V  V11  1  0.62655949  0.12546538  -0.00017814  1
  V  V12  1  0.50329215  0.50544136  0.49705941  1
  V  V13  1  0.37973142  0.87186492  -0.00261440  1
  V  V14  1  0.12685205  0.49463097  0.12384392  1
  V  V15  1  0.35993430  0.50721508  0.87393789  1
  V  V16  1  0.63129093  0.62843782  0.50039008  1
  V  V17  1  0.63049816  0.62720574  0.00069785  1
  V  V18  1  0.75068697  0.62912588  0.87595917  1
  V  V19  1  0.88020042  0.62990649  0.75158292  1
  V  V20  1  0.37489263  0.74719471  0.12528375  1
  V  V21  1  0.24863534  -0.00010624  0.24828965  1
  V  V22  1  0.24564386  0.51031941  0.73767395  1
  V  V23  1  0.87806767  0.49383587  0.87395244  1
  V  V24  1  -0.00922190  0.25702326  0.75954690  1
  V  V25  1  -0.00295200  0.87905727  0.38263054  1
  V  V26  1  0.50168668  0.37620450  0.37540780  1
  V  V27  1  0.25076047  0.87960469  0.62567559  1
  V  V28  1  0.12941021  0.37691721  0.73688716  1
  V  V29  1  0.12540474  0.62115249  0.51458210  1
  V  V30  1  0.87171562  0.11785597  0.25301489  1
  V  V31  1  0.25355536  0.24303136  0.00608076  1
  V  V32  1  -0.00358333  0.12595545  0.62737676  1
  V  V33  1  0.62699772  0.87506894  0.74873541  1
  V  V34  1  0.74833716  0.49670507  0.74789101  1
  V  V35  1  0.63845916  0.49525991  0.12815904  1
  V  V36  1  -0.00062651  0.37848203  0.37480270  1
  V  V37  1  0.11955617  0.87971309  0.75319713  1
  V  V38  1  0.87116453  0.74767579  0.11098833  1
  V  V39  1  0.63720311  0.74798314  0.37696610  1
  V  V40  1  0.87199783  0.37308527  0.49681205  1
  V  V41  1  0.12361783  0.74767369  0.87531192  1
  V  V42  1  0.87819494  0.00577461  0.86991687  1
  V  V43  1  0.24802568  0.62417678  0.37716445  1
  V  V44  1  0.73809514  0.24213734  0.49870613  1
  V  V45  1  -0.02427310  0.72936658  0.25986021  1
  V  V46  1  0.48764090  0.13375446  0.64232372  1
  V  V47  1  0.76270412  0.86914428  0.62090240  1
  V  V48  1  0.12293495  0.24817530  0.37658854  1
  V  V49  1  0.12043470  0.00206976  0.61759484  1
  V  V50  1  0.13075126  0.61995270  -0.00890760  1
  V  V51  1  0.86930637  0.24670866  0.62839941  1
  V  V52  1  0.49141240  0.12753323  0.12499593  1
  V  V53  1  0.24443484  0.49817737  0.25081978  1
  V  V54  1  0.74746019  0.25347628  0.00664684  1
  V  V55  1  0.00167366  0.24354227  0.24756170  1
  V  V56  1  0.50003892  -0.00420151  -0.00516306  1
  V  V57  1  0.62593523  0.00790443  0.62340472  1
  V  V58  1  0.49034274  0.25348409  0.24587558  1
  V  V59  1  0.37069746  0.37439100  0.50966724  1
  V  V60  1  0.62475833  -0.00112114  0.12314572  1
  V  V61  1  0.24985481  0.74360747  -0.00069474  1
  V  V62  1  0.00380804  0.48928510  -0.00581099  1
  V  V63  1  0.37581485  0.62378382  0.25065647  1
  V  V64  1  0.11965607  0.12413039  -0.00339891  1
  V  V65  1  0.50070244  0.87482764  0.37498531  1
  V  V66  1  0.45625735  0.81941175  0.81609041  1
  V  V67  1  0.37816500  0.87447110  0.50251152  1
  V  V68  1  0.12095718  0.86902190  0.24851462  1
  V  V69  1  0.25062955  0.25187942  0.50917233  1
  V  V70  1  0.50079868  0.49475645  -0.00578537  1
  V  V71  1  0.74920030  0.87224152  0.11296646  1
  V  V72  1  0.63721427  0.37349282  0.24780302  1
  V  V73  1  0.75055776  0.12720339  0.86542415  1
  V  V74  1  0.37367598  0.00249083  0.37282926  1
  V  V75  1  0.37410617  0.50030568  0.37594470  1
  V  V76  1  0.25338869  0.75059964  0.50297892  1
  V  V77  1  0.87321239  0.37330260  0.00362870  1
  V  V78  1  0.24823523  0.87197965  0.12404577  1
  V  V79  1  0.87687619  0.24191633  0.12391452  1
  V  V80  1  0.37831179  0.36938922  0.00188422  1
  V  V81  1  -0.00286817  0.62328162  0.12100102  1
  V  V82  1  0.49641520  0.63498538  0.63557543  1
  V  V83  1  0.62771799  0.75217882  0.87238951  1
  V  V84  1  0.50043159  0.74752171  0.25084431  1
  Zn  Zn85  1  0.37019809  0.12994834  0.24481481  1
  Zn  Zn86  1  0.75218621  -0.00273444  0.25232157  1
  Zn  Zn87  1  0.25852211  0.36857431  0.12967778  1
  Zn  Zn88  1  0.74250029  0.37403057  0.62490662  1
  Zn  Zn89  1  0.00056904  0.74728082  0.74820387  1
  Zn  Zn90  1  0.12640649  0.37160388  0.24972650  1
  Zn  Zn91  1  0.12366838  0.12298833  0.49818331  1
  Zn  Zn92  1  0.86381981  -0.02372012  0.40933810  1
  Zn  Zn93  1  0.74156161  0.11215099  0.38101218  1
  Zn  Zn94  1  0.61111348  0.37748522  0.74752861  1
  Zn  Zn95  1  0.24728989  0.12596376  0.37562195  1
  Zn  Zn96  1  0.30674131  0.18787726  0.82053999  1
  Zn  Zn97  1  0.75252060  0.00301319  0.74688551  1
  Zn  Zn98  1  0.82236906  0.55633865  0.29808175  1
  Zn  Zn99  1  0.87448391  0.87589219  -0.00527336  1
  Zn  Zn100  1  0.31014913  0.31813084  0.68441405  1
  Zn  Zn101  1  -0.00660910  0.00123123  0.00612745  1
  Zn  Zn102  1  0.37889498  0.75302159  0.64385535  1
  Zn  Zn103  1  -0.00250238  0.87603904  0.87878175  1
  Zn  Zn104  1  0.76538659  0.74975236  0.50307955  1
  Zn  Zn105  1  0.61892463  0.24031640  0.37756897  1
  Zn  Zn106  1  0.62254099  0.50052671  0.62612954  1
  Zn  Zn107  1  0.18586943  0.18403525  0.18463617  1
  Zn  Zn108  1  0.17887916  0.18851602  0.68743202  1
  Zn  Zn109  1  0.18161312  0.68026242  0.18534412  1
  Zn  Zn110  1  0.19112937  0.69258153  0.68990973  1
  Zn  Zn111  1  0.68432321  0.18770665  0.19057748  1
  Zn  Zn112  1  0.67925684  0.19067910  0.68621443  1
  Zn  Zn113  1  0.69400863  0.68886877  0.18466271  1
  Zn  Zn114  1  0.68665344  0.68730005  0.68874252  1
  Zn  Zn115  1  0.31193292  0.31379199  0.31891775  1
  Zn  Zn116  1  0.43981851  0.32467537  0.81567434  1
  Zn  Zn117  1  0.31214601  0.81444056  0.31275528  1
  Zn  Zn118  1  0.29204074  0.81939250  0.81733904  1
  Zn  Zn119  1  0.81498827  0.30471665  0.31766429  1
  Zn  Zn120  1  0.80756578  0.31421390  0.81895749  1
  Zn  Zn121  1  0.81026263  0.81371037  0.30800521  1
  Zn  Zn122  1  0.81137016  0.81487847  0.81080296  1
  Zn  Zn123  1  0.18244028  0.43672258  0.44130766  1
  Zn  Zn124  1  0.19161991  0.42604479  0.93473112  1
  Zn  Zn125  1  0.18647437  0.93575617  0.43610715  1
  Zn  Zn126  1  0.18780777  0.93775669  0.93892079  1
  Zn  Zn127  1  0.69337407  0.43601599  0.43481126  1
  Zn  Zn128  1  0.69207108  0.43987024  0.94026624  1
  Zn  Zn129  1  0.68627075  0.93536214  0.44062184  1
  Zn  Zn130  1  0.68874451  0.93933971  0.93230670  1
  Zn  Zn131  1  0.30733091  0.05942525  0.05886439  1
  Zn  Zn132  1  0.31067523  0.06600827  0.56203044  1
  Zn  Zn133  1  0.31278262  0.55917775  0.06234590  1
  Zn  Zn134  1  0.31792186  0.56614111  0.56481287  1
  Zn  Zn135  1  0.81123471  0.06136655  0.06167966  1
  Zn  Zn136  1  0.81221737  0.06274993  0.56936110  1
  Zn  Zn137  1  0.81449393  0.56209616  0.06330908  1
  Zn  Zn138  1  0.80706697  0.55207454  0.55360877  1
  Zn  Zn139  1  0.44029932  0.43923707  0.18572961  1
  Zn  Zn140  1  0.43759776  0.45309055  0.68766670  1
  Zn  Zn141  1  0.43788590  0.93747409  0.18472872  1
  Zn  Zn142  1  0.43457696  0.95205196  0.68287363  1
  Zn  Zn143  1  0.93695788  0.42518965  0.18138500  1
  Zn  Zn144  1  0.93377020  0.43027786  0.68971860  1
  Zn  Zn145  1  0.93706716  0.92758486  0.19075411  1
  Zn  Zn146  1  0.93786623  0.94185258  0.69167814  1
  Zn  Zn147  1  0.06039542  0.06313166  0.31138267  1
  Zn  Zn148  1  0.06079006  0.07090033  0.81145711  1
  Zn  Zn149  1  -0.00252677  0.55246694  0.29902560  1
  Zn  Zn150  1  0.06228728  0.55973204  0.80790399  1
  Zn  Zn151  1  0.56206985  0.06379907  0.31027834  1
  Zn  Zn152  1  0.56346279  0.06118202  0.81321525  1
  Zn  Zn153  1  0.66281676  0.56096792  0.31719562  1
  Zn  Zn154  1  0.56037877  0.55736507  0.81267708  1
  Zn  Zn155  1  0.43387106  0.19056557  0.43591514  1
  Zn  Zn156  1  0.44141239  0.18695814  0.94308599  1
  Zn  Zn157  1  0.44213383  0.68799779  0.43770263  1
  Zn  Zn158  1  0.43920869  0.67855848  0.94090446  1
  Zn  Zn159  1  0.91584684  0.15279016  0.45809489  1
  Zn  Zn160  1  0.93901299  0.18313823  0.93754315  1
  Zn  Zn161  1  0.93940261  0.68313790  0.42460425  1
  Zn  Zn162  1  0.94212727  0.68373892  0.93529326  1
  Zn  Zn163  1  0.06218819  0.30975417  0.06436358  1
  Zn  Zn164  1  0.05777279  0.30503281  0.56235249  1
  Zn  Zn165  1  0.05694583  0.81253638  0.06120495  1
  Zn  Zn166  1  0.06808540  0.81689948  0.55996092  1
  Zn  Zn167  1  0.56169463  0.31234360  0.06628570  1
  Zn  Zn168  1  0.55848821  0.31505681  0.56837303  1
  Zn  Zn169  1  0.56321683  0.80763683  0.05882660  1
  Zn  Zn170  1  0.56467628  0.81511174  0.56422563  1
  O  O171  1  0.12693448  0.11161929  0.11737050  1
  O  O172  1  0.11766574  0.11647883  0.62480346  1
  O  O173  1  0.12271723  0.61187953  0.10873595  1
  O  O174  1  0.12835909  0.63442121  0.61292695  1
  O  O175  1  0.61658242  0.11900158  0.11865591  1
  O  O176  1  0.61581977  0.11169867  0.63110850  1
  O  O177  1  0.62194037  0.61961928  0.11724958  1
  O  O178  1  0.61404060  0.62628825  0.61789778  1
  O  O179  1  0.38540985  0.38266728  0.38047621  1
  O  O180  1  0.38004686  0.39195629  0.89541724  1
  O  O181  1  0.37930003  0.88507196  0.37986444  1
  O  O182  1  0.38216986  0.87556470  0.87979795  1
  O  O183  1  0.88519133  0.36158062  0.38929597  1
  O  O184  1  0.87109105  0.38675396  0.88606888  1
  O  O185  1  0.88980613  0.86971864  0.37224114  1
  O  O186  1  0.87292214  0.88908636  0.87500735  1
  O  O187  1  0.25586708  -0.00119566  0.36614758  1
  O  O188  1  0.25986530  -0.00792840  0.86620527  1
  O  O189  1  0.25152241  0.50502458  0.36827081  1
  O  O190  1  0.25733365  0.49965631  0.87555409  1
  O  O191  1  0.75551948  -0.00589431  0.37149701  1
  O  O192  1  0.75713507  0.01107060  0.87306434  1
  O  O193  1  0.74836863  0.51221307  0.37673349  1
  O  O194  1  0.75756673  0.51026565  0.87077541  1
  O  O195  1  0.24285517  0.49874214  0.13334566  1
  O  O196  1  0.25479900  0.50482317  0.63846962  1
  O  O197  1  0.24353511  0.99060407  0.13175868  1
  O  O198  1  0.24234281  0.99795875  0.63369266  1
  O  O199  1  0.73799731  0.50007582  0.12033406  1
  O  O200  1  0.74740598  0.49742360  0.63527643  1
  O  O201  1  0.74073432  0.99176360  0.12673120  1
  O  O202  1  0.74141159  0.99307950  0.62604469  1
  O  O203  1  0.00108301  0.35946684  0.25865909  1
  O  O204  1  0.00930060  0.36388818  0.75091918  1
  O  O205  1  0.00679162  0.85616467  0.25436750  1
  O  O206  1  0.01075359  0.87378461  0.75350710  1
  O  O207  1  0.50138351  0.36975513  0.25713794  1
  O  O208  1  0.50097341  0.39908543  0.76041196  1
  O  O209  1  0.50576422  0.86817745  0.25241664  1
  O  O210  1  0.50657033  0.88190343  0.74852792  1
  O  O211  1  0.49577172  0.13272503  0.24020151  1
  O  O212  1  0.49869231  0.12233668  0.74187990  1
  O  O213  1  0.49174804  0.63254862  0.24167103  1
  O  O214  1  0.50254019  0.61955472  0.73381913  1
  O  O215  1  0.98746994  0.13554948  0.25538016  1
  O  O216  1  1.00674303  0.14671141  0.74118267  1
  O  O217  1  1.03193350  0.63577737  0.22469838  1
  O  O218  1  0.98972921  0.62578624  0.74925864  1
  O  O219  1  0.36947392  0.25986311  -0.00365455  1
  O  O220  1  0.36319676  0.26204735  0.49188627  1
  O  O221  1  0.37165129  0.75303070  0.00392439  1
  O  O222  1  0.37166120  0.76480146  0.49449950  1
  O  O223  1  0.86971988  0.25311095  0.00390086  1
  O  O224  1  0.86341142  0.25109584  0.51118896  1
  O  O225  1  0.88021225  0.75092914  0.00737677  1
  O  O226  1  0.88190770  0.72661946  0.50975132  1
  O  O227  1  0.13412542  0.25293211  0.49216452  1
  O  O228  1  0.12799791  0.24401047  0.99604370  1
  O  O229  1  0.13453991  0.74628364  0.49348829  1
  O  O230  1  0.12776158  0.73959760  0.99606158  1
  O  O231  1  0.63633165  0.25821650  0.50039486  1
  O  O232  1  0.62988620  0.24451329  0.99592606  1
  O  O233  1  0.62382136  0.74611055  0.49108198  1
  O  O234  1  0.62105843  0.73978326  0.98582205  1
  O  O235  1  0.50140127  0.23945474  0.13277037  1
  O  O236  1  0.50258603  0.23148813  0.62134737  1
  O  O237  1  0.49516532  0.74215847  0.12988067  1
  O  O238  1  0.49863880  0.74032284  0.62348445  1
  O  O239  1  0.99095069  0.25235604  0.13539818  1
  O  O240  1  0.98872677  0.24963779  0.63887205  1
  O  O241  1  0.99133797  0.74035015  0.12997373  1
  O  O242  1  1.00068436  0.75165648  0.62802666  1
  O  O243  1  0.01350195  0.25695178  0.37050808  1
  O  O244  1  0.00348757  0.24710987  0.86373034  1
  O  O245  1  0.01272931  0.75810934  0.36730238  1
  O  O246  1  0.01184769  0.75207685  0.87359322  1
  O  O247  1  0.50005721  0.25982809  0.36860944  1
  O  O248  1  0.51318884  0.25177622  0.88066459  1
  O  O249  1  0.50573775  0.75817764  0.36820072  1
  O  O250  1  0.50620617  0.74948028  0.87686161  1
  O  O251  1  0.24746364  0.13563203  0.49633316  1
  O  O252  1  0.23771188  0.13164155  1.00515930  1
  O  O253  1  0.24466057  0.62913342  0.49615829  1
  O  O254  1  0.24161807  0.63068014  1.00456008  1
  O  O255  1  0.74673920  0.13942250  0.50366897  1
  O  O256  1  0.73804585  0.12972355  0.99507967  1
  O  O257  1  0.73515791  0.63098647  0.50942820  1
  O  O258  1  0.73822208  0.61820638  0.99194997  1
  O  O259  1  0.26214680  0.36609134  0.00448453  1
  O  O260  1  0.26003216  0.36861866  0.49403744  1
  O  O261  1  0.26090662  0.86632644  0.00359180  1
  O  O262  1  0.25780863  0.87276116  0.50612570  1
  O  O263  1  0.75990008  0.36548736  -0.00260122  1
  O  O264  1  0.75776623  0.36583998  0.50212697  1
  O  O265  1  0.74744110  0.87736692  0.00978502  1
  O  O266  1  0.75025266  0.87146715  0.51545949  1
  O  O267  1  0.13259346  0.49795536  0.23888784  1
  O  O268  1  0.13314340  0.48679359  0.75590567  1
  O  O269  1  0.13087151  0.99317490  0.24333482  1
  O  O270  1  0.12965068  0.99601710  0.74748962  1
  O  O271  1  0.61945844  0.48263665  0.24130513  1
  O  O272  1  0.63714561  0.50156267  0.75109678  1
  O  O273  1  0.62029240  0.98524898  0.24212014  1
  O  O274  1  0.62826918  0.99168578  0.74415795  1
  O  O275  1  0.36632453  -0.00311918  0.25619443  1
  O  O276  1  0.36326317  -0.00524370  0.76174235  1
  O  O277  1  0.36810661  0.50559389  0.25567648  1
  O  O278  1  0.35576516  0.49591974  0.76423257  1
  O  O279  1  0.87728543  0.01390050  0.24287088  1
  O  O280  1  0.87034733  0.00245890  0.76469030  1
  O  O281  1  0.90570494  0.50284419  0.25033656  1
  O  O282  1  0.87115280  0.50416955  0.75930047  1
  O  O283  1  0.11848931  0.36681821  0.37155874  1
  O  O284  1  0.12445715  0.36066042  0.86910736  1
  O  O285  1  0.12078081  0.86562068  0.36864203  1
  O  O286  1  0.12400239  0.86889160  0.86859812  1
  O  O287  1  0.61335827  0.37476076  0.36513946  1
  O  O288  1  0.63060029  0.36128906  0.88005913  1
  O  O289  1  0.61949180  0.86888290  0.36626094  1
  O  O290  1  0.63027824  0.86745916  0.86216608  1
  O  O291  1  0.38810902  0.11437399  0.12281228  1
  O  O292  1  0.38880974  0.11603415  0.62663906  1
  O  O293  1  0.38112904  0.62920175  0.12912836  1
  O  O294  1  0.39018765  0.63553280  0.62040673  1
  O  O295  1  0.87188628  0.13489620  0.13203512  1
  O  O296  1  0.87972807  0.13923853  0.63268287  1
  O  O297  1  0.88690089  0.63118680  0.11866652  1
  O  O298  1  0.87257161  0.61684142  0.63528073  1
  O  O299  1  0.24454282  0.25221066  0.11304486  1
  O  O300  1  0.24629467  0.24952167  0.61391965  1
  O  O301  1  0.25417855  0.75240676  0.12004174  1
  O  O302  1  0.25785304  0.76026129  0.62156356  1
  O  O303  1  0.75478472  0.24339425  0.11204591  1
  O  O304  1  0.75245640  0.25128589  0.61964672  1
  O  O305  1  0.75902436  0.75778857  0.12205726  1
  O  O306  1  0.74657424  0.76522980  0.62568213  1
  O  O307  1  0.23736236  0.24864778  0.37831696  1
  O  O308  1  0.23863836  0.24703606  0.89375884  1
  O  O309  1  0.24626741  0.74654649  0.38203080  1
  O  O310  1  0.23384580  0.75096026  0.88550568  1
  O  O311  1  0.74573242  0.24898604  0.39206775  1
  O  O312  1  0.74282837  0.24303990  0.88719177  1
  O  O313  1  0.74102184  0.75769692  0.38125868  1
  O  O314  1  0.74414408  0.73673432  0.87125672  1
  O  O315  1  0.01332247  0.12123782  0.00102833  1
  O  O316  1  0.00974900  0.14695553  0.52434236  1
  O  O317  1  0.00851089  0.61456738  0.00625221  1
  O  O318  1  0.00270993  0.61885650  0.50845698  1
  O  O319  1  0.51054873  0.11962761  0.00669256  1
  O  O320  1  0.49394953  0.11445711  0.49909400  1
  O  O321  1  0.51245285  0.61813187  0.00876822  1
  O  O322  1  0.50801084  0.62066664  0.50440707  1
  O  O323  1  0.49404726  0.38258707  0.49358516  1
  O  O324  1  0.49144620  0.38197281  1.00677375  1
  O  O325  1  0.49292866  0.88305327  0.49536819  1
  O  O326  1  0.48690335  0.87796377  1.00612181  1
  O  O327  1  0.99436138  0.37733230  0.49617452  1
  O  O328  1  0.99388419  0.38333466  1.00244493  1
  O  O329  1  1.00607328  0.87216132  0.48171356  1
  O  O330  1  0.99624165  0.88206292  0.99622930  1
  O  O331  1  0.49291150  0.49373581  0.38747953  1
  O  O332  1  0.49457029  0.50839977  0.89206654  1
  O  O333  1  0.49251354  0.99427478  0.37914564  1
  O  O334  1  0.49033775  1.00320009  0.88380334  1
  O  O335  1  1.00807161  0.48140103  0.38799543  1
  O  O336  1  0.99026826  0.50536547  0.88428893  1
  O  O337  1  1.00178465  0.97977544  0.36416285  1
  O  O338  1  0.98663670  1.00425693  0.87303734  1
  O  O339  1  0.01305734  -0.00925527  0.12842159  1
  O  O340  1  0.00851238  0.01295650  0.63601631  1
  O  O341  1  0.00883828  0.50388043  0.11336030  1
  O  O342  1  -0.00119400  0.49166426  0.61613544  1
  O  O343  1  0.50624169  0.00394469  0.11602059  1
  O  O344  1  0.50674877  0.00920346  0.61536050  1
  O  O345  1  0.50809378  0.50698847  0.11669593  1
  O  O346  1  0.49758647  0.51502431  0.61035229  1
  O  O347  1  0.25068797  0.38616287  0.24953203  1
  O  O348  1  0.23458416  0.38477352  0.74579139  1
  O  O349  1  0.24263609  0.88304973  0.24617711  1
  O  O350  1  0.23640972  0.88643819  0.74326284  1
  O  O351  1  0.73554692  0.36491703  0.25664094  1
  O  O352  1  0.75037034  0.38860679  0.75275366  1
  O  O353  1  0.74041260  0.87553890  0.23756717  1
  O  O354  1  0.74210277  0.87755575  0.73974813  1
  O  O355  1  0.25162175  0.11128005  0.24963979  1
  O  O356  1  0.24344135  0.11595649  0.75266996  1
  O  O357  1  0.25330216  0.61416111  0.25455272  1
  O  O358  1  0.23805140  0.60950051  0.75230113  1
  O  O359  1  0.76094883  0.12127873  0.24611406  1
  O  O360  1  0.74242388  0.12749725  0.76314775  1
  O  O361  1  0.73917904  0.62079557  0.25629713  1
  O  O362  1  0.75671885  0.61605679  0.75716928  1
  O  O363  1  0.37311746  0.11119352  0.37102532  1
  O  O364  1  0.37235071  0.11433488  0.88431368  1
  O  O365  1  0.36818619  0.62058942  0.37157155  1
  O  O366  1  0.37439322  0.60623168  0.88219756  1
  O  O367  1  0.86393458  0.13476579  0.35554255  1
  O  O368  1  0.86426091  0.11656822  0.87956365  1
  O  O369  1  0.92190304  0.64507909  0.32371067  1
  O  O370  1  0.86869527  0.61609024  0.87175627  1
  O  O371  1  0.12695317  0.38580402  0.12575534  1
  O  O372  1  0.12062221  0.36856123  0.63880969  1
  O  O373  1  0.13101349  0.87645812  0.13042930  1
  O  O374  1  0.12833218  0.88362432  0.63321787  1
  O  O375  1  0.62260535  0.38070829  0.13832406  1
  O  O376  1  0.62488168  0.38186261  0.63039522  1
  O  O377  1  0.62908920  0.87525326  0.12922065  1
  O  O378  1  0.62815582  0.88360921  0.63530181  1
  O  O379  1  0.11786476  0.24784488  0.25468425  1
  O  O380  1  0.11997534  0.26062867  0.75764451  1
  O  O381  1  0.13261246  0.75499008  0.25941846  1
  O  O382  1  0.12608964  0.75999103  0.75900016  1
  O  O383  1  0.61247636  0.26170791  0.24876325  1
  O  O384  1  0.62896578  0.25620754  0.76802862  1
  O  O385  1  0.62114865  0.75941534  0.25585730  1
  O  O386  1  0.62527187  0.75621617  0.76237424  1
  O  O387  1  0.38525908  0.24915490  0.25463537  1
  O  O388  1  0.36547989  0.26096466  0.76208646  1
  O  O389  1  0.37775731  0.74483027  0.24490987  1
  O  O390  1  0.38080262  0.76855378  0.76156358  1
  O  O391  1  0.87964973  0.24351860  0.24096721  1
  O  O392  1  0.88440650  0.26137390  0.74886300  1
  O  O393  1  0.87965762  0.75946442  0.23183651  1
  O  O394  1  0.87586757  0.73450079  0.75692810  1
  O  O395  1  0.37909994  0.49512173  0.49313497  1
  O  O396  1  0.38126857  0.49464878  0.99619444  1
  O  O397  1  0.37893633  0.99131504  0.49193936  1
  O  O398  1  0.37603359  0.98917976  0.99129816  1
  O  O399  1  0.88513314  0.48624945  0.50201338  1
  O  O400  1  0.88225246  0.49146259  0.99660491  1
  O  O401  1  0.88933333  1.04296210  0.49223333  1
  O  O402  1  0.87428312  1.00054431  0.98755020  1
  O  O403  1  0.12611995  0.00621935  0.00808536  1
  O  O404  1  0.12924339  -0.00049191  0.51409364  1
  O  O405  1  0.12130721  0.50060191  0.00052085  1
  O  O406  1  0.11553383  0.51109483  0.49876344  1
  O  O407  1  0.61996522  0.00687127  0.00136508  1
  O  O408  1  0.61367936  -0.00706088  0.51002608  1
  O  O409  1  0.61892755  0.50372068  0.00593515  1
  O  O410  1  0.61697515  0.50968297  0.49961169  1
  O  O411  1  0.37449063  0.38402448  0.10851688  1
  O  O412  1  0.37798753  0.38193577  0.61305857  1
  O  O413  1  0.36869211  0.86760185  0.11784356  1
  O  O414  1  0.37195564  0.87667631  0.61646160  1
  O  O415  1  0.87532253  0.36059833  0.11157694  1
  O  O416  1  0.87166809  0.36319459  0.61546560  1
  O  O417  1  0.86555397  0.86823765  0.11920529  1
  O  O418  1  0.86115611  0.88128426  0.63116254  1
  O  O419  1  0.12440069  0.13148579  0.37820950  1
  O  O420  1  0.12153174  0.13792248  0.88373048  1
  O  O421  1  0.13091414  0.63897452  0.38519968  1
  O  O422  1  0.11895112  0.63032863  0.88500165  1
  O  O423  1  0.63008222  0.12808226  0.36703925  1
  O  O424  1  0.62909429  0.13413479  0.88332238  1
  O  O425  1  0.61492537  0.64039011  0.38667021  1
  O  O426  1  0.63160148  0.63013109  0.88007019  1
