# generated using pymatgen
data_V85Zn86O256
_symmetry_space_group_name_H-M   'P 1'
_cell_length_a   16.92535401
_cell_length_b   16.92713119
_cell_length_c   16.91087346
_cell_angle_alpha   89.96831943
_cell_angle_beta   90.01951954
_cell_angle_gamma   89.99551147
_symmetry_Int_Tables_number   1
_chemical_formula_structural   V85Zn86O256
_chemical_formula_sum   'V85 Zn86 O256'
_cell_volume   4844.92510670
_cell_formula_units_Z   1
loop_
 _symmetry_equiv_pos_site_id
 _symmetry_equiv_pos_as_xyz
  1  'x, y, z'
loop_
 _atom_site_type_symbol
 _atom_site_label
 _atom_site_symmetry_multiplicity
 _atom_site_fract_x
 _atom_site_fract_y
 _atom_site_fract_z
 _atom_site_occupancy
  V  V0  1  0.75844619  0.75929806  0.49825527  1
  V  V1  1  0.12202611  0.12342425  0.49884050  1
  V  V2  1  -0.01464246  0.74766751  0.24554441  1
  V  V3  1  0.12326901  0.75027907  0.87855033  1
  V  V4  1  0.62935295  0.49973941  0.12317036  1
  V  V5  1  0.00609393  0.49834155  -0.00222745  1
  V  V6  1  0.11565973  0.25846658  0.87456568  1
  V  V7  1  0.26120444  0.62500478  0.87342479  1
  V  V8  1  -0.01338689  -0.00220883  0.49978991  1
  V  V9  1  0.75436719  0.24538960  0.50330723  1
  V  V10  1  0.24857381  0.37697350  0.62732809  1
  V  V11  1  -0.00392535  0.13132552  0.62571039  1
  V  V12  1  0.62919778  0.37574969  0.24777739  1
  V  V13  1  0.28301110  0.66580973  0.39945780  1
  V  V14  1  0.49140979  0.62648200  0.62888361  1
  V  V15  1  0.50136338  0.24791114  0.75597999  1
  V  V16  1  -0.00504668  0.37947442  0.37286956  1
  V  V17  1  0.87799955  0.76598998  0.62552199  1
  V  V18  1  0.75973752  0.36910752  0.12305140  1
  V  V19  1  -0.01032770  0.62689596  0.63174517  1
  V  V20  1  0.61771397  0.00701167  0.12407621  1
  V  V21  1  0.25217259  0.85333698  0.62085897  1
  V  V22  1  0.12215446  0.87750330  0.24999269  1
  V  V23  1  0.37305820  0.24943512  0.62844218  1
  V  V24  1  -0.00786628  0.50247806  0.49711409  1
  V  V25  1  0.12950728  0.62380876  0.01585715  1
  V  V26  1  0.11999590  0.00002556  0.11681925  1
  V  V27  1  0.76862121  0.61886746  0.37092802  1
  V  V28  1  0.50082719  0.87801776  0.87364111  1
  V  V29  1  0.62888230  0.74586913  0.37311675  1
  V  V30  1  -0.00543321  0.75122573  0.75873719  1
  V  V31  1  0.75846720  0.50593742  0.75207383  1
  V  V32  1  0.88741608  0.88002127  0.00113251  1
  V  V33  1  0.63026252  0.62810043  -0.00418675  1
  V  V34  1  0.87313309  0.12871650  0.24912343  1
  V  V35  1  0.38086054  0.12579826  0.24259375  1
  V  V36  1  0.62192121  0.12030789  0.50238096  1
  V  V37  1  0.88172134  0.37265794  -0.00869769  1
  V  V38  1  0.62993923  0.75490696  0.86048381  1
  V  V39  1  0.62723673  0.24753465  0.37421852  1
  V  V40  1  0.37599786  0.37260683  0.49974539  1
  V  V41  1  0.75284217  0.24746696  -0.00468630  1
  V  V42  1  0.24759578  0.11942386  0.86892373  1
  V  V43  1  0.12020031  0.75100723  0.37407830  1
  V  V44  1  0.75419874  0.36677601  0.62595704  1
  V  V45  1  0.62597590  0.49914798  0.62626205  1
  V  V46  1  0.75040830  0.87393163  0.12196291  1
  V  V47  1  0.61462725  0.13286472  -0.00514425  1
  V  V48  1  0.73541065  -0.00652083  0.75158120  1
  V  V49  1  0.24968867  0.38783999  0.12434578  1
  V  V50  1  0.76693695  0.50203541  0.25005688  1
  V  V51  1  0.24819952  0.24817100  0.00114680  1
  V  V52  1  0.49438414  -0.00808293  0.50899479  1
  V  V53  1  -0.00498255  0.12275334  0.11964365  1
  V  V54  1  0.37477093  0.75256064  0.12389925  1
  V  V55  1  0.12323314  0.25224052  0.37345936  1
  V  V56  1  0.49860935  0.37597298  0.87358519  1
  V  V57  1  0.36922408  0.49206774  0.37082873  1
  V  V58  1  0.48340817  0.75126793  0.74637114  1
  V  V59  1  0.50155612  0.12163338  0.62717467  1
  V  V60  1  0.75235304  0.11146138  0.37723682  1
  V  V61  1  0.49934983  0.50211445  -0.00884503  1
  V  V62  1  0.37179955  -0.00150698  0.37797766  1
  V  V63  1  0.26408241  0.50414061  0.75298199  1
  V  V64  1  0.12625733  0.38402715  0.24513102  1
  V  V65  1  0.75472745  -0.00133058  0.25033428  1
  V  V66  1  0.49872276  0.87240948  0.37700880  1
  V  V67  1  0.87249404  0.12903537  0.74968088  1
  V  V68  1  0.50321696  0.37372919  0.37304350  1
  V  V69  1  0.24894165  0.12585134  0.37325413  1
  V  V70  1  0.12521017  0.87767330  0.75312328  1
  V  V71  1  0.37363938  0.37917487  -0.00615502  1
  V  V72  1  0.12413878  0.50341349  0.62912091  1
  V  V73  1  0.89064560  -0.00047860  0.87599646  1
  V  V74  1  0.63281983  0.62292064  0.49936758  1
  V  V75  1  -0.01252333  0.88071293  0.37825088  1
  V  V76  1  0.50496449  0.74889253  0.24722895  1
  V  V77  1  0.12305027  0.63024395  0.49682046  1
  V  V78  1  0.50311419  0.62394001  0.12369118  1
  V  V79  1  0.62702501  0.36984028  0.75583556  1
  V  V80  1  0.13543898  0.00111442  0.62732822  1
  V  V81  1  -0.00506305  0.25234907  0.24379295  1
  V  V82  1  0.87573333  0.37009036  0.49860644  1
  V  V83  1  -0.01852620  0.62410440  0.12814009  1
  V  V84  1  0.75513461  0.75386995  -0.00063376  1
  Zn  Zn85  1  0.73709706  0.87673236  0.63467853  1
  Zn  Zn86  1  0.36836908  0.11253426  0.74692804  1
  Zn  Zn87  1  0.37635981  0.62039075  0.24912609  1
  Zn  Zn88  1  0.62610695  0.87811152  0.25155959  1
  Zn  Zn89  1  0.25139338  0.75137523  0.00194013  1
  Zn  Zn90  1  0.88923038  0.50466169  0.86846561  1
  Zn  Zn91  1  0.24874805  0.87702362  0.12296762  1
  Zn  Zn92  1  -0.00878684  0.25899516  0.74928317  1
  Zn  Zn93  1  0.37307748  0.87899708  0.00078201  1
  Zn  Zn94  1  0.38204006  0.24782515  0.12008924  1
  Zn  Zn95  1  0.74700895  0.12448614  0.87568334  1
  Zn  Zn96  1  0.11850315  0.12222833  -0.00304960  1
  Zn  Zn97  1  0.76138946  0.63205775  0.86845896  1
  Zn  Zn98  1  0.50708021  0.24190284  0.24220091  1
  Zn  Zn99  1  0.50146681  0.49882358  0.50004209  1
  Zn  Zn100  1  0.49396770  0.00244399  0.00209569  1
  Zn  Zn101  1  0.24797579  0.25096491  0.50156284  1
  Zn  Zn102  1  0.36166273  0.84431788  0.49487588  1
  Zn  Zn103  1  0.11829497  0.38283497  0.75807154  1
  Zn  Zn104  1  0.24619415  0.00157673  0.24754007  1
  Zn  Zn105  1  0.36616523  -0.00677285  0.87258399  1
  Zn  Zn106  1  0.24572589  0.51373492  0.25255267  1
  Zn  Zn107  1  0.18623141  0.18929462  0.18551413  1
  Zn  Zn108  1  0.18252666  0.19011832  0.69006216  1
  Zn  Zn109  1  0.19239751  0.68931560  0.20066080  1
  Zn  Zn110  1  0.18307712  0.68526592  0.69298834  1
  Zn  Zn111  1  0.68888256  0.18767000  0.18328555  1
  Zn  Zn112  1  0.68618944  0.18325666  0.69034714  1
  Zn  Zn113  1  0.69427256  0.68614119  0.18593572  1
  Zn  Zn114  1  0.69065322  0.68841196  0.68232672  1
  Zn  Zn115  1  0.31082836  0.31042298  0.30849573  1
  Zn  Zn116  1  0.30771921  0.31253310  0.81350521  1
  Zn  Zn117  1  0.31407959  0.81710139  0.30374705  1
  Zn  Zn118  1  0.30812293  0.81496859  0.81153087  1
  Zn  Zn119  1  0.81221753  0.31109442  0.31496181  1
  Zn  Zn120  1  0.81244727  0.31326654  0.81722852  1
  Zn  Zn121  1  0.80957638  0.81401653  0.31476619  1
  Zn  Zn122  1  0.81718719  0.81946412  0.81508585  1
  Zn  Zn123  1  0.18392749  0.43746215  0.44133755  1
  Zn  Zn124  1  0.18724081  0.44333394  0.93862533  1
  Zn  Zn125  1  0.18302457  0.93605660  0.44070731  1
  Zn  Zn126  1  0.18469919  0.93380825  0.94174200  1
  Zn  Zn127  1  0.69266403  0.43831843  0.43630626  1
  Zn  Zn128  1  0.68890235  0.43533832  0.93577188  1
  Zn  Zn129  1  0.67052742  0.92092076  0.46813156  1
  Zn  Zn130  1  0.68653030  0.94064206  0.93466981  1
  Zn  Zn131  1  0.30756382  0.05846548  0.05790943  1
  Zn  Zn132  1  0.31154888  0.06401754  0.56137711  1
  Zn  Zn133  1  0.31668817  0.56508222  0.06049902  1
  Zn  Zn134  1  0.31242579  0.55977209  0.55891168  1
  Zn  Zn135  1  0.81141121  0.06187436  0.06257146  1
  Zn  Zn136  1  0.81137525  0.05973611  0.56996954  1
  Zn  Zn137  1  0.81372975  0.55882175  0.05485072  1
  Zn  Zn138  1  0.81403169  0.56197665  0.56563108  1
  Zn  Zn139  1  0.43893294  0.43343984  0.18385329  1
  Zn  Zn140  1  0.43978052  0.43749236  0.68661632  1
  Zn  Zn141  1  0.43722656  0.93701798  0.19118027  1
  Zn  Zn142  1  0.42622976  0.93033334  0.69064792  1
  Zn  Zn143  1  0.94154200  0.43906263  0.17819843  1
  Zn  Zn144  1  0.93825810  0.43342968  0.68369782  1
  Zn  Zn145  1  0.93540340  0.93801022  0.18817437  1
  Zn  Zn146  1  0.94284460  0.94264652  0.69110872  1
  Zn  Zn147  1  0.05844017  0.06118218  0.31107383  1
  Zn  Zn148  1  0.06520988  0.06716978  0.80919277  1
  Zn  Zn149  1  0.05676155  0.56442653  0.31165429  1
  Zn  Zn150  1  0.06781059  0.56894444  0.81614561  1
  Zn  Zn151  1  0.56256605  0.05756445  0.31573671  1
  Zn  Zn152  1  0.55992582  0.06321493  0.81427797  1
  Zn  Zn153  1  0.56614270  0.55886117  0.31159220  1
  Zn  Zn154  1  0.56738680  0.56734619  0.81082658  1
  Zn  Zn155  1  0.43714997  0.18721897  0.43671701  1
  Zn  Zn156  1  0.43247320  0.18763531  0.93657261  1
  Zn  Zn157  1  0.45105805  0.67980446  0.43819385  1
  Zn  Zn158  1  0.44098314  0.69219770  0.93655500  1
  Zn  Zn159  1  0.93595113  0.18597727  0.43471980  1
  Zn  Zn160  1  0.93266870  0.18726526  0.93713895  1
  Zn  Zn161  1  0.93980127  0.69108791  0.43922774  1
  Zn  Zn162  1  0.93700886  0.68523067  0.93923147  1
  Zn  Zn163  1  0.06433595  0.31200394  0.06336784  1
  Zn  Zn164  1  0.06256268  0.31460783  0.56414163  1
  Zn  Zn165  1  0.06311439  0.80689802  0.06644237  1
  Zn  Zn166  1  0.06233459  0.81538510  0.56336503  1
  Zn  Zn167  1  0.56261416  0.31207652  0.06412019  1
  Zn  Zn168  1  0.56362300  0.30932340  0.56431496  1
  Zn  Zn169  1  0.56640186  0.81604512  0.05813464  1
  Zn  Zn170  1  0.56210184  0.81069220  0.56700360  1
  O  O171  1  0.11469178  0.11778713  0.12657635  1
  O  O172  1  0.12026522  0.11908221  0.62085263  1
  O  O173  1  0.13124769  0.63195961  0.11752221  1
  O  O174  1  0.11835515  0.62001213  0.61650412  1
  O  O175  1  0.62915382  0.11354108  0.11587207  1
  O  O176  1  0.61051991  0.12756654  0.61761395  1
  O  O177  1  0.62263561  0.61990343  0.11650910  1
  O  O178  1  0.62392701  0.61652156  0.61772244  1
  O  O179  1  0.38521369  0.37315002  0.37697332  1
  O  O180  1  0.37914888  0.37296017  0.88593418  1
  O  O181  1  0.37695953  0.88357113  0.37617242  1
  O  O182  1  0.38652312  0.86905806  0.87680013  1
  O  O183  1  0.87909924  0.37237393  0.38804900  1
  O  O184  1  0.87342592  0.38285175  0.88729424  1
  O  O185  1  0.88868144  0.87608647  0.36932778  1
  O  O186  1  0.87695394  0.88937049  0.88650434  1
  O  O187  1  0.25465558  0.00728707  0.37475757  1
  O  O188  1  0.24107315  0.01701742  0.88073120  1
  O  O189  1  0.26506243  0.48507854  0.37343788  1
  O  O190  1  0.24533617  0.51465040  0.86709168  1
  O  O191  1  0.73943575  0.00954915  0.36858383  1
  O  O192  1  0.75674695  0.00179059  0.86412818  1
  O  O193  1  0.74728941  0.50709980  0.36322581  1
  O  O194  1  0.74649118  0.49887925  0.85688476  1
  O  O195  1  0.25545411  0.49151348  0.13023211  1
  O  O196  1  0.24286788  0.50003032  0.63093827  1
  O  O197  1  0.23578775  1.00012504  0.12856564  1
  O  O198  1  0.23763608  1.00054080  0.62169203  1
  O  O199  1  0.74668477  0.49417251  0.12963321  1
  O  O200  1  0.74560085  0.48974332  0.63315969  1
  O  O201  1  0.74149541  0.99382624  0.13150589  1
  O  O202  1  0.75713632  0.99729197  0.64675359  1
  O  O203  1  0.00578159  0.37032698  0.25013321  1
  O  O204  1  0.00622228  0.37077338  0.74252421  1
  O  O205  1  0.00556067  0.86943559  0.25444228  1
  O  O206  1  0.01456962  0.86500291  0.74396289  1
  O  O207  1  0.50897898  0.37425694  0.26101460  1
  O  O208  1  0.50705227  0.36920594  0.75346623  1
  O  O209  1  0.50441513  0.86698506  0.25785248  1
  O  O210  1  0.49868673  0.85917788  0.75459260  1
  O  O211  1  0.48439870  0.12244046  0.25802112  1
  O  O212  1  0.49826785  0.13170911  0.74381405  1
  O  O213  1  0.50309129  0.63155719  0.24266907  1
  O  O214  1  0.50664920  0.63801211  0.74187052  1
  O  O215  1  0.99070955  0.13344616  0.24786134  1
  O  O216  1  0.99213903  0.12942041  0.74207922  1
  O  O217  1  1.00136557  0.63087712  0.23634134  1
  O  O218  1  1.00853561  0.63660050  0.74134192  1
  O  O219  1  0.36526452  0.25848939  0.00003805  1
  O  O220  1  0.37520208  0.25418851  0.51123282  1
  O  O221  1  0.37824472  0.74914335  0.01524442  1
  O  O222  1  0.35223901  0.73209366  0.45661470  1
  O  O223  1  0.86760183  0.25936556  -0.00084016  1
  O  O224  1  0.86719784  0.25631963  0.49669849  1
  O  O225  1  0.86326569  0.76630686  -0.00702125  1
  O  O226  1  0.86952224  0.74181339  0.51344005  1
  O  O227  1  0.12228237  0.24509977  0.48696683  1
  O  O228  1  0.13013315  0.24841611  0.99133095  1
  O  O229  1  0.11674108  0.73854510  0.49236155  1
  O  O230  1  0.12692918  0.74300569  0.99461618  1
  O  O231  1  0.62964600  0.23852037  0.49453856  1
  O  O232  1  0.63079858  0.23684440  1.00490706  1
  O  O233  1  0.63699310  0.73770810  0.49462993  1
  O  O234  1  0.63607873  0.74658118  0.99164490  1
  O  O235  1  0.49523045  0.25579933  0.13099583  1
  O  O236  1  0.49278148  0.24301959  0.63303173  1
  O  O237  1  0.49993376  0.74664713  0.13104345  1
  O  O238  1  0.50456926  0.74292395  0.63742724  1
  O  O239  1  1.00640808  0.24243847  0.13896285  1
  O  O240  1  1.00657523  0.23503712  0.62365731  1
  O  O241  1  1.00094285  0.73504891  0.13252802  1
  O  O242  1  0.99430991  0.74502793  0.63104453  1
  O  O243  1  0.00546230  0.25632070  0.36533264  1
  O  O244  1  0.01334199  0.24555550  0.87690040  1
  O  O245  1  0.00505701  0.75746853  0.36895427  1
  O  O246  1  0.00820094  0.74584461  0.86863407  1
  O  O247  1  0.51271532  0.25382352  0.37271219  1
  O  O248  1  0.49364961  0.25470720  0.86169729  1
  O  O249  1  0.50845966  0.75079138  0.36587697  1
  O  O250  1  0.50814902  0.75373429  0.86289777  1
  O  O251  1  0.24300395  0.12843756  0.48815137  1
  O  O252  1  0.24430165  0.13477291  0.99261889  1
  O  O253  1  0.23941571  0.61635800  0.48454943  1
  O  O254  1  0.24499042  0.62604640  0.99222115  1
  O  O255  1  0.74211352  0.12289805  0.49614121  1
  O  O256  1  0.74206873  0.13256979  1.00134723  1
  O  O257  1  0.74588918  0.62571711  0.49376394  1
  O  O258  1  0.74589772  0.63665190  1.00159202  1
  O  O259  1  0.25653724  0.37366681  0.00485130  1
  O  O260  1  0.25685777  0.37264356  0.50792610  1
  O  O261  1  0.25371080  0.86879619  0.00479485  1
  O  O262  1  0.24620750  0.87451065  0.51505510  1
  O  O263  1  0.75636124  0.36964074  0.00489407  1
  O  O264  1  0.75601318  0.36934683  0.50635806  1
  O  O265  1  0.75374369  0.87175258  0.00522636  1
  O  O266  1  0.76679419  0.85745362  0.47932977  1
  O  O267  1  0.12793394  0.48782157  0.25866240  1
  O  O268  1  0.13081419  0.50448780  0.73877777  1
  O  O269  1  0.12298741  0.99181597  0.24436271  1
  O  O270  1  0.11822280  0.99029253  0.74078324  1
  O  O271  1  0.63232068  0.49213022  0.24140371  1
  O  O272  1  0.63263730  0.49264942  0.74036896  1
  O  O273  1  0.63404438  1.00280191  0.24048791  1
  O  O274  1  0.63659725  1.00414789  0.75175480  1
  O  O275  1  0.37209752  0.00868595  0.26086065  1
  O  O276  1  0.37497619  0.00053049  0.75894340  1
  O  O277  1  0.37435433  0.49842094  0.25689580  1
  O  O278  1  0.36365110  0.49928567  0.74471701  1
  O  O279  1  0.86047501  0.00661653  0.24939804  1
  O  O280  1  0.87557893  0.00703563  0.76330077  1
  O  O281  1  0.86608378  0.49364486  0.24685829  1
  O  O282  1  0.86123107  0.49353826  0.74816492  1
  O  O283  1  0.11778165  0.36795508  0.37052579  1
  O  O284  1  0.13032730  0.36215453  0.87822441  1
  O  O285  1  0.11525040  0.87033263  0.36887108  1
  O  O286  1  0.13256155  0.86186573  0.86698580  1
  O  O287  1  0.62222542  0.36735831  0.37222833  1
  O  O288  1  0.61909579  0.37764880  0.86173064  1
  O  O289  1  0.61738576  0.86398651  0.37708468  1
  O  O290  1  0.61430722  0.86528433  0.88021012  1
  O  O291  1  0.36684424  0.12243033  0.14065495  1
  O  O292  1  0.38273506  0.13255106  0.62572241  1
  O  O293  1  0.38547065  0.63166071  0.12812821  1
  O  O294  1  0.39290771  0.62064642  0.61202747  1
  O  O295  1  0.87933985  0.11999934  0.13903410  1
  O  O296  1  0.88352354  0.12144407  0.63644099  1
  O  O297  1  0.88313142  0.62544103  0.12181553  1
  O  O298  1  0.88666303  0.63050485  0.62572275  1
  O  O299  1  0.25000166  0.25708427  0.11238807  1
  O  O300  1  0.25643457  0.25496404  0.62507531  1
  O  O301  1  0.26303829  0.74969111  0.12995332  1
  O  O302  1  0.24232261  0.75443318  0.62140700  1
  O  O303  1  0.74595702  0.26021978  0.11383189  1
  O  O304  1  0.74296194  0.25985905  0.62033406  1
  O  O305  1  0.74435054  0.76526561  0.11717112  1
  O  O306  1  0.75928963  0.75549828  0.61731971  1
  O  O307  1  0.24080163  0.24421094  0.37619334  1
  O  O308  1  0.24083398  0.24516358  0.88449877  1
  O  O309  1  0.23158270  0.75780963  0.36727935  1
  O  O310  1  0.24373280  0.73922685  0.87549945  1
  O  O311  1  0.74038367  0.24117155  0.38180443  1
  O  O312  1  0.74864353  0.24900455  0.88982573  1
  O  O313  1  0.74707991  0.73754059  0.37704899  1
  O  O314  1  0.74530290  0.75346559  0.88029435  1
  O  O315  1  -0.00316486  0.13154845  0.01642848  1
  O  O316  1  0.00368353  0.11917578  0.50371597  1
  O  O317  1  0.00850197  0.62292207  0.01413269  1
  O  O318  1  0.00537348  0.61866756  0.50699815  1
  O  O319  1  0.51060296  0.12520914  -0.00272522  1
  O  O320  1  0.50303304  0.11941039  0.50743827  1
  O  O321  1  0.50858236  0.61949455  0.00222966  1
  O  O322  1  0.51839968  0.62126543  0.50787753  1
  O  O323  1  0.49786088  0.37279340  0.48904878  1
  O  O324  1  0.49556725  0.38199990  0.99223190  1
  O  O325  1  0.48555502  0.87731541  0.49625939  1
  O  O326  1  0.49696391  0.87513630  0.98766723  1
  O  O327  1  0.99290310  0.38162919  0.49728456  1
  O  O328  1  0.99302425  0.38491916  1.01132694  1
  O  O329  1  1.00382877  0.88631959  0.49259503  1
  O  O330  1  0.98541405  0.87099153  1.00793231  1
  O  O331  1  0.49461342  0.48911520  0.37670002  1
  O  O332  1  0.50804242  0.49770985  0.88473809  1
  O  O333  1  0.49127551  0.99295558  0.38384334  1
  O  O334  1  0.50353403  0.98500341  0.87521068  1
  O  O335  1  1.00434182  0.49305608  0.38595973  1
  O  O336  1  1.00707452  0.50606584  0.89176373  1
  O  O337  1  1.00446600  0.99369133  0.38730202  1
  O  O338  1  0.98957909  1.00607978  0.87566776  1
  O  O339  1  0.00627992  0.01218395  0.13525728  1
  O  O340  1  0.00808420  0.00959430  0.61722336  1
  O  O341  1  0.00119733  0.51665990  0.11780773  1
  O  O342  1  0.00642072  0.50901217  0.61955198  1
  O  O343  1  0.51480736  -0.00425095  0.12654799  1
  O  O344  1  0.49012745  0.00427178  0.61478975  1
  O  O345  1  0.50918165  0.50223872  0.11400339  1
  O  O346  1  0.51085508  0.50573726  0.62466601  1
  O  O347  1  0.24215019  0.37342211  0.24040484  1
  O  O348  1  0.24476779  0.38582652  0.74517614  1
  O  O349  1  0.23391447  0.87779325  0.24719897  1
  O  O350  1  0.23674793  0.86718041  0.73508240  1
  O  O351  1  0.74788230  0.37873668  0.24241844  1
  O  O352  1  0.74438639  0.37843707  0.74360979  1
  O  O353  1  0.74777316  0.88220284  0.24294641  1
  O  O354  1  0.74853243  0.88760461  0.75207116  1
  O  O355  1  0.25574625  0.12545255  0.26064598  1
  O  O356  1  0.24866349  0.13187526  0.76486775  1
  O  O357  1  0.25836067  0.63034010  0.27796946  1
  O  O358  1  0.24663480  0.61977495  0.76398855  1
  O  O359  1  0.75452513  0.12071965  0.25619623  1
  O  O360  1  0.75571257  0.11673802  0.75313895  1
  O  O361  1  0.74826173  0.61470360  0.25836520  1
  O  O362  1  0.74742670  0.60870930  0.74567988  1
  O  O363  1  0.36638018  0.12005456  0.36970325  1
  O  O364  1  0.35663087  0.12867171  0.87276289  1
  O  O365  1  0.37898155  0.60851816  0.37468275  1
  O  O366  1  0.36024212  0.62934388  0.88216059  1
  O  O367  1  0.86383406  0.12804689  0.36343583  1
  O  O368  1  0.87130796  0.11335622  0.87220180  1
  O  O369  1  0.86767190  0.62371359  0.37912085  1
  O  O370  1  0.87197709  0.61677639  0.88077211  1
  O  O371  1  0.13508217  0.37178731  0.13470070  1
  O  O372  1  0.13257449  0.38803789  0.62060777  1
  O  O373  1  0.12065514  0.88221002  0.13326707  1
  O  O374  1  0.13257354  0.88171812  0.62963977  1
  O  O375  1  0.63724619  0.38212083  0.12622791  1
  O  O376  1  0.63073380  0.38095985  0.63186736  1
  O  O377  1  0.63322712  0.88870750  0.12424438  1
  O  O378  1  0.64101740  0.88594418  0.57697988  1
  O  O379  1  0.11902522  0.25794712  0.25911874  1
  O  O380  1  0.12399751  0.25448736  0.76589681  1
  O  O381  1  0.11327713  0.75762010  0.25664968  1
  O  O382  1  0.11597130  0.75483085  0.75878782  1
  O  O383  1  0.62852479  0.25513574  0.25838245  1
  O  O384  1  0.61489284  0.25833284  0.74431894  1
  O  O385  1  0.61790238  0.75055495  0.25214168  1
  O  O386  1  0.62772200  0.74853965  0.75831340  1
  O  O387  1  0.37598354  0.23411759  0.25110481  1
  O  O388  1  0.38003566  0.25114413  0.73912485  1
  O  O389  1  0.38965141  0.74835651  0.24316486  1
  O  O390  1  0.38538281  0.74707041  0.75092151  1
  O  O391  1  0.88311835  0.24361792  0.25281108  1
  O  O392  1  0.87322513  0.23459334  0.75998591  1
  O  O393  1  0.88604710  0.75416654  0.25165691  1
  O  O394  1  0.88681277  0.75641532  0.74530148  1
  O  O395  1  0.37983308  0.48922373  0.49165147  1
  O  O396  1  0.38783011  0.49269877  1.00339356  1
  O  O397  1  0.38013905  1.00479952  0.48822605  1
  O  O398  1  0.37787390  0.99896179  0.99176429  1
  O  O399  1  0.88662414  0.49338503  0.50574116  1
  O  O400  1  0.88660948  0.49063195  0.99932710  1
  O  O401  1  0.88736276  1.00573784  0.50262424  1
  O  O402  1  0.87063323  0.99137055  0.98879007  1
  O  O403  1  0.11990308  0.00070390  0.01261294  1
  O  O404  1  0.11752628  0.00784943  0.50776883  1
  O  O405  1  0.12029331  0.51121888  0.00273143  1
  O  O406  1  0.11616128  0.50916318  0.50737373  1
  O  O407  1  0.62323732  0.01103694  0.01006483  1
  O  O408  1  0.60760305  0.01536410  0.48868336  1
  O  O409  1  0.62303277  0.50675192  0.00348295  1
  O  O410  1  0.62861709  0.50279643  0.51141444  1
  O  O411  1  0.36680165  0.37320775  0.11352508  1
  O  O412  1  0.37104997  0.36822471  0.62041543  1
  O  O413  1  0.37365893  0.86704422  0.12726722  1
  O  O414  1  0.35661253  0.86846418  0.61845648  1
  O  O415  1  0.86425274  0.37846366  0.11511173  1
  O  O416  1  0.86497785  0.37611438  0.61208862  1
  O  O417  1  0.86471839  0.88577252  0.11088897  1
  O  O418  1  0.87571624  0.86776583  0.62813818  1
  O  O419  1  0.13009933  0.13227716  0.37532013  1
  O  O420  1  0.13188974  0.13584183  0.87688073  1
  O  O421  1  0.11781976  0.63644981  0.38199334  1
  O  O422  1  0.13371636  0.63604184  0.88633448  1
  O  O423  1  0.62993973  0.13143895  0.38031349  1
  O  O424  1  0.62679378  0.12093147  0.89181359  1
  O  O425  1  0.63039953  0.62694545  0.38349958  1
  O  O426  1  0.63356283  0.63525042  0.88060981  1
