# generated using pymatgen
data_V85Zn86O256
_symmetry_space_group_name_H-M   'P 1'
_cell_length_a   16.94176009
_cell_length_b   16.95700711
_cell_length_c   16.94852231
_cell_angle_alpha   90.04707996
_cell_angle_beta   90.00923447
_cell_angle_gamma   90.00770169
_symmetry_Int_Tables_number   1
_chemical_formula_structural   V85Zn86O256
_chemical_formula_sum   'V85 Zn86 O256'
_cell_volume   4868.99594801
_cell_formula_units_Z   1
loop_
 _symmetry_equiv_pos_site_id
 _symmetry_equiv_pos_as_xyz
  1  'x, y, z'
loop_
 _atom_site_type_symbol
 _atom_site_label
 _atom_site_symmetry_multiplicity
 _atom_site_fract_x
 _atom_site_fract_y
 _atom_site_fract_z
 _atom_site_occupancy
  V  V0  1  0.62071219  0.12290454  0.00150254  1
  V  V1  1  0.12732623  0.24883403  0.38142697  1
  V  V2  1  0.00013290  0.37730943  0.37963008  1
  V  V3  1  0.62704952  0.12600845  0.50149302  1
  V  V4  1  0.00109510  0.11678003  0.62493924  1
  V  V5  1  0.24827212  0.37449509  0.12202269  1
  V  V6  1  0.88030158  0.87600908  0.50530855  1
  V  V7  1  0.88034953  0.50222534  0.38224032  1
  V  V8  1  0.87517525  0.74626376  0.63341696  1
  V  V9  1  0.74610369  0.24888912  0.00385355  1
  V  V10  1  0.11882458  0.49674970  0.62151612  1
  V  V11  1  0.88451389  0.36704579  -0.01838459  1
  V  V12  1  0.87965705  -0.00014910  0.37967680  1
  V  V13  1  0.36999433  0.61579603  0.74461567  1
  V  V14  1  0.49730561  0.88412923  0.87083154  1
  V  V15  1  0.74956528  0.12250888  0.87273923  1
  V  V16  1  0.25897987  0.12925283  0.37621747  1
  V  V17  1  -0.00306855  0.62252303  0.63113347  1
  V  V18  1  0.75564952  0.37553871  0.12239978  1
  V  V19  1  0.50558134  0.63216112  0.61825411  1
  V  V20  1  -0.00004292  0.24367571  0.24460350  1
  V  V21  1  0.62424724  0.37610551  0.24910835  1
  V  V22  1  0.62612190  0.49992679  0.12327007  1
  V  V23  1  0.75474969  0.52398139  0.77243882  1
  V  V24  1  0.49909757  0.37150533  0.37030499  1
  V  V25  1  0.25318808  0.11964636  0.86927587  1
  V  V26  1  0.37087394  0.36765306  0.50079401  1
  V  V27  1  0.37333750  0.49956519  0.37703934  1
  V  V28  1  0.73831732  0.62151246  0.38053056  1
  V  V29  1  0.00222931  0.87702354  0.38074961  1
  V  V30  1  0.37205910  0.25175660  0.63580783  1
  V  V31  1  -0.00012793  0.62322151  0.12714703  1
  V  V32  1  0.75666716  0.25173454  0.50007360  1
  V  V33  1  0.88400673  0.25022190  0.63159050  1
  V  V34  1  0.37426155  0.62364556  0.24975418  1
  V  V35  1  0.61929381  0.25081323  0.86515050  1
  V  V36  1  0.62325868  0.62484795  -0.00369499  1
  V  V37  1  0.62290255  0.74510811  0.87076139  1
  V  V38  1  0.38082768  0.24800728  0.13577720  1
  V  V39  1  0.75203379  0.50252643  0.24901746  1
  V  V40  1  0.74453566  0.75606877  -0.00291541  1
  V  V41  1  0.37463479  0.75041603  0.12533026  1
  V  V42  1  0.11252705  0.00276723  0.12657453  1
  V  V43  1  0.50417952  0.62249426  0.12225790  1
  V  V44  1  0.37593426  0.87639794  -0.00507742  1
  V  V45  1  0.37573898  0.11357884  0.75364788  1
  V  V46  1  0.00596520  0.75393880  0.76170977  1
  V  V47  1  0.25042886  0.87690640  0.12622228  1
  V  V48  1  0.75097461  0.87462763  0.62512771  1
  V  V49  1  0.10817421  0.37068364  0.75339338  1
  V  V50  1  0.87003615  0.88066151  0.00656950  1
  V  V51  1  0.74509364  -0.01361316  0.24434306  1
  V  V52  1  0.11288481  0.25028402  0.86971188  1
  V  V53  1  -0.03230423  0.52180694  -0.02173577  1
  V  V54  1  0.50839097  0.75756043  0.25121852  1
  V  V55  1  0.25873705  0.00724717  0.24900145  1
  V  V56  1  0.12971145  0.62611961  -0.01734286  1
  V  V57  1  0.12490639  0.11742214  0.49853051  1
  V  V58  1  0.12115909  0.50145725  0.11993991  1
  V  V59  1  0.13362314  -0.00907344  0.62870588  1
  V  V60  1  0.62307996  0.24977044  0.37263920  1
  V  V61  1  0.12182426  0.37365511  0.24892727  1
  V  V62  1  0.86409137  0.75263726  0.12835144  1
  V  V63  1  0.62495226  0.00132701  0.62481037  1
  V  V64  1  0.62556673  0.75811425  0.38172408  1
  V  V65  1  0.00019678  0.74921874  0.25252015  1
  V  V66  1  0.12669409  0.87647437  0.25081628  1
  V  V67  1  0.24605769  0.37161687  0.62441763  1
  V  V68  1  0.87451351  -0.00688322  0.87485202  1
  V  V69  1  0.12827307  0.74974701  0.37727203  1
  V  V70  1  0.04245655  -0.05647406  -0.05520896  1
  V  V71  1  0.75068370  0.37917742  0.62831431  1
  V  V72  1  0.49450623  0.37734836  0.86539478  1
  V  V73  1  0.48816826  0.75215703  0.74448829  1
  V  V74  1  0.25435212  0.75556567  0.51259929  1
  V  V75  1  0.25083878  0.24840256  -0.00373912  1
  V  V76  1  0.87273794  0.62406258  0.25197908  1
  V  V77  1  0.87501730  0.12131864  0.24101872  1
  V  V78  1  0.50240712  0.13612843  0.62913997  1
  V  V79  1  0.12106204  0.62046813  0.50116069  1
  V  V80  1  0.75410061  0.12317629  0.37470471  1
  V  V81  1  0.62493067  0.87551460  0.74940782  1
  V  V82  1  0.11351925  0.12560457  0.00155836  1
  V  V83  1  0.49352465  0.00480261  0.00168669  1
  V  V84  1  0.50780293  0.50229658  0.50023486  1
  Zn  Zn85  1  0.26882883  0.87612696  0.65139835  1
  Zn  Zn86  1  0.62317022  -0.01508823  0.12555851  1
  Zn  Zn87  1  0.24275079  0.50001666  0.75552342  1
  Zn  Zn88  1  0.48871880  0.12259585  0.14296430  1
  Zn  Zn89  1  0.37755025  0.37745077  -0.00096609  1
  Zn  Zn90  1  0.25125616  0.62476490  0.37927599  1
  Zn  Zn91  1  0.50022840  0.88306012  0.37409832  1
  Zn  Zn92  1  0.23986341  0.74801209  -0.00650680  1
  Zn  Zn93  1  0.49636696  0.00242032  0.49598075  1
  Zn  Zn94  1  0.36123997  0.50577618  0.88234826  1
  Zn  Zn95  1  0.62421718  0.37828071  0.74568696  1
  Zn  Zn96  1  0.37901938  0.87970630  0.50278396  1
  Zn  Zn97  1  0.88152753  0.37793892  0.50319080  1
  Zn  Zn98  1  0.63050564  0.50423186  0.62459527  1
  Zn  Zn99  1  0.37739910  -0.00036806  0.37535617  1
  Zn  Zn100  1  0.87984368  0.24408618  0.12291019  1
  Zn  Zn101  1  0.24705735  0.50086238  0.24992796  1
  Zn  Zn102  1  0.88357169  0.12505199  0.75406066  1
  Zn  Zn103  1  0.12518335  0.87619485  0.76792041  1
  Zn  Zn104  1  0.75361076  -0.00057703  0.74932088  1
  Zn  Zn105  1  0.49794411  0.50041367  -0.00524876  1
  Zn  Zn106  1  0.74744151  0.74302445  0.50587722  1
  Zn  Zn107  1  0.18761817  0.18644831  0.18670606  1
  Zn  Zn108  1  0.18887042  0.18908651  0.68539386  1
  Zn  Zn109  1  0.19047808  0.68743846  0.18648435  1
  Zn  Zn110  1  0.18380101  0.68843832  0.69061866  1
  Zn  Zn111  1  0.66077933  0.17026055  0.20206623  1
  Zn  Zn112  1  0.69414718  0.18907853  0.68764182  1
  Zn  Zn113  1  0.68422728  0.81183567  0.19115917  1
  Zn  Zn114  1  0.68425707  0.68672302  0.68797316  1
  Zn  Zn115  1  0.30872458  0.31251465  0.31005784  1
  Zn  Zn116  1  0.30569142  0.31533098  0.81096603  1
  Zn  Zn117  1  0.31416174  0.81515624  0.31620583  1
  Zn  Zn118  1  0.30185023  0.80420979  0.81899159  1
  Zn  Zn119  1  0.81381008  0.31280737  0.31013501  1
  Zn  Zn120  1  0.80893337  0.30883667  0.80931892  1
  Zn  Zn121  1  0.81469678  0.80887296  0.32122325  1
  Zn  Zn122  1  0.81179644  0.81068633  0.81346455  1
  Zn  Zn123  1  0.18792592  0.43713127  0.43954319  1
  Zn  Zn124  1  0.18010003  0.43989880  0.93576107  1
  Zn  Zn125  1  0.19136275  0.94105934  0.43962692  1
  Zn  Zn126  1  0.20720904  0.94072344  0.93567036  1
  Zn  Zn127  1  0.69059257  0.43547544  0.43935520  1
  Zn  Zn128  1  0.68608769  0.43569630  0.93503203  1
  Zn  Zn129  1  0.69138970  0.93672954  0.43973380  1
  Zn  Zn130  1  0.68401374  0.93582970  0.93872857  1
  Zn  Zn131  1  0.30938924  0.06626701  0.06313453  1
  Zn  Zn132  1  0.31032172  0.06410003  0.56100747  1
  Zn  Zn133  1  0.31142260  0.55961453  0.06123496  1
  Zn  Zn134  1  0.31089161  0.56236922  0.56574970  1
  Zn  Zn135  1  0.80845216  0.06030222  0.06305425  1
  Zn  Zn136  1  0.81452518  0.06147326  0.56258557  1
  Zn  Zn137  1  0.81136486  0.56662659  0.04650920  1
  Zn  Zn138  1  0.81523545  0.56248507  0.56254945  1
  Zn  Zn139  1  0.43543885  0.43550821  0.18694679  1
  Zn  Zn140  1  0.44007417  0.43927101  0.68478925  1
  Zn  Zn141  1  0.43977461  0.93774980  0.18591131  1
  Zn  Zn142  1  0.43921395  0.94049490  0.67827091  1
  Zn  Zn143  1  0.93645926  0.43619929  0.18769865  1
  Zn  Zn144  1  0.93046442  0.44218180  0.69072549  1
  Zn  Zn145  1  0.93531015  0.93491478  0.19163237  1
  Zn  Zn146  1  0.94426502  0.93733298  0.69123640  1
  Zn  Zn147  1  0.06299821  0.06276697  0.31136062  1
  Zn  Zn148  1  0.06743537  0.07019176  0.80465509  1
  Zn  Zn149  1  0.06346662  0.56131563  0.31236803  1
  Zn  Zn150  1  0.05905634  0.56021697  0.80773215  1
  Zn  Zn151  1  0.56074362  0.06481843  0.31033661  1
  Zn  Zn152  1  0.55976877  0.06437757  0.80979983  1
  Zn  Zn153  1  0.56089158  0.56400133  0.31037161  1
  Zn  Zn154  1  0.56273214  0.56054090  0.80607204  1
  Zn  Zn155  1  0.43979452  0.18816034  0.44141108  1
  Zn  Zn156  1  0.43667470  0.19369651  0.93646568  1
  Zn  Zn157  1  0.43764346  0.68909723  0.43695320  1
  Zn  Zn158  1  0.41202214  0.70022671  0.92130843  1
  Zn  Zn159  1  0.94222058  0.18654578  0.43826615  1
  Zn  Zn160  1  0.93482599  0.18314561  0.93759590  1
  Zn  Zn161  1  0.93764452  0.68772160  0.44425237  1
  Zn  Zn162  1  0.93481954  0.69173986  0.94305195  1
  Zn  Zn163  1  0.06115300  0.31128107  0.05885312  1
  Zn  Zn164  1  0.06210365  0.30794070  0.56134345  1
  Zn  Zn165  1  0.06359414  0.80443547  0.06710281  1
  Zn  Zn166  1  0.06170782  0.80914805  0.56508664  1
  Zn  Zn167  1  0.56116598  0.31486484  0.05562287  1
  Zn  Zn168  1  0.56350372  0.31505695  0.55956678  1
  Zn  Zn169  1  0.55489692  0.81039387  0.05864560  1
  Zn  Zn170  1  0.55975420  0.81506146  0.55833325  1
  O  O171  1  0.13327060  0.11398324  0.11292068  1
  O  O172  1  0.11945267  0.11889177  0.61884545  1
  O  O173  1  0.11571885  0.61535214  0.13210237  1
  O  O174  1  0.11902808  0.61570758  0.62102592  1
  O  O175  1  0.63792009  0.11593682  0.10285759  1
  O  O176  1  0.62107684  0.12278907  0.62402725  1
  O  O177  1  0.61244499  0.61816267  0.11819666  1
  O  O178  1  0.61111121  0.62339000  0.62299950  1
  O  O179  1  0.37892553  0.37835465  0.38012959  1
  O  O180  1  0.38636814  0.37342534  0.87237927  1
  O  O181  1  0.37884116  0.87812631  0.38094114  1
  O  O182  1  0.38253229  0.87663651  0.88881499  1
  O  O183  1  0.88324930  0.38305403  0.37390331  1
  O  O184  1  0.87387971  0.36791571  0.88317385  1
  O  O185  1  0.88076357  0.87920973  0.38516053  1
  O  O186  1  0.87116573  0.88652971  0.88463133  1
  O  O187  1  0.24905578  0.01101453  0.36559831  1
  O  O188  1  0.25519373  0.01984683  0.87497788  1
  O  O189  1  0.26129699  0.50041051  0.37305364  1
  O  O190  1  0.25013775  0.49207094  0.86837921  1
  O  O191  1  0.76120318  0.00081878  0.36754341  1
  O  O192  1  0.75602163  0.00592286  0.87567593  1
  O  O193  1  0.75628521  0.50464183  0.37051262  1
  O  O194  1  0.74837124  0.50635028  0.87150029  1
  O  O195  1  0.23882106  0.49133884  0.12574864  1
  O  O196  1  0.23499457  0.49326396  0.62765453  1
  O  O197  1  0.24263080  0.99559612  0.13100410  1
  O  O198  1  0.23646131  0.99883552  0.62533562  1
  O  O199  1  0.74662124  0.49385818  0.12655487  1
  O  O200  1  0.74848467  0.48947967  0.61789261  1
  O  O201  1  0.75018858  0.99772943  0.14112272  1
  O  O202  1  0.74086705  0.99700404  0.62742463  1
  O  O203  1  0.00404643  0.36771603  0.25824412  1
  O  O204  1  0.01001879  0.37321991  0.74182044  1
  O  O205  1  0.00584091  0.86673406  0.25856407  1
  O  O206  1  0.00633012  0.85955352  0.74923131  1
  O  O207  1  0.50559074  0.37994447  0.26302916  1
  O  O208  1  0.50483609  0.37750755  0.75958519  1
  O  O209  1  0.49497565  0.86029892  0.25192809  1
  O  O210  1  0.50313477  0.87059130  0.75334397  1
  O  O211  1  0.55076404  0.14250115  0.23370809  1
  O  O212  1  0.48807253  0.12765776  0.74341704  1
  O  O213  1  0.48977313  0.63061765  0.24363543  1
  O  O214  1  0.49822541  0.63164487  0.73469354  1
  O  O215  1  0.98906892  0.13208195  0.25547850  1
  O  O216  1  1.00100015  0.12746954  0.73065664  1
  O  O217  1  0.99363049  0.62952543  0.24497418  1
  O  O218  1  1.00208320  0.63340864  0.73846598  1
  O  O219  1  0.36037543  0.25466721  0.00358820  1
  O  O220  1  0.38109118  0.26420025  0.50891087  1
  O  O221  1  0.39755967  0.76294849  0.02046028  1
  O  O222  1  0.35483757  0.74434919  0.49429767  1
  O  O223  1  0.86792438  0.25517814  0.00266040  1
  O  O224  1  0.86954145  0.25026453  0.50621180  1
  O  O225  1  0.86457571  0.76050446  0.00717103  1
  O  O226  1  0.87359299  0.75805177  0.51300888  1
  O  O227  1  0.12215290  0.24280454  0.48582738  1
  O  O228  1  0.13248049  0.24358654  0.99467313  1
  O  O229  1  0.13207222  0.74394156  0.49376618  1
  O  O230  1  0.12409214  0.73233280  1.00178375  1
  O  O231  1  0.63566483  0.24760473  0.49165752  1
  O  O232  1  0.63021409  0.24224883  0.99120156  1
  O  O233  1  0.62740477  0.74865065  0.48614884  1
  O  O234  1  0.62679145  0.74676114  0.99052568  1
  O  O235  1  0.48244360  0.25356571  0.11552654  1
  O  O236  1  0.49496020  0.24143616  0.62049838  1
  O  O237  1  0.49735410  0.73873482  0.13577155  1
  O  O238  1  0.50555272  0.74006443  0.62887947  1
  O  O239  1  0.99986952  0.25475641  0.14005038  1
  O  O240  1  0.99173322  0.23747656  0.61759805  1
  O  O241  1  0.99116410  0.73843520  0.13160394  1
  O  O242  1  0.99416720  0.74263591  0.63406483  1
  O  O243  1  0.00679661  0.25554911  0.36482992  1
  O  O244  1  0.01358650  0.24087804  0.87712463  1
  O  O245  1  0.01050471  0.75389600  0.37327812  1
  O  O246  1  -0.01282164  0.74330414  0.85944588  1
  O  O247  1  0.51143289  0.25899853  0.38126922  1
  O  O248  1  0.50837928  0.26284183  0.87794496  1
  O  O249  1  0.51293044  0.74576876  0.36888088  1
  O  O250  1  0.50262537  0.76326277  0.86490175  1
  O  O251  1  0.23648099  0.12440882  0.48975116  1
  O  O252  1  0.24347822  0.13268946  0.99137964  1
  O  O253  1  0.23854376  0.63348927  0.50161095  1
  O  O254  1  0.23017634  0.62179565  1.00981556  1
  O  O255  1  0.74746139  0.13280702  0.49579588  1
  O  O256  1  0.74616223  0.12940780  0.98920655  1
  O  O257  1  0.75770587  0.62595690  0.48462902  1
  O  O258  1  0.73036422  0.64164185  1.00805447  1
  O  O259  1  0.24347550  0.36741271  0.01071017  1
  O  O260  1  0.25818377  0.38037082  0.51183255  1
  O  O261  1  0.26060192  0.87116341  0.00725476  1
  O  O262  1  0.24771448  0.85915434  0.49777370  1
  O  O263  1  0.75619933  0.36587278  0.00385155  1
  O  O264  1  0.75516913  0.36659357  0.50716598  1
  O  O265  1  0.75462930  0.86549864  0.00045519  1
  O  O266  1  0.76159307  0.87095094  0.50792801  1
  O  O267  1  0.12342481  0.49232866  0.23893440  1
  O  O268  1  0.12192025  0.48633705  0.74174935  1
  O  O269  1  0.13198178  0.99503293  0.24333873  1
  O  O270  1  0.11829722  0.99650202  0.73287592  1
  O  O271  1  0.63156683  0.49529804  0.24413330  1
  O  O272  1  0.64383204  0.50006053  0.74712878  1
  O  O273  1  0.64358154  0.99600060  0.25252397  1
  O  O274  1  0.62663406  0.99437199  0.74242953  1
  O  O275  1  0.36206992  -0.00052824  0.24786857  1
  O  O276  1  0.37897899  0.01535919  0.74737593  1
  O  O277  1  0.37378368  0.50650291  0.25763801  1
  O  O278  1  0.36986333  0.50818559  0.74401332  1
  O  O279  1  0.86770592  0.00406767  0.25721826  1
  O  O280  1  0.87491181  0.00141163  0.76035669  1
  O  O281  1  0.87043777  0.50423568  0.25794961  1
  O  O282  1  0.85075488  0.49827580  0.74714463  1
  O  O283  1  0.12074456  0.36845434  0.37019980  1
  O  O284  1  0.12313868  0.36681180  0.86017909  1
  O  O285  1  0.12142468  0.86921294  0.37212588  1
  O  O286  1  0.11403950  0.89056018  0.88890307  1
  O  O287  1  0.61743423  0.37044150  0.37238196  1
  O  O288  1  0.61777797  0.36592147  0.87180604  1
  O  O289  1  0.62786776  0.86110182  0.37589922  1
  O  O290  1  0.61608938  0.86699890  0.86976087  1
  O  O291  1  0.37371468  0.14190914  0.12332958  1
  O  O292  1  0.38110786  0.13286859  0.63314700  1
  O  O293  1  0.38074950  0.63103194  0.12976982  1
  O  O294  1  0.38954879  0.61953546  0.63365928  1
  O  O295  1  0.87044184  0.12480558  0.13705028  1
  O  O296  1  0.88781696  0.12786982  0.62284068  1
  O  O297  1  0.87996972  0.63198242  0.13039729  1
  O  O298  1  0.88505786  0.63400550  0.61882768  1
  O  O299  1  0.25461565  0.25611268  0.11825074  1
  O  O300  1  0.25879889  0.25791725  0.62248828  1
  O  O301  1  0.26002871  0.75569349  0.12099174  1
  O  O302  1  0.24197834  0.75407376  0.61433912  1
  O  O303  1  0.74624364  0.25463064  0.11159454  1
  O  O304  1  0.75822269  0.25363949  0.61429528  1
  O  O305  1  0.76015166  0.75104473  0.12175178  1
  O  O306  1  0.75678847  0.75485283  0.62572521  1
  O  O307  1  0.23842677  0.24271758  0.36741201  1
  O  O308  1  0.24100151  0.24603547  0.88168576  1
  O  O309  1  0.23704827  0.74659782  0.37667660  1
  O  O310  1  0.30101080  0.73357870  0.90180147  1
  O  O311  1  0.74950747  0.24725278  0.38585119  1
  O  O312  1  0.74367318  0.24252992  0.88470583  1
  O  O313  1  0.73879911  0.74110706  0.37598999  1
  O  O314  1  0.73689159  0.75488594  0.88391717  1
  O  O315  1  0.01376239  0.12963879  0.00187807  1
  O  O316  1  0.01331033  0.12762684  0.50895956  1
  O  O317  1  0.01580388  0.62523211  0.01131859  1
  O  O318  1  0.01396911  0.63290594  0.51280535  1
  O  O319  1  0.50445443  0.11927346  -0.00184305  1
  O  O320  1  0.51069125  0.12617821  0.51018274  1
  O  O321  1  0.50878826  0.62662053  0.00803511  1
  O  O322  1  0.49211300  0.61814233  0.51059275  1
  O  O323  1  0.49289660  0.38273344  0.48975051  1
  O  O324  1  0.49878469  0.37890208  0.98465024  1
  O  O325  1  0.50086430  0.88272523  0.49343591  1
  O  O326  1  0.49486152  0.88515296  0.99088214  1
  O  O327  1  1.00051560  0.36898954  0.48379584  1
  O  O328  1  0.98578329  0.37397326  0.99873193  1
  O  O329  1  0.98845435  0.86923133  0.49624419  1
  O  O330  1  0.99150237  0.87225723  1.00269196  1
  O  O331  1  0.48980600  0.49546013  0.37945849  1
  O  O332  1  0.50388689  0.48492658  0.87312425  1
  O  O333  1  0.49770293  1.00243029  0.37367361  1
  O  O334  1  0.50270939  0.98979718  0.87943410  1
  O  O335  1  0.99208944  0.49000577  0.36743841  1
  O  O336  1  0.99919203  0.50061012  0.88632830  1
  O  O337  1  0.98795228  0.99256495  0.36861401  1
  O  O338  1  0.99319574  1.00777988  0.87652422  1
  O  O339  1  0.01298453  -0.00369278  0.13273113  1
  O  O340  1  0.00618858  0.01206883  0.62221705  1
  O  O341  1  -0.00146363  0.51105248  0.11858041  1
  O  O342  1  0.00813190  0.50686424  0.62907271  1
  O  O343  1  0.50299389  0.00646588  0.11761520  1
  O  O344  1  0.51428023  0.01450851  0.62505562  1
  O  O345  1  0.50482567  0.50718429  0.12510826  1
  O  O346  1  0.50532813  0.50814407  0.61607258  1
  O  O347  1  0.24047358  0.37563748  0.23747932  1
  O  O348  1  0.23998806  0.37472543  0.73497464  1
  O  O349  1  0.24358406  0.88183045  0.24539936  1
  O  O350  1  0.23765320  0.86717774  0.75889834  1
  O  O351  1  0.74652624  0.38359453  0.24259182  1
  O  O352  1  0.74698942  0.37005381  0.73487805  1
  O  O353  1  0.75748711  0.88225712  0.25287999  1
  O  O354  1  0.74273898  0.87596153  0.74303140  1
  O  O355  1  0.24168173  0.11650078  0.26059943  1
  O  O356  1  0.26450864  0.13227659  0.75492368  1
  O  O357  1  0.26339774  0.62320787  0.25076505  1
  O  O358  1  0.26684933  0.62619265  0.74137343  1
  O  O359  1  0.75637039  0.11431746  0.25777303  1
  O  O360  1  0.75228726  0.12272383  0.76364054  1
  O  O361  1  0.76026014  0.61603043  0.26425779  1
  O  O362  1  0.74975270  0.62370811  0.75705604  1
  O  O363  1  0.36177702  0.13200885  0.37845025  1
  O  O364  1  0.37037055  0.13547122  0.85997992  1
  O  O365  1  0.37488438  0.61655441  0.36733605  1
  O  O366  1  0.39772400  0.61264858  0.84796343  1
  O  O367  1  0.87238813  0.11620998  0.37046644  1
  O  O368  1  0.86697479  0.11344071  0.87659360  1
  O  O369  1  0.87545154  0.61903337  0.37082473  1
  O  O370  1  0.88542223  0.59188801  0.95426409  1
  O  O371  1  0.12703308  0.38293536  0.12633585  1
  O  O372  1  0.12736096  0.37756501  0.62798181  1
  O  O373  1  0.13041288  0.87985915  0.12949441  1
  O  O374  1  0.12345943  0.88860336  0.62058317  1
  O  O375  1  0.63460238  0.37857177  0.12684685  1
  O  O376  1  0.63448505  0.37723470  0.62431797  1
  O  O377  1  0.62078049  0.87182259  0.12305548  1
  O  O378  1  0.62957580  0.88413663  0.62776467  1
  O  O379  1  0.11758015  0.25339636  0.25659149  1
  O  O380  1  0.12695648  0.26127128  0.75485795  1
  O  O381  1  0.12092565  0.75418145  0.25691376  1
  O  O382  1  0.11028874  0.74859284  0.75421958  1
  O  O383  1  0.64547304  0.26476022  0.26873364  1
  O  O384  1  0.63025309  0.24863450  0.76294137  1
  O  O385  1  0.61780756  0.74746802  0.26283588  1
  O  O386  1  0.61506788  0.75584652  0.75528808  1
  O  O387  1  0.37420210  0.25534856  0.23471940  1
  O  O388  1  0.37397288  0.24984795  0.73789764  1
  O  O389  1  0.38015710  0.74309138  0.24179616  1
  O  O390  1  0.38649472  0.73971267  0.74898468  1
  O  O391  1  0.88103149  0.23795478  0.25116073  1
  O  O392  1  0.86857717  0.24299925  0.73531023  1
  O  O393  1  0.87948266  0.74511584  0.24571713  1
  O  O394  1  0.88239519  0.75662557  0.73860514  1
  O  O395  1  0.38095881  0.49144861  0.49364386  1
  O  O396  1  0.37929423  0.49652426  0.99784559  1
  O  O397  1  0.37702696  1.00355845  0.49518399  1
  O  O398  1  0.38499442  0.99316001  1.00754316  1
  O  O399  1  0.87596302  0.49774571  0.48573193  1
  O  O400  1  0.87336603  0.46719449  1.01707829  1
  O  O401  1  0.87138901  0.99078380  0.49071175  1
  O  O402  1  0.87128069  0.98785776  0.99794239  1
  O  O403  1  0.11843134  0.00250838  0.00365619  1
  O  O404  1  0.12600500  0.00773560  0.51061428  1
  O  O405  1  0.11374092  0.50830590  0.00857827  1
  O  O406  1  0.12600669  0.50850617  0.50683385  1
  O  O407  1  0.61127139  0.00537288  -0.00304927  1
  O  O408  1  0.62947912  0.00934668  0.50860035  1
  O  O409  1  0.62460385  0.50936799  0.00458553  1
  O  O410  1  0.61032288  0.49693002  0.49526152  1
  O  O411  1  0.36416640  0.36774086  0.12284651  1
  O  O412  1  0.36873674  0.37061639  0.61966212  1
  O  O413  1  0.37064274  0.86911992  0.12005143  1
  O  O414  1  0.37510515  0.87522636  0.61798621  1
  O  O415  1  0.86124524  0.36473402  0.13176376  1
  O  O416  1  0.87131686  0.36628310  0.62197011  1
  O  O417  1  0.88084648  0.86474572  0.11857057  1
  O  O418  1  0.87224991  0.87197310  0.62109440  1
  O  O419  1  0.12791814  0.13034873  0.38157557  1
  O  O420  1  0.13353855  0.13077390  0.87879021  1
  O  O421  1  0.12499075  0.63097799  0.38277181  1
  O  O422  1  0.12504679  0.62016593  0.88422616  1
  O  O423  1  0.63523266  0.13428164  0.38244447  1
  O  O424  1  0.62978574  0.12942711  0.88127996  1
  O  O425  1  0.63335732  0.63092723  0.37070956  1
  O  O426  1  0.61223597  0.63825479  0.88078535  1
