# generated using pymatgen
data_V85Zn86O256
_symmetry_space_group_name_H-M   'P 1'
_cell_length_a   16.92715041
_cell_length_b   16.92585630
_cell_length_c   16.92711752
_cell_angle_alpha   90.04670705
_cell_angle_beta   89.95950045
_cell_angle_gamma   89.96588668
_symmetry_Int_Tables_number   1
_chemical_formula_structural   V85Zn86O256
_chemical_formula_sum   'V85 Zn86 O256'
_cell_volume   4849.72577303
_cell_formula_units_Z   1
loop_
 _symmetry_equiv_pos_site_id
 _symmetry_equiv_pos_as_xyz
  1  'x, y, z'
loop_
 _atom_site_type_symbol
 _atom_site_label
 _atom_site_symmetry_multiplicity
 _atom_site_fract_x
 _atom_site_fract_y
 _atom_site_fract_z
 _atom_site_occupancy
  V  V0  1  0.86169440  0.12441695  0.25710092  1
  V  V1  1  0.61820935  0.37940000  0.24368726  1
  V  V2  1  0.49868549  0.36458264  0.37556604  1
  V  V3  1  0.12114414  0.87577053  0.24891329  1
  V  V4  1  0.49895611  -0.00170556  0.50176681  1
  V  V5  1  0.74752851  0.25107543  0.00244367  1
  V  V6  1  0.62192877  0.48626435  0.62618032  1
  V  V7  1  0.75376406  0.74920261  0.49756976  1
  V  V8  1  0.87108531  0.25227538  0.62611002  1
  V  V9  1  0.00374357  0.75024814  0.24871611  1
  V  V10  1  0.88769948  -0.00568085  0.37967080  1
  V  V11  1  0.24431902  0.24652771  0.50498587  1
  V  V12  1  0.62835068  0.12307502  0.49277950  1
  V  V13  1  0.12802078  0.49920043  0.63226635  1
  V  V14  1  0.62757065  0.25591997  0.86876082  1
  V  V15  1  0.24922512  0.87238701  0.62679197  1
  V  V16  1  0.12139186  0.00353750  0.61439047  1
  V  V17  1  0.86862962  0.62514432  0.75203129  1
  V  V18  1  -0.00052559  0.12499130  0.12606034  1
  V  V19  1  0.00254444  0.12477969  0.61295597  1
  V  V20  1  0.49721537  0.12555622  0.62989895  1
  V  V21  1  0.24938470  0.37833011  0.63114001  1
  V  V22  1  0.25767178  0.37541381  0.11950006  1
  V  V23  1  0.12637325  0.37412421  0.25093779  1
  V  V24  1  0.75556275  0.88031248  0.62850351  1
  V  V25  1  0.00199166  0.25150486  0.76305337  1
  V  V26  1  0.54788561  0.69023793  0.18937883  1
  V  V27  1  0.36919833  0.49510387  0.86850962  1
  V  V28  1  0.24913014  0.75602866  0.49504051  1
  V  V29  1  0.50256003  0.25569913  0.74948820  1
  V  V30  1  0.74410547  0.48373230  0.74655988  1
  V  V31  1  0.06535514  0.80885643  0.41890463  1
  V  V32  1  0.12665631  0.63336900  -0.00676244  1
  V  V33  1  0.49961153  0.37647373  0.88140375  1
  V  V34  1  0.87676994  -0.00754764  0.86895355  1
  V  V35  1  0.62216982  0.87204500  0.75067879  1
  V  V36  1  0.00050941  0.37348161  0.37706442  1
  V  V37  1  0.74825527  0.39189363  0.12892634  1
  V  V38  1  0.49921321  0.50784803  0.00747604  1
  V  V39  1  0.24838272  0.63125729  0.86437720  1
  V  V40  1  0.37411321  0.49809870  0.37695821  1
  V  V41  1  0.38083270  0.24997231  0.12703599  1
  V  V42  1  0.87283832  0.12000991  0.74739408  1
  V  V43  1  0.25174467  0.87743371  0.12233560  1
  V  V44  1  0.37855333  0.01459586  0.86950467  1
  V  V45  1  0.87577806  0.49193645  0.87310191  1
  V  V46  1  0.38187377  0.63753355  0.74406043  1
  V  V47  1  0.37553560  -0.00416251  0.38007373  1
  V  V48  1  0.24906072  0.50105733  0.24951900  1
  V  V49  1  0.87221027  0.25051056  0.12601484  1
  V  V50  1  0.86646859  0.49718465  0.36882310  1
  V  V51  1  0.41862514  0.81585062  0.55879827  1
  V  V52  1  0.74919514  0.11876194  0.87212408  1
  V  V53  1  -0.00002194  -0.00418464  -0.00562658  1
  V  V54  1  0.37169644  0.74331303  0.12636181  1
  V  V55  1  0.12535069  0.24713055  0.38034340  1
  V  V56  1  -0.00112301  0.49761398  0.50259024  1
  V  V57  1  0.49457304  0.86900973  0.36506772  1
  V  V58  1  0.87253278  0.75665505  0.12337360  1
  V  V59  1  0.24773189  0.12571540  0.37940945  1
  V  V60  1  0.61653114  0.74225558  0.87109088  1
  V  V61  1  0.37648864  0.87722054  -0.00505507  1
  V  V62  1  0.86763836  0.37595214  0.50556672  1
  V  V63  1  0.12655492  0.50008915  0.12324020  1
  V  V64  1  0.12519975  0.00312092  0.12295231  1
  V  V65  1  0.00170503  0.49173662  -0.00651880  1
  V  V66  1  0.50602501  0.12297390  0.13056619  1
  V  V67  1  0.12464455  0.62521606  0.50056485  1
  V  V68  1  0.86789083  0.87676393  0.00065848  1
  V  V69  1  -0.00037177  0.62371923  0.62980718  1
  V  V70  1  0.37219360  0.24603582  0.63223433  1
  V  V71  1  0.12215610  0.37424601  0.76293106  1
  V  V72  1  0.87439948  0.75070287  0.62800588  1
  V  V73  1  0.12230631  0.87702948  0.76468644  1
  V  V74  1  0.74984531  0.24685946  0.49278350  1
  V  V75  1  0.74774510  -0.01535223  0.25308624  1
  V  V76  1  0.63318583  0.00520925  0.63222388  1
  V  V77  1  0.24180654  0.13199491  0.86728707  1
  V  V78  1  0.25256609  0.00309778  0.24928497  1
  V  V79  1  0.24401408  0.62929578  0.37226911  1
  V  V80  1  0.00239750  0.75262762  0.76683714  1
  V  V81  1  0.24835197  0.25166351  -0.00242043  1
  V  V82  1  0.62088687  0.74672398  0.37625599  1
  V  V83  1  -0.00033522  0.24774383  0.25107643  1
  V  V84  1  0.00051342  0.62428394  0.12184635  1
  Zn  Zn85  1  0.62236214  0.62262123  0.50589213  1
  Zn  Zn86  1  0.62348244  0.62214505  0.00920152  1
  Zn  Zn87  1  0.25058816  0.00500480  0.74711929  1
  Zn  Zn88  1  0.62334576  0.24544170  0.36833701  1
  Zn  Zn89  1  0.38067026  0.13103687  0.25454522  1
  Zn  Zn90  1  0.12002346  0.13116480  -0.00686568  1
  Zn  Zn91  1  0.62356146  0.12392999  -0.00137004  1
  Zn  Zn92  1  0.88961285  0.87674915  0.49788084  1
  Zn  Zn93  1  0.49878838  0.49973520  0.50356040  1
  Zn  Zn94  1  0.74656762  0.62332251  0.87931125  1
  Zn  Zn95  1  0.49531381  0.87349289  0.86707943  1
  Zn  Zn96  1  0.74492644  0.61888518  0.37246675  1
  Zn  Zn97  1  0.24658267  0.75383506  -0.00660040  1
  Zn  Zn98  1  0.50439068  0.00261927  -0.00213931  1
  Zn  Zn99  1  0.74395590  0.75083299  -0.00076293  1
  Zn  Zn100  1  0.87766586  0.37269510  -0.00266304  1
  Zn  Zn101  1  0.50053288  0.63502025  0.62479419  1
  Zn  Zn102  1  0.37604262  0.62828687  0.24790160  1
  Zn  Zn103  1  0.63921231  -0.01067644  0.11482426  1
  Zn  Zn104  1  0.62296827  0.86792656  0.24052534  1
  Zn  Zn105  1  0.37517946  0.37499624  0.50344174  1
  Zn  Zn106  1  0.87756384  0.61853249  0.24898385  1
  Zn  Zn107  1  0.19003786  0.18877737  0.18830082  1
  Zn  Zn108  1  0.18258216  0.18866193  0.69041510  1
  Zn  Zn109  1  0.18694623  0.69055462  0.18513881  1
  Zn  Zn110  1  0.18889408  0.69172338  0.69028063  1
  Zn  Zn111  1  0.68251599  0.19188250  0.18943102  1
  Zn  Zn112  1  0.68903246  0.19092234  0.68554114  1
  Zn  Zn113  1  0.71064724  0.67993607  0.18826697  1
  Zn  Zn114  1  0.68459646  0.68502027  0.68691567  1
  Zn  Zn115  1  0.31321957  0.31224367  0.31050565  1
  Zn  Zn116  1  0.31298182  0.31256203  0.81032134  1
  Zn  Zn117  1  0.31193775  0.81212063  0.31051234  1
  Zn  Zn118  1  0.31074406  0.81442148  0.81176989  1
  Zn  Zn119  1  0.80831873  0.31529938  0.31046184  1
  Zn  Zn120  1  0.81463172  0.30969165  0.81340351  1
  Zn  Zn121  1  0.81759586  0.81127733  0.31517619  1
  Zn  Zn122  1  0.80475122  0.81128425  0.81339262  1
  Zn  Zn123  1  0.18903005  0.43649884  0.44259605  1
  Zn  Zn124  1  0.19238472  0.44232642  0.93955268  1
  Zn  Zn125  1  0.19282275  0.94215748  0.44117489  1
  Zn  Zn126  1  0.19253181  0.94726529  0.93818482  1
  Zn  Zn127  1  0.68360856  0.43069409  0.44057600  1
  Zn  Zn128  1  0.68446954  0.43875028  0.93866374  1
  Zn  Zn129  1  0.69140166  0.93583782  0.43345307  1
  Zn  Zn130  1  0.68680730  0.93761477  0.93363785  1
  Zn  Zn131  1  0.31693213  0.06848903  0.05716114  1
  Zn  Zn132  1  0.31166993  0.06233228  0.56335112  1
  Zn  Zn133  1  0.31468265  0.56073406  0.05311274  1
  Zn  Zn134  1  0.31115529  0.56442354  0.56352468  1
  Zn  Zn135  1  0.81151915  0.06261593  0.06408984  1
  Zn  Zn136  1  0.81468770  0.06320262  0.55735519  1
  Zn  Zn137  1  0.81502589  0.56738428  0.05634662  1
  Zn  Zn138  1  0.80697157  0.56163059  0.56470600  1
  Zn  Zn139  1  0.43655792  0.43789566  0.19099165  1
  Zn  Zn140  1  0.43675616  0.43722723  0.69333815  1
  Zn  Zn141  1  0.43764998  0.94073760  0.18606053  1
  Zn  Zn142  1  0.44022741  0.94540721  0.69395620  1
  Zn  Zn143  1  0.93873451  0.43384010  0.18415358  1
  Zn  Zn144  1  0.93806680  0.43479312  0.69029341  1
  Zn  Zn145  1  0.93619208  0.93928890  0.18876894  1
  Zn  Zn146  1  0.94280316  0.93740304  0.68731932  1
  Zn  Zn147  1  0.06366795  0.06409868  0.31288624  1
  Zn  Zn148  1  0.06085430  0.06248822  0.80710334  1
  Zn  Zn149  1  0.06010288  0.56167405  0.31349808  1
  Zn  Zn150  1  0.06136789  0.56196553  0.81324390  1
  Zn  Zn151  1  0.56234158  0.05937939  0.31052120  1
  Zn  Zn152  1  0.56349106  0.06617127  0.81026412  1
  Zn  Zn153  1  0.56635413  0.55224368  0.31844613  1
  Zn  Zn154  1  0.55819416  0.56018497  0.80659129  1
  Zn  Zn155  1  0.43291989  0.18613659  0.44481928  1
  Zn  Zn156  1  0.43709996  0.19076731  0.94498022  1
  Zn  Zn157  1  0.43955647  0.67744729  0.43390864  1
  Zn  Zn158  1  0.43630798  0.68746382  0.93620416  1
  Zn  Zn159  1  0.93371576  0.18503095  0.43541146  1
  Zn  Zn160  1  0.93234209  0.18279633  0.93908156  1
  Zn  Zn161  1  0.93213515  0.68114545  0.44280076  1
  Zn  Zn162  1  0.93334402  0.68215705  0.93873554  1
  Zn  Zn163  1  0.06743087  0.31153980  0.06239666  1
  Zn  Zn164  1  0.05966814  0.31142764  0.56767935  1
  Zn  Zn165  1  0.05881286  0.81574362  0.05878319  1
  Zn  Zn166  1  0.06513860  0.80988789  0.58547260  1
  Zn  Zn167  1  0.56233461  0.31357255  0.06176905  1
  Zn  Zn168  1  0.56204177  0.31314667  0.55918048  1
  Zn  Zn169  1  0.56402493  0.81920208  0.05257486  1
  Zn  Zn170  1  0.57991680  0.81733311  0.55888217  1
  O  O171  1  0.11278608  0.12181602  0.12725234  1
  O  O172  1  0.11874563  0.11185356  0.63171393  1
  O  O173  1  0.11758167  0.62098525  0.11715309  1
  O  O174  1  0.12208499  0.61832845  0.62288892  1
  O  O175  1  0.61463320  0.12408484  0.12466917  1
  O  O176  1  0.62071472  0.12006854  0.61798649  1
  O  O177  1  0.61537851  0.63868862  0.13220115  1
  O  O178  1  0.62044492  0.61441702  0.62613063  1
  O  O179  1  0.37882821  0.38130836  0.37541544  1
  O  O180  1  0.37910755  0.38808065  0.86940462  1
  O  O181  1  0.38009002  0.88316306  0.37347241  1
  O  O182  1  0.37223432  0.88639277  0.87908760  1
  O  O183  1  0.87968294  0.38144423  0.38259763  1
  O  O184  1  0.87201723  0.38692784  0.87702333  1
  O  O185  1  0.87829163  0.88767420  0.37728251  1
  O  O186  1  0.87052518  0.88792846  0.87617987  1
  O  O187  1  0.25696847  0.00744560  0.37295109  1
  O  O188  1  0.25932371  0.01634977  0.87306726  1
  O  O189  1  0.25355420  0.50467981  0.37073607  1
  O  O190  1  0.26376887  0.51094316  0.87849069  1
  O  O191  1  0.76085109  -0.00339776  0.36110663  1
  O  O192  1  0.75799264  0.01297320  0.87532466  1
  O  O193  1  0.76429797  0.49516661  0.38314232  1
  O  O194  1  0.75337522  0.50042754  0.86226377  1
  O  O195  1  0.24793682  0.49394096  0.12645958  1
  O  O196  1  0.23974713  0.49094072  0.62132680  1
  O  O197  1  0.24809991  0.99399741  0.12672736  1
  O  O198  1  0.24142840  0.99293158  0.62598812  1
  O  O199  1  0.75549024  0.48981142  0.12081147  1
  O  O200  1  0.74081956  0.50163774  0.63878214  1
  O  O201  1  0.75402565  1.00689418  0.14612652  1
  O  O202  1  0.74450608  0.99328201  0.61846792  1
  O  O203  1  0.00630782  0.36710645  0.25489602  1
  O  O204  1  0.00521616  0.36022193  0.74836131  1
  O  O205  1  0.01321901  0.86945230  0.24541989  1
  O  O206  1  0.01282537  0.86799443  0.74972850  1
  O  O207  1  0.51014062  0.37655073  0.25565209  1
  O  O208  1  0.49646011  0.36237188  0.76155921  1
  O  O209  1  0.49965784  0.87849000  0.26261018  1
  O  O210  1  0.51680291  0.88003810  0.74759837  1
  O  O211  1  0.49923295  0.12297891  0.23728946  1
  O  O212  1  0.50477304  0.13609656  0.73711860  1
  O  O213  1  0.49816795  0.62227142  0.24795004  1
  O  O214  1  0.48629010  0.62846531  0.74630980  1
  O  O215  1  0.99290686  0.13011139  0.24349240  1
  O  O216  1  0.99235074  0.13532963  0.74328861  1
  O  O217  1  0.99944707  0.63153353  0.24085813  1
  O  O218  1  0.99027604  0.62970429  0.74770988  1
  O  O219  1  0.36131397  0.24751037  0.01395919  1
  O  O220  1  0.36320723  0.25248032  0.51357574  1
  O  O221  1  0.37170398  0.75966869  0.00527771  1
  O  O222  1  0.36548953  0.74896553  0.49624695  1
  O  O223  1  0.86478421  0.25248826  0.00394767  1
  O  O224  1  0.86982757  0.25506932  0.50586706  1
  O  O225  1  0.88034002  0.76038737  0.00539299  1
  O  O226  1  0.87014512  0.75399500  0.50664170  1
  O  O227  1  0.13610766  0.25519486  0.49771532  1
  O  O228  1  0.14018396  0.24708139  1.00382249  1
  O  O229  1  0.12624669  0.74912559  0.49377402  1
  O  O230  1  0.12319258  0.73698607  1.00252233  1
  O  O231  1  0.63367016  0.24176023  0.50084673  1
  O  O232  1  0.63556222  0.24816451  0.99224862  1
  O  O233  1  0.63547510  0.74633539  0.49099846  1
  O  O234  1  0.62298204  0.74667470  0.98460648  1
  O  O235  1  0.49240617  0.24028194  0.11951025  1
  O  O236  1  0.49330583  0.24698414  0.63040860  1
  O  O237  1  0.49153389  0.74883445  0.12496548  1
  O  O238  1  0.49047274  0.75985583  0.60968667  1
  O  O239  1  0.99409455  0.24452317  0.12913029  1
  O  O240  1  0.99070673  0.24201901  0.63248174  1
  O  O241  1  0.99669973  0.74286874  0.12952202  1
  O  O242  1  0.99171822  0.74131767  0.63774914  1
  O  O243  1  0.00509222  0.25390984  0.37171327  1
  O  O244  1  -0.00659206  0.24443362  0.86201194  1
  O  O245  1  -0.00001207  0.74251080  0.36719995  1
  O  O246  1  -0.00163421  0.74359725  0.86574898  1
  O  O247  1  0.49507106  0.26089340  0.38087960  1
  O  O248  1  0.50530451  0.25380208  0.86979612  1
  O  O249  1  0.50670004  0.75732119  0.38131682  1
  O  O250  1  0.51145947  0.75399092  0.87453969  1
  O  O251  1  0.25174389  0.13398863  0.49298427  1
  O  O252  1  0.24628748  0.13271480  0.98899462  1
  O  O253  1  0.24327580  0.63729315  0.49663081  1
  O  O254  1  0.24207227  0.62700353  0.98780354  1
  O  O255  1  0.74029375  0.13287465  0.50362088  1
  O  O256  1  0.75158159  0.13364356  0.99050547  1
  O  O257  1  0.75149775  0.63768267  0.49605405  1
  O  O258  1  0.74098039  0.62863911  0.99804027  1
  O  O259  1  0.24653404  0.36883987  0.00937470  1
  O  O260  1  0.25015266  0.36638539  0.51417437  1
  O  O261  1  0.25733495  0.87645700  0.00530162  1
  O  O262  1  0.24806217  0.86400006  0.50601291  1
  O  O263  1  0.74893220  0.36912578  0.01131440  1
  O  O264  1  0.76150136  0.36663045  0.50126578  1
  O  O265  1  0.76442204  0.87460592  -0.00458850  1
  O  O266  1  0.74958865  0.86443152  0.51026068  1
  O  O267  1  0.12874672  0.49521701  0.24309309  1
  O  O268  1  0.11588935  0.49190228  0.73845900  1
  O  O269  1  0.13078933  0.99420785  0.24338030  1
  O  O270  1  0.12649893  0.98953282  0.74363722  1
  O  O271  1  0.63048524  0.47968483  0.25717596  1
  O  O272  1  0.63682049  0.49923566  0.74338938  1
  O  O273  1  0.64106622  0.99713236  0.25424218  1
  O  O274  1  0.62593149  0.99769456  0.73715681  1
  O  O275  1  0.36906582  0.00214818  0.26216724  1
  O  O276  1  0.36962435  0.00063124  0.76490387  1
  O  O277  1  0.36683721  0.50336345  0.26000877  1
  O  O278  1  0.37787465  0.51074155  0.76385351  1
  O  O279  1  0.86808666  0.00531836  0.25709875  1
  O  O280  1  0.88234753  0.00901474  0.75553037  1
  O  O281  1  0.88377088  0.49393967  0.26662684  1
  O  O282  1  0.86707404  0.50467444  0.75327908  1
  O  O283  1  0.12107889  0.36904294  0.37196092  1
  O  O284  1  0.13111694  0.38476377  0.86186566  1
  O  O285  1  0.12861410  0.87724275  0.36678245  1
  O  O286  1  0.13219189  0.88133681  0.86349018  1
  O  O287  1  0.61468464  0.37081232  0.37005390  1
  O  O288  1  0.61855359  0.36277381  0.87652563  1
  O  O289  1  0.61700457  0.86160476  0.37102468  1
  O  O290  1  0.62459577  0.86740947  0.86547279  1
  O  O291  1  0.38462643  0.13206184  0.12787925  1
  O  O292  1  0.38441502  0.13233317  0.62156365  1
  O  O293  1  0.36372763  0.63920299  0.12313539  1
  O  O294  1  0.37337649  0.62090816  0.64056306  1
  O  O295  1  0.88442236  0.13010653  0.13276392  1
  O  O296  1  0.88231904  0.12816376  0.63088177  1
  O  O297  1  0.88892288  0.63238073  0.12237987  1
  O  O298  1  0.87889324  0.62857496  0.63334975  1
  O  O299  1  0.25433814  0.25735303  0.11885950  1
  O  O300  1  0.25375921  0.25231422  0.62214341  1
  O  O301  1  0.25309869  0.76391372  0.12072745  1
  O  O302  1  0.24335461  0.76428313  0.61596016  1
  O  O303  1  0.75511727  0.25112204  0.11628547  1
  O  O304  1  0.76520598  0.24510250  0.61699315  1
  O  O305  1  0.76851418  0.75061795  0.12030682  1
  O  O306  1  0.75622233  0.75621477  0.61920290  1
  O  O307  1  0.24767235  0.24459865  0.38433724  1
  O  O308  1  0.25851906  0.23900011  0.88124341  1
  O  O309  1  0.24981331  0.74193870  0.38086891  1
  O  O310  1  0.25095328  0.73553864  0.87563332  1
  O  O311  1  0.75102557  0.25321542  0.38918990  1
  O  O312  1  0.74525039  0.24446641  0.88025780  1
  O  O313  1  0.74308918  0.75214011  0.38226363  1
  O  O314  1  0.73626830  0.74628706  0.87704863  1
  O  O315  1  -0.00099373  0.11747406  0.00883088  1
  O  O316  1  -0.00089004  0.13243865  0.51354375  1
  O  O317  1  0.00692712  0.61586115  0.00432470  1
  O  O318  1  0.00666322  0.61926278  0.50892144  1
  O  O319  1  0.50220443  0.12432287  0.01242685  1
  O  O320  1  0.50714357  0.12120591  0.51170229  1
  O  O321  1  0.50196444  0.61301304  -0.00342540  1
  O  O322  1  0.50102257  0.61709889  0.50674747  1
  O  O323  1  0.49508564  0.37930791  0.49201838  1
  O  O324  1  0.50092833  0.38019104  0.98696962  1
  O  O325  1  0.49164140  0.87745623  0.49957062  1
  O  O326  1  0.48554580  0.88086274  0.99248103  1
  O  O327  1  0.99025616  0.37693680  0.49627527  1
  O  O328  1  1.00076814  0.38800276  1.00766355  1
  O  O329  1  1.00977212  0.85852791  0.49335666  1
  O  O330  1  0.99317664  0.89003851  0.99933993  1
  O  O331  1  0.48882927  0.48948182  0.37721899  1
  O  O332  1  0.49188552  0.49252727  0.87572156  1
  O  O333  1  0.49462562  0.99064469  0.38157857  1
  O  O334  1  0.48857481  1.00275334  0.87306743  1
  O  O335  1  0.99472365  0.49141667  0.38377791  1
  O  O336  1  0.99102831  0.50315216  0.88280704  1
  O  O337  1  0.98733737  1.00057002  0.36846955  1
  O  O338  1  0.98974118  1.01033214  0.88334385  1
  O  O339  1  0.00316883  0.00862935  0.11926877  1
  O  O340  1  0.01274337  0.00767472  0.62704015  1
  O  O341  1  0.00459277  0.50763963  0.11941593  1
  O  O342  1  0.00494222  0.50449508  0.62122179  1
  O  O343  1  0.49777033  0.01468264  0.12160552  1
  O  O344  1  0.50712397  0.00877318  0.62124748  1
  O  O345  1  0.48773062  0.49484276  0.10581438  1
  O  O346  1  0.51313804  0.49669734  0.62925758  1
  O  O347  1  0.24363216  0.38172325  0.24372489  1
  O  O348  1  0.23848707  0.36598158  0.73843656  1
  O  O349  1  0.24016678  0.88067268  0.24234216  1
  O  O350  1  0.23955580  0.87656973  0.74305462  1
  O  O351  1  0.74584768  0.37464861  0.23373602  1
  O  O352  1  0.75503988  0.38548431  0.74833521  1
  O  O353  1  0.74994151  0.88206670  0.25026838  1
  O  O354  1  0.74262326  0.87318181  0.73519188  1
  O  O355  1  0.25191094  0.11847532  0.25845696  1
  O  O356  1  0.24884938  0.12771764  0.76309766  1
  O  O357  1  0.24569355  0.61991375  0.25721367  1
  O  O358  1  0.25492635  0.62595439  0.75932115  1
  O  O359  1  0.76019807  0.12575498  0.24997013  1
  O  O360  1  0.76455982  0.13331306  0.75633733  1
  O  O361  1  0.76610179  0.62370107  0.26142706  1
  O  O362  1  0.76189159  0.61950274  0.75014037  1
  O  O363  1  0.36532608  0.12033147  0.37435057  1
  O  O364  1  0.36891618  0.11772833  0.87915236  1
  O  O365  1  0.36116887  0.61705483  0.37132800  1
  O  O366  1  0.36568121  0.62102413  0.86573255  1
  O  O367  1  0.87811289  0.11278019  0.36633428  1
  O  O368  1  0.86823139  0.11663052  0.86670041  1
  O  O369  1  0.87947891  0.60416442  0.37805194  1
  O  O370  1  0.87143756  0.61242080  0.86775281  1
  O  O371  1  0.13475945  0.38086717  0.13133469  1
  O  O372  1  0.12921279  0.38186470  0.63227620  1
  O  O373  1  0.13189033  0.88159981  0.12832772  1
  O  O374  1  0.13233251  0.88749656  0.63355719  1
  O  O375  1  0.63426753  0.37345332  0.13327947  1
  O  O376  1  0.62507032  0.38645685  0.62469699  1
  O  O377  1  0.61697073  0.87848972  0.12882472  1
  O  O378  1  0.63545749  0.88540367  0.63031157  1
  O  O379  1  0.12040241  0.25459181  0.25798918  1
  O  O380  1  0.10952594  0.25697570  0.74814658  1
  O  O381  1  0.11358670  0.75772888  0.24660951  1
  O  O382  1  0.11648290  0.76535194  0.74530525  1
  O  O383  1  0.63334133  0.26894310  0.25591183  1
  O  O384  1  0.61726001  0.24783037  0.75642857  1
  O  O385  1  0.61699488  0.74361845  0.25159768  1
  O  O386  1  0.62901087  0.75900354  0.75906347  1
  O  O387  1  0.36732115  0.24764361  0.23361829  1
  O  O388  1  0.38220525  0.25050036  0.73878668  1
  O  O389  1  0.37106700  0.74843138  0.23608495  1
  O  O390  1  0.37132925  0.73692681  0.75138432  1
  O  O391  1  0.87926156  0.24303694  0.24817561  1
  O  O392  1  0.88321339  0.24499718  0.74377450  1
  O  O393  1  0.89008436  0.75433693  0.24199847  1
  O  O394  1  0.87970994  0.74326691  0.74918088  1
  O  O395  1  0.36904834  0.49778374  0.48764054  1
  O  O396  1  0.38632304  0.50617292  0.98078946  1
  O  O397  1  0.38147908  1.00544308  0.48827859  1
  O  O398  1  0.37467765  0.99536105  0.98617415  1
  O  O399  1  0.87864454  0.49193866  0.49754713  1
  O  O400  1  0.88407099  0.49896037  0.99063418  1
  O  O401  1  0.87548765  0.99786643  0.48511428  1
  O  O402  1  0.88030105  0.99576103  0.99301910  1
  O  O403  1  0.11697526  0.00519846  0.00548426  1
  O  O404  1  0.12632996  -0.00141784  0.51520689  1
  O  O405  1  0.11974442  0.50966414  0.00464163  1
  O  O406  1  0.11873379  0.50316158  0.51160314  1
  O  O407  1  0.62422368  0.00544413  -0.00076930  1
  O  O408  1  0.62054623  0.00425742  0.50718382  1
  O  O409  1  0.60639500  0.50270209  -0.00646363  1
  O  O410  1  0.62849298  0.50008891  0.51532129  1
  O  O411  1  0.36381375  0.36915732  0.13055061  1
  O  O412  1  0.36554477  0.36915710  0.62792810  1
  O  O413  1  0.36803198  0.87228166  0.11751207  1
  O  O414  1  0.36693095  0.88115105  0.62692722  1
  O  O415  1  0.86377747  0.36909807  0.12337342  1
  O  O416  1  0.88194157  0.36519180  0.61680293  1
  O  O417  1  0.88490690  0.86810713  0.11371337  1
  O  O418  1  0.87199921  0.87167541  0.62173051  1
  O  O419  1  0.13837452  0.13033293  0.37187752  1
  O  O420  1  0.13828196  0.12243893  0.87374008  1
  O  O421  1  0.13614132  0.61650034  0.38350164  1
  O  O422  1  0.13954316  0.61690138  0.87837757  1
  O  O423  1  0.61557874  0.12644046  0.38879647  1
  O  O424  1  0.63403577  0.13531222  0.87281841  1
  O  O425  1  0.62382058  0.63453438  0.37843718  1
  O  O426  1  0.62371356  0.63598263  0.86663329  1
