# generated using pymatgen
data_V85Zn86O256
_symmetry_space_group_name_H-M   'P 1'
_cell_length_a   16.96735219
_cell_length_b   16.94419727
_cell_length_c   16.96072871
_cell_angle_alpha   90.00014761
_cell_angle_beta   89.98470783
_cell_angle_gamma   89.85483761
_symmetry_Int_Tables_number   1
_chemical_formula_structural   V85Zn86O256
_chemical_formula_sum   'V85 Zn86 O256'
_cell_volume   4876.16251864
_cell_formula_units_Z   1
loop_
 _symmetry_equiv_pos_site_id
 _symmetry_equiv_pos_as_xyz
  1  'x, y, z'
loop_
 _atom_site_type_symbol
 _atom_site_label
 _atom_site_symmetry_multiplicity
 _atom_site_fract_x
 _atom_site_fract_y
 _atom_site_fract_z
 _atom_site_occupancy
  V  V0  1  0.37183831  0.62590367  0.24277587  1
  V  V1  1  0.24769929  0.50509634  0.75150593  1
  V  V2  1  0.49959230  0.62591747  0.62568211  1
  V  V3  1  0.61508841  0.74778898  0.87868615  1
  V  V4  1  0.87609146  0.87467003  0.49911618  1
  V  V5  1  0.12910907  0.87471933  0.25836902  1
  V  V6  1  0.25799424  0.24559946  0.49007216  1
  V  V7  1  0.75435727  0.36825507  0.12471014  1
  V  V8  1  0.12772165  0.24680828  0.89161996  1
  V  V9  1  0.87903890  0.49601621  0.37309512  1
  V  V10  1  0.37396240  0.75097599  0.62229339  1
  V  V11  1  0.87559896  0.87592004  0.01178462  1
  V  V12  1  0.75522710  0.74841851  0.00212023  1
  V  V13  1  0.62589757  0.49759398  0.12187476  1
  V  V14  1  0.01192713  0.62585077  0.12659010  1
  V  V15  1  0.50110519  0.62505881  0.12485932  1
  V  V16  1  0.37235911  0.26080370  0.10665509  1
  V  V17  1  0.75221048  0.24104690  -0.00282549  1
  V  V18  1  -0.00278731  0.50054905  0.00339331  1
  V  V19  1  0.24576366  0.74505019  0.00208110  1
  V  V20  1  0.62545946  0.87595411  0.25175071  1
  V  V21  1  0.49647298  0.25873921  0.25121933  1
  V  V22  1  0.87381842  0.13207000  0.74566947  1
  V  V23  1  0.12216148  0.87811960  0.75764702  1
  V  V24  1  0.12716097  0.36779048  0.74523152  1
  V  V25  1  0.62173341  0.25659702  0.37475631  1
  V  V26  1  0.49902912  0.87650629  0.37553033  1
  V  V27  1  0.49387828  0.37262453  0.88200060  1
  V  V28  1  0.25018030  0.00315968  0.75236865  1
  V  V29  1  0.62550096  0.12529436  0.50131736  1
  V  V30  1  0.87482289  0.63080028  0.23879349  1
  V  V31  1  0.87473041  0.74691783  0.62912571  1
  V  V32  1  0.49873207  0.12647940  0.12507534  1
  V  V33  1  0.37746291  0.49298010  0.37445928  1
  V  V34  1  0.87605279  0.00656386  0.87967771  1
  V  V35  1  0.61692638  0.37289986  0.75051100  1
  V  V36  1  0.87265272  0.37327067  -0.00374889  1
  V  V37  1  0.37034470  0.62685633  0.75258973  1
  V  V38  1  0.74987013  0.49926411  0.24868088  1
  V  V39  1  0.00358856  0.75061733  0.25245267  1
  V  V40  1  -0.00521211  0.62266395  0.62992764  1
  V  V41  1  0.76261871  0.50284020  0.75724553  1
  V  V42  1  0.12444899  0.62213031  -0.01404700  1
  V  V43  1  0.87861767  0.14092433  0.24327775  1
  V  V44  1  0.50055886  -0.00655014  -0.00377680  1
  V  V45  1  0.62480408  0.74974939  0.37656618  1
  V  V46  1  0.37844475  0.86401609  0.00651986  1
  V  V47  1  0.24716396  0.62898774  0.37338733  1
  V  V48  1  0.00150681  0.49438876  0.49544190  1
  V  V49  1  0.74907593  0.87461803  0.62925395  1
  V  V50  1  0.75209958  0.62415163  0.37517426  1
  V  V51  1  0.11219577  0.37646897  0.24349617  1
  V  V52  1  0.62386180  0.00027217  0.12545964  1
  V  V53  1  0.12764825  0.49789665  0.62375204  1
  V  V54  1  0.50139869  0.49326022  0.49617830  1
  V  V55  1  0.24651304  0.49197846  0.24419549  1
  V  V56  1  0.00030132  0.00123529  0.50096765  1
  V  V57  1  0.37452844  0.13664619  0.74808173  1
  V  V58  1  0.75006398  0.00227097  0.76011776  1
  V  V59  1  0.49595009  0.74978329  0.24776184  1
  V  V60  1  0.36682785  0.00734882  0.36736242  1
  V  V61  1  0.01001267  0.13695772  0.12636327  1
  V  V62  1  0.75466084  0.36700054  0.62704264  1
  V  V63  1  0.37335802  0.87679627  0.49855129  1
  V  V64  1  0.62336879  0.00101776  0.62803936  1
  V  V65  1  0.37955256  -0.00928482  0.87272717  1
  V  V66  1  0.12291615  0.63260458  0.49601811  1
  V  V67  1  0.62465145  0.24336556  0.87220400  1
  V  V68  1  -0.00387086  0.37960002  0.87203178  1
  V  V69  1  0.62506265  0.62479772  0.50108527  1
  V  V70  1  0.12717356  0.12609178  0.49182295  1
  V  V71  1  0.75373682  0.00024941  0.24842701  1
  V  V72  1  0.24656806  0.87963092  0.12595297  1
  V  V73  1  0.75042765  0.12539222  0.37487965  1
  V  V74  1  0.87844806  0.36597485  0.49969785  1
  V  V75  1  0.75068689  0.74851165  0.50281467  1
  V  V76  1  0.49635951  0.13961082  0.62856678  1
  V  V77  1  0.62761585  0.50020735  0.62780588  1
  V  V78  1  0.00801567  0.00472407  0.01086999  1
  V  V79  1  -0.00564786  0.74922332  0.75533031  1
  V  V80  1  0.11244843  0.25965105  0.37173114  1
  V  V81  1  0.24607999  0.87566995  0.62546639  1
  V  V82  1  0.61772809  0.87465860  0.75712455  1
  V  V83  1  0.49872681  0.00183500  0.50052541  1
  V  V84  1  0.26168004  0.36954751  0.61952469  1
  Zn  Zn85  1  0.12835625  0.74928390  0.87320518  1
  Zn  Zn86  1  0.12229918  0.00578183  0.62639159  1
  Zn  Zn87  1  0.00013100  0.87827466  0.88138112  1
  Zn  Zn88  1  0.75442259  0.24586585  0.50443362  1
  Zn  Zn89  1  0.24220464  0.37068730  0.09967108  1
  Zn  Zn90  1  0.62322264  0.37641522  0.25336519  1
  Zn  Zn91  1  0.38327362  0.36798519  0.49828077  1
  Zn  Zn92  1  0.36642239  0.49431121  0.87959452  1
  Zn  Zn93  1  0.25894287  0.14238003  0.89853985  1
  Zn  Zn94  1  -0.00074179  0.24997709  0.74640058  1
  Zn  Zn95  1  0.24290218  0.75439290  0.49360116  1
  Zn  Zn96  1  0.49454391  0.49605266  0.00119746  1
  Zn  Zn97  1  0.87841601  -0.00060253  0.37359981  1
  Zn  Zn98  1  0.75246848  0.86847076  0.12950466  1
  Zn  Zn99  1  -0.00339616  0.13766613  0.61981679  1
  Zn  Zn100  1  0.49429452  0.75330283  0.75558268  1
  Zn  Zn101  1  0.63099981  0.62081522  -0.00468977  1
  Zn  Zn102  1  0.76434609  0.62696804  0.87325868  1
  Zn  Zn103  1  0.23003559  0.01937743  0.24686811  1
  Zn  Zn104  1  0.62820333  0.12105937  -0.00521183  1
  Zn  Zn105  1  0.36800229  0.13405444  0.25096987  1
  Zn  Zn106  1  0.00726273  0.86744121  0.38015538  1
  Zn  Zn107  1  0.19132441  0.19650059  0.18760632  1
  Zn  Zn108  1  0.18944460  0.18719432  0.67860179  1
  Zn  Zn109  1  0.18928026  0.69253054  0.18334549  1
  Zn  Zn110  1  0.18218075  0.68942245  0.68532801  1
  Zn  Zn111  1  0.68522998  0.18784250  0.18694642  1
  Zn  Zn112  1  0.68865292  0.18637020  0.69131420  1
  Zn  Zn113  1  0.68677859  0.68734926  0.18646838  1
  Zn  Zn114  1  0.68736374  0.68591415  0.69287029  1
  Zn  Zn115  1  0.31126706  0.31118546  0.31137797  1
  Zn  Zn116  1  0.30754517  0.31505770  0.81459386  1
  Zn  Zn117  1  0.31309098  0.81206793  0.31187497  1
  Zn  Zn118  1  0.30997889  0.81265205  0.81694285  1
  Zn  Zn119  1  0.81018728  0.31398337  0.31550695  1
  Zn  Zn120  1  0.80795242  0.31434172  0.81626640  1
  Zn  Zn121  1  0.81495760  0.81073937  0.31360049  1
  Zn  Zn122  1  0.81325619  0.81546582  0.82151617  1
  Zn  Zn123  1  0.19008206  0.43652731  0.43415502  1
  Zn  Zn124  1  0.17830158  0.43835416  0.93277050  1
  Zn  Zn125  1  0.18732887  0.93926046  0.43464638  1
  Zn  Zn126  1  0.21071797  0.97618825  0.96296433  1
  Zn  Zn127  1  0.69187016  0.43677852  0.43965182  1
  Zn  Zn128  1  0.68404758  0.43470319  0.93634418  1
  Zn  Zn129  1  0.68863690  0.93882467  0.43823210  1
  Zn  Zn130  1  0.68835644  0.93285746  0.93840303  1
  Zn  Zn131  1  0.31772029  0.06361653  0.06972303  1
  Zn  Zn132  1  0.31249238  0.06515050  0.56334429  1
  Zn  Zn133  1  0.29304158  0.53161900  0.03858957  1
  Zn  Zn134  1  0.31214542  0.56268278  0.56071097  1
  Zn  Zn135  1  0.81530544  0.06165617  0.06654995  1
  Zn  Zn136  1  0.81207481  0.05977847  0.56633740  1
  Zn  Zn137  1  0.81464287  0.56018041  0.05843784  1
  Zn  Zn138  1  0.81382266  0.55658367  0.56467633  1
  Zn  Zn139  1  0.43604254  0.43677228  0.18620553  1
  Zn  Zn140  1  0.43767943  0.43997441  0.68873596  1
  Zn  Zn141  1  0.43471807  0.93463181  0.18386589  1
  Zn  Zn142  1  0.43725308  0.94035799  0.68591649  1
  Zn  Zn143  1  0.93351088  0.44008068  0.18148221  1
  Zn  Zn144  1  0.94058743  0.42884449  0.68130232  1
  Zn  Zn145  1  0.94200922  0.93974227  0.18900831  1
  Zn  Zn146  1  0.93702823  0.94029946  0.68661671  1
  Zn  Zn147  1  0.05940227  0.06306453  0.31455451  1
  Zn  Zn148  1  0.06064774  0.06586239  0.81734885  1
  Zn  Zn149  1  0.06323870  0.56086505  0.31235443  1
  Zn  Zn150  1  -0.05903739  0.56145096  0.81368223  1
  Zn  Zn151  1  0.55935400  0.06741521  0.31115161  1
  Zn  Zn152  1  0.55744155  0.06349785  0.81173627  1
  Zn  Zn153  1  0.56329535  0.56113769  0.31231570  1
  Zn  Zn154  1  0.56266779  0.56177088  0.81274070  1
  Zn  Zn155  1  0.44134959  0.18635268  0.43584342  1
  Zn  Zn156  1  0.44328577  0.18279966  0.93247576  1
  Zn  Zn157  1  0.43467704  0.68320919  0.43519571  1
  Zn  Zn158  1  0.41579615  0.66049558  0.95684157  1
  Zn  Zn159  1  0.93897792  0.18463020  0.43148492  1
  Zn  Zn160  1  0.94054874  0.18908847  0.93698141  1
  Zn  Zn161  1  0.93836041  0.68459088  0.43563011  1
  Zn  Zn162  1  0.93879272  0.69351675  0.94082866  1
  Zn  Zn163  1  0.05640008  0.31442798  0.06747062  1
  Zn  Zn164  1  0.06440025  0.30850623  0.56304226  1
  Zn  Zn165  1  0.06328819  0.81228699  0.06934759  1
  Zn  Zn166  1  0.06125927  0.81372759  0.56896086  1
  Zn  Zn167  1  0.56456915  0.31116207  0.06018505  1
  Zn  Zn168  1  0.56828512  0.31328005  0.56235479  1
  Zn  Zn169  1  0.56605665  0.81124873  0.06426541  1
  Zn  Zn170  1  0.56128434  0.81374120  0.56544336  1
  O  O171  1  0.10890813  0.13315262  0.13482929  1
  O  O172  1  0.12226940  0.12432411  0.60786612  1
  O  O173  1  0.11431488  0.62523162  0.12375939  1
  O  O174  1  0.11529785  0.61666311  0.61735965  1
  O  O175  1  0.61400964  0.11940434  0.12306324  1
  O  O176  1  0.61871045  0.11972619  0.62304932  1
  O  O177  1  0.61998550  0.61056086  0.12980595  1
  O  O178  1  0.61992727  0.62131210  0.62073316  1
  O  O179  1  0.37171073  0.38924279  0.37657164  1
  O  O180  1  0.39045197  0.37725299  0.86367076  1
  O  O181  1  0.38054753  0.88211127  0.38018165  1
  O  O182  1  0.37422249  0.88471947  0.88264046  1
  O  O183  1  0.86768423  0.38889280  0.38217343  1
  O  O184  1  0.88443178  0.37110600  0.88114998  1
  O  O185  1  0.87312745  0.87532614  0.39040411  1
  O  O186  1  0.87783035  0.88927983  0.88609488  1
  O  O187  1  0.26430774  -0.00523165  0.36809074  1
  O  O188  1  0.25984040  -0.00618615  0.85789797  1
  O  O189  1  0.25780268  0.50900175  0.36726257  1
  O  O190  1  0.24721329  0.49844237  0.85371266  1
  O  O191  1  0.74868479  0.01159285  0.36821408  1
  O  O192  1  0.75556264  -0.00325114  0.86621530  1
  O  O193  1  0.75547413  0.50614977  0.36916853  1
  O  O194  1  0.74634852  0.49788451  0.85923881  1
  O  O195  1  0.25185933  0.50266203  0.14499183  1
  O  O196  1  0.24317892  0.49204308  0.62350458  1
  O  O197  1  0.26066664  0.98282702  0.13654022  1
  O  O198  1  0.25190682  0.98986169  0.63371861  1
  O  O199  1  0.74361462  0.49255453  0.12861670  1
  O  O200  1  0.74563388  0.49118086  0.63347624  1
  O  O201  1  0.74149035  0.99969266  0.13448495  1
  O  O202  1  0.74265594  0.99399824  0.63654483  1
  O  O203  1  0.01364018  0.38511731  0.24486027  1
  O  O204  1  0.00979226  0.37572689  0.75567598  1
  O  O205  1  0.00988713  0.86804918  0.25105653  1
  O  O206  1  0.00708541  0.87017411  0.74789211  1
  O  O207  1  0.50440998  0.36344392  0.24593288  1
  O  O208  1  0.51269333  0.37807549  0.75277051  1
  O  O209  1  0.50397799  0.86725600  0.25516267  1
  O  O210  1  0.51414734  0.87409068  0.74379789  1
  O  O211  1  0.49702700  0.13634949  0.24104344  1
  O  O212  1  0.48489899  0.12149550  0.74213593  1
  O  O213  1  0.49519412  0.63090272  0.24590737  1
  O  O214  1  0.49224794  0.62679360  0.74042774  1
  O  O215  1  0.98587904  0.11893554  0.24090754  1
  O  O216  1  0.98562789  0.12355620  0.74806866  1
  O  O217  1  0.99513429  0.62855822  0.24462581  1
  O  O218  1  1.00029099  0.63426905  0.74019917  1
  O  O219  1  0.38083094  0.24491337  0.00870386  1
  O  O220  1  0.36304278  0.24988007  0.49142288  1
  O  O221  1  0.36862260  0.75924300  -0.00501621  1
  O  O222  1  0.37358387  0.75460554  0.50947445  1
  O  O223  1  0.86608554  0.26164780  -0.00746892  1
  O  O224  1  0.87438823  0.26278797  0.48852420  1
  O  O225  1  0.86772474  0.76400683  -0.00115063  1
  O  O226  1  0.87105715  0.75490870  0.50695366  1
  O  O227  1  0.13192142  0.24720819  0.48711750  1
  O  O228  1  0.12250679  0.25702911  0.99006100  1
  O  O229  1  0.12255068  0.73631519  0.50595444  1
  O  O230  1  0.12861383  0.74218615  1.00142113  1
  O  O231  1  0.62801636  0.24211857  0.49222152  1
  O  O232  1  0.63292538  0.24710448  0.99151946  1
  O  O233  1  0.62997170  0.74555232  0.49629498  1
  O  O234  1  0.63160501  0.75140666  0.98864026  1
  O  O235  1  0.49563691  0.24439499  0.12903973  1
  O  O236  1  0.50330341  0.23875269  0.62037243  1
  O  O237  1  0.51143075  0.74257608  0.14204784  1
  O  O238  1  0.49069301  0.74471699  0.62683449  1
  O  O239  1  0.99274245  0.23580552  0.12031625  1
  O  O240  1  0.99957248  0.25164471  0.63178618  1
  O  O241  1  0.99942325  0.74000416  0.13865540  1
  O  O242  1  0.99390561  0.74132958  0.63160413  1
  O  O243  1  0.01371965  0.25384330  0.37677683  1
  O  O244  1  0.01106342  0.26012279  0.87050126  1
  O  O245  1  -0.00486640  0.74933746  0.36026903  1
  O  O246  1  0.00504275  0.75857820  0.86726166  1
  O  O247  1  0.50940032  0.24529023  0.36493565  1
  O  O248  1  0.50835975  0.26257907  0.87717583  1
  O  O249  1  0.50458248  0.75409003  0.36858191  1
  O  O250  1  0.51473757  0.74543130  0.87522384  1
  O  O251  1  0.24414779  0.13740699  0.50148262  1
  O  O252  1  0.24436061  0.08318042  0.99088229  1
  O  O253  1  0.24006624  0.62530261  0.49240699  1
  O  O254  1  0.23437052  0.63134628  1.00987365  1
  O  O255  1  0.74670910  0.12430526  0.49290977  1
  O  O256  1  0.75017962  0.13764032  1.00701878  1
  O  O257  1  0.74505588  0.62850070  0.49751916  1
  O  O258  1  0.74998110  0.63227579  0.99720189  1
  O  O259  1  0.26244286  0.42462143  0.00337468  1
  O  O260  1  0.25391826  0.36598959  0.50374675  1
  O  O261  1  0.25616326  0.87661035  0.01268685  1
  O  O262  1  0.25397889  0.87434840  0.50686251  1
  O  O263  1  0.75614359  0.37040951  0.00478685  1
  O  O264  1  0.75958862  0.37408702  0.50946824  1
  O  O265  1  0.75857954  0.86888032  0.00372545  1
  O  O266  1  0.75576245  0.86965405  0.50749296  1
  O  O267  1  0.13635073  0.48730221  0.25942632  1
  O  O268  1  0.13263869  0.48830706  0.73236512  1
  O  O269  1  0.12081389  0.98197853  0.25619481  1
  O  O270  1  0.13203627  0.99754560  0.74839270  1
  O  O271  1  0.63280519  0.49708369  0.24488680  1
  O  O272  1  0.63286400  0.49198105  0.74405016  1
  O  O273  1  0.63383826  0.99744100  0.24803734  1
  O  O274  1  0.63118744  0.99404422  0.75053014  1
  O  O275  1  0.38229734  -0.00050138  0.26449194  1
  O  O276  1  0.37013866  0.00248351  0.75672472  1
  O  O277  1  0.36707927  0.50421501  0.25613634  1
  O  O278  1  0.36554616  0.51029610  0.74802322  1
  O  O279  1  0.86223794  0.00025277  0.25302852  1
  O  O280  1  0.86787763  0.00374384  0.75871477  1
  O  O281  1  0.86943278  0.50613239  0.25676482  1
  O  O282  1  0.86646088  0.49505258  0.74675315  1
  O  O283  1  0.12534157  0.36663939  0.36743687  1
  O  O284  1  0.11863276  0.36738949  0.86401793  1
  O  O285  1  0.12839170  0.86884059  0.36361461  1
  O  O286  1  0.12358631  0.87754583  0.86028374  1
  O  O287  1  0.63339804  0.36040054  0.37588309  1
  O  O288  1  0.61582021  0.36770883  0.86779341  1
  O  O289  1  0.61871603  0.87055297  0.37188208  1
  O  O290  1  0.62864170  0.86206616  0.86765057  1
  O  O291  1  0.38813478  0.13342538  0.12634008  1
  O  O292  1  0.38278407  0.12031195  0.63769192  1
  O  O293  1  0.38649382  0.62045267  0.14073452  1
  O  O294  1  0.37972139  0.63400669  0.62732359  1
  O  O295  1  0.87513782  0.12489687  0.14109337  1
  O  O296  1  0.87595191  0.11894752  0.64126645  1
  O  O297  1  0.88143409  0.61852933  0.13637362  1
  O  O298  1  0.88784154  0.62781011  0.61853661  1
  O  O299  1  0.26758371  0.25621627  0.12053090  1
  O  O300  1  0.24469393  0.25983462  0.60570340  1
  O  O301  1  0.24990282  0.76244503  0.11290104  1
  O  O302  1  0.25472298  0.76167565  0.62185544  1
  O  O303  1  0.74010178  0.26243464  0.11621155  1
  O  O304  1  0.74588641  0.26274381  0.62396298  1
  O  O305  1  0.74004772  0.75154093  0.10872749  1
  O  O306  1  0.75539938  0.75280150  0.62284153  1
  O  O307  1  0.24102090  0.25540395  0.38682112  1
  O  O308  1  0.23516048  0.25425125  0.87763835  1
  O  O309  1  0.25713291  0.73394752  0.37699400  1
  O  O310  1  0.24529027  0.75862439  0.89482236  1
  O  O311  1  0.74287124  0.23751662  0.37537218  1
  O  O312  1  0.73775045  0.25641693  0.88650141  1
  O  O313  1  0.74568016  0.74367434  0.38359256  1
  O  O314  1  0.74306027  0.74928858  0.88621067  1
  O  O315  1  -0.00712524  0.11556623  0.01355169  1
  O  O316  1  0.00501528  0.11729113  0.49900259  1
  O  O317  1  0.00447774  0.62133111  0.00885237  1
  O  O318  1  0.00563112  0.61467426  0.50493690  1
  O  O319  1  0.50175756  0.11132226  0.00666248  1
  O  O320  1  0.50512611  0.11973928  0.50808342  1
  O  O321  1  0.51161066  0.63788570  0.02061744  1
  O  O322  1  0.50612140  0.61811206  0.50570578  1
  O  O323  1  0.50140807  0.38879375  0.50515802  1
  O  O324  1  0.50151680  0.37723064  0.98594817  1
  O  O325  1  0.49363677  0.88122690  0.49606919  1
  O  O326  1  0.49292519  0.88396774  1.01113236  1
  O  O327  1  0.99379359  0.38759069  0.50509168  1
  O  O328  1  0.99314084  0.38147740  0.99509743  1
  O  O329  1  0.99267744  0.87826570  0.50060651  1
  O  O330  1  0.99203295  0.88454845  1.00586512  1
  O  O331  1  0.49222326  0.50675788  0.38447704  1
  O  O332  1  0.50265426  0.48463052  0.87441386  1
  O  O333  1  0.49515105  0.99460859  0.38139426  1
  O  O334  1  0.49339937  1.00113184  0.88507459  1
  O  O335  1  0.99068553  0.50497106  0.38373615  1
  O  O336  1  0.99962764  0.48588321  0.88053947  1
  O  O337  1  0.99746821  0.99302619  0.38761935  1
  O  O338  1  0.99294699  1.00090533  0.88911048  1
  O  O339  1  -0.00613022  0.01197533  0.11610308  1
  O  O340  1  0.00141912  0.00111929  0.61105691  1
  O  O341  1  -0.00415419  0.51083196  0.11504536  1
  O  O342  1  0.00746553  0.50524199  0.61900391  1
  O  O343  1  0.50373927  0.00732892  0.12072919  1
  O  O344  1  0.50638228  0.00591375  0.61830749  1
  O  O345  1  0.50710825  0.50657313  0.12418385  1
  O  O346  1  0.50684943  0.50726362  0.61827257  1
  O  O347  1  0.24493371  0.38584837  0.24915080  1
  O  O348  1  0.24554801  0.38116029  0.73819910  1
  O  O349  1  0.24085850  0.86996590  0.24365574  1
  O  O350  1  0.24273805  0.87942215  0.74238431  1
  O  O351  1  0.74909095  0.38032009  0.24119497  1
  O  O352  1  0.74558277  0.38417141  0.74395713  1
  O  O353  1  0.74442867  0.88226979  0.25237750  1
  O  O354  1  0.74202106  0.88170288  0.74719025  1
  O  O355  1  0.25564817  0.12704901  0.24611501  1
  O  O356  1  0.26043568  0.11701379  0.74428673  1
  O  O357  1  0.25455372  0.61961977  0.25462088  1
  O  O358  1  0.25615596  0.61576511  0.73320488  1
  O  O359  1  0.75729354  0.12004005  0.25484164  1
  O  O360  1  0.76082736  0.11401245  0.74736240  1
  O  O361  1  0.75796904  0.62124728  0.25372794  1
  O  O362  1  0.74946227  0.60642322  0.74856628  1
  O  O363  1  0.38078389  0.10960222  0.37377341  1
  O  O364  1  0.37376991  0.11575068  0.86369464  1
  O  O365  1  0.36907413  0.61496436  0.36542688  1
  O  O366  1  0.37340516  0.63673061  0.85247390  1
  O  O367  1  0.86775695  0.12171333  0.36361027  1
  O  O368  1  0.87894683  0.11329138  0.86695425  1
  O  O369  1  0.86926176  0.61439303  0.36957241  1
  O  O370  1  0.87759984  0.62896023  0.87428716  1
  O  O371  1  0.12891630  0.36973913  0.13885972  1
  O  O372  1  0.13434857  0.38110263  0.62639515  1
  O  O373  1  0.13947515  0.87373092  0.13536176  1
  O  O374  1  0.13280145  0.87971633  0.63295563  1
  O  O375  1  0.63070361  0.38538978  0.12520407  1
  O  O376  1  0.63280704  0.38043705  0.63227186  1
  O  O377  1  0.62616618  0.88307996  0.13574466  1
  O  O378  1  0.63109668  0.88008014  0.63284112  1
  O  O379  1  0.12926452  0.26632836  0.26156909  1
  O  O380  1  0.12998280  0.26209659  0.74785078  1
  O  O381  1  0.11719870  0.76150212  0.24658614  1
  O  O382  1  0.11360578  0.75860922  0.74834170  1
  O  O383  1  0.61806290  0.25067888  0.25819119  1
  O  O384  1  0.63351402  0.26104611  0.75914850  1
  O  O385  1  0.62040714  0.75443353  0.25972948  1
  O  O386  1  0.62532243  0.75736053  0.76074662  1
  O  O387  1  0.38376127  0.25278874  0.24380187  1
  O  O388  1  0.36743011  0.23493279  0.75397042  1
  O  O389  1  0.38591431  0.74040375  0.25665665  1
  O  O390  1  0.37308079  0.74972351  0.73688938  1
  O  O391  1  0.87258418  0.23899542  0.25408075  1
  O  O392  1  0.87010205  0.23364654  0.75881765  1
  O  O393  1  0.88033927  0.73878363  0.25293531  1
  O  O394  1  0.88639059  0.76100772  0.74477634  1
  O  O395  1  0.38507031  0.50155225  0.49190675  1
  O  O396  1  0.39026789  0.54485759  0.98106143  1
  O  O397  1  0.37762309  0.99663607  0.48996807  1
  O  O398  1  0.38418329  0.98743298  0.99327386  1
  O  O399  1  0.88272651  0.49366441  0.49218564  1
  O  O400  1  0.88404399  0.48717976  1.00052669  1
  O  O401  1  0.88073224  0.99149469  0.49977832  1
  O  O402  1  0.87897660  0.99600976  0.99566279  1
  O  O403  1  0.10459326  -0.00831292  0.00263339  1
  O  O404  1  0.11952764  0.00873956  0.49764779  1
  O  O405  1  0.10670236  0.50851174  -0.00517028  1
  O  O406  1  0.11937471  0.50370998  0.50616742  1
  O  O407  1  0.61893930  -0.00092386  0.00487638  1
  O  O408  1  0.62047781  0.00620225  0.50638993  1
  O  O409  1  0.62135359  0.50269603  0.00793667  1
  O  O410  1  0.62043647  0.50511591  0.50504859  1
  O  O411  1  0.37989178  0.36287953  0.11898987  1
  O  O412  1  0.36498578  0.37986265  0.62104825  1
  O  O413  1  0.36577071  0.87125142  0.11791396  1
  O  O414  1  0.36833212  0.87000056  0.61912500  1
  O  O415  1  0.86334742  0.37705205  0.11535716  1
  O  O416  1  0.86610644  0.37914344  0.61247463  1
  O  O417  1  0.87128651  0.88269236  0.11588186  1
  O  O418  1  0.86881423  0.87042161  0.61619378  1
  O  O419  1  0.11985424  0.13737781  0.38322390  1
  O  O420  1  0.12547833  0.14522599  0.87067116  1
  O  O421  1  0.13375401  0.61810880  0.38449367  1
  O  O422  1  0.12039761  0.62924352  0.88763689  1
  O  O423  1  0.63189330  0.13153764  0.38031612  1
  O  O424  1  0.61781296  0.13860130  0.87415925  1
  O  O425  1  0.63195650  0.62972740  0.38093033  1
  O  O426  1  0.63068918  0.63744453  0.87326859  1
