# generated using pymatgen
data_V85Zn86O256
_symmetry_space_group_name_H-M   'P 1'
_cell_length_a   16.92245010
_cell_length_b   16.93075388
_cell_length_c   16.93339522
_cell_angle_alpha   90.00457835
_cell_angle_beta   89.94297489
_cell_angle_gamma   90.05794275
_symmetry_Int_Tables_number   1
_chemical_formula_structural   V85Zn86O256
_chemical_formula_sum   'V85 Zn86 O256'
_cell_volume   4851.57941628
_cell_formula_units_Z   1
loop_
 _symmetry_equiv_pos_site_id
 _symmetry_equiv_pos_as_xyz
  1  'x, y, z'
loop_
 _atom_site_type_symbol
 _atom_site_label
 _atom_site_symmetry_multiplicity
 _atom_site_fract_x
 _atom_site_fract_y
 _atom_site_fract_z
 _atom_site_occupancy
  V  V0  1  0.12484738  0.37589138  0.74959703  1
  V  V1  1  0.49876399  0.12353419  0.62693022  1
  V  V2  1  0.37402156  -0.00689723  0.38329203  1
  V  V3  1  0.64122224  0.11416071  -0.01260869  1
  V  V4  1  0.49869980  0.87427585  0.87712638  1
  V  V5  1  0.00056907  0.24099699  0.24503089  1
  V  V6  1  0.24797967  0.74887132  0.00090051  1
  V  V7  1  -0.00929192  0.37174715  0.37679549  1
  V  V8  1  0.24671304  -0.00589184  0.25336118  1
  V  V9  1  0.36653386  0.00470639  0.87825444  1
  V  V10  1  0.50475030  0.37748826  0.86965868  1
  V  V11  1  0.24911842  0.50047927  0.74880717  1
  V  V12  1  0.37319877  0.87472308  0.00334219  1
  V  V13  1  0.63025640  -0.00154699  0.13370755  1
  V  V14  1  0.62369037  0.13154068  0.49420828  1
  V  V15  1  0.24974441  0.25088788  0.49937643  1
  V  V16  1  0.87568158  0.24257880  0.12410745  1
  V  V17  1  0.50220859  -0.00983689  0.50304701  1
  V  V18  1  -0.00995975  0.24837031  0.75117813  1
  V  V19  1  0.76160525  0.74850051  0.00156827  1
  V  V20  1  0.74486322  0.37946432  0.61550242  1
  V  V21  1  -0.00489365  0.62879337  0.12422294  1
  V  V22  1  0.62638652  0.49070570  0.12433918  1
  V  V23  1  0.24966748  0.87751101  0.62632536  1
  V  V24  1  0.75331376  0.87765042  0.62037499  1
  V  V25  1  0.25284694  0.24336499  -0.00346816  1
  V  V26  1  0.37678771  0.12503080  0.25154453  1
  V  V27  1  0.63083987  0.87651139  0.74650803  1
  V  V28  1  0.75715974  0.87217814  0.12957045  1
  V  V29  1  -0.01038509  0.49530338  0.49968907  1
  V  V30  1  0.00307587  0.37722864  0.88070430  1
  V  V31  1  0.25062765  0.37401770  0.62164697  1
  V  V32  1  0.87472172  0.62322459  0.74634275  1
  V  V33  1  0.62543748  0.37089543  0.26317434  1
  V  V34  1  -0.00343476  0.00722497  -0.00580013  1
  V  V35  1  0.50001424  0.50181352  0.00145596  1
  V  V36  1  0.12151678  -0.00318876  0.63719973  1
  V  V37  1  0.62406497  0.61123659  0.50094654  1
  V  V38  1  0.50394834  0.61259531  0.62136819  1
  V  V39  1  0.24935181  0.50038760  0.25470252  1
  V  V40  1  0.86959377  -0.00750022  0.36736364  1
  V  V41  1  0.36931962  0.12527788  0.75389281  1
  V  V42  1  0.12363384  0.12125156  0.50088565  1
  V  V43  1  0.24929562  0.12252101  0.37682508  1
  V  V44  1  0.23905169  0.87315877  0.12920422  1
  V  V45  1  0.50145458  0.63040606  0.12893744  1
  V  V46  1  0.50368724  0.25091013  0.74806708  1
  V  V47  1  0.37468168  0.62704496  0.74873316  1
  V  V48  1  0.37375734  0.50231382  0.87486430  1
  V  V49  1  0.37620957  0.62859389  0.25390133  1
  V  V50  1  0.37731169  0.75630482  0.61477176  1
  V  V51  1  0.50407991  0.12791145  0.12451035  1
  V  V52  1  0.11955638  0.62266626  -0.00302109  1
  V  V53  1  0.12321880  0.37385373  0.25149795  1
  V  V54  1  0.25102331  0.37454116  0.12534319  1
  V  V55  1  0.00920197  0.76171090  0.24992219  1
  V  V56  1  0.49660515  0.86770825  0.36651377  1
  V  V57  1  0.50326473  0.25255320  0.26486540  1
  V  V58  1  0.00360942  0.62443957  0.61775427  1
  V  V59  1  0.38853381  0.49613760  0.37832740  1
  V  V60  1  0.74913713  0.25854542  0.00422504  1
  V  V61  1  -0.01143442  0.12504391  0.62461525  1
  V  V62  1  0.12514309  0.75994463  0.87043762  1
  V  V63  1  0.12972502  0.23978092  0.87264385  1
  V  V64  1  0.12372993  0.75602190  0.38196028  1
  V  V65  1  0.75794923  0.25047286  0.49331619  1
  V  V66  1  0.37528560  0.75110559  0.13119330  1
  V  V67  1  0.00268129  0.75623539  0.74754435  1
  V  V68  1  0.11602646  0.00894399  0.13092626  1
  V  V69  1  0.73790853  0.49282556  0.74720044  1
  V  V70  1  0.62769797  0.74808190  0.87818131  1
  V  V71  1  0.88003916  0.50032209  0.87593745  1
  V  V72  1  0.87577930  0.38091823  0.00756469  1
  V  V73  1  0.75351626  0.49700881  0.24519199  1
  V  V74  1  0.37589405  0.37515434  0.00082845  1
  V  V75  1  0.12807355  0.50293729  0.61238343  1
  V  V76  1  0.62465162  0.74879488  0.37202171  1
  V  V77  1  0.49941451  0.75100367  0.74733195  1
  V  V78  1  0.49902727  0.00097038  -0.00012114  1
  V  V79  1  -0.00238684  -0.00985369  0.49491509  1
  V  V80  1  0.38961737  0.37545030  0.49732091  1
  V  V81  1  0.74692493  0.12587686  0.36275180  1
  V  V82  1  0.87674749  0.63143705  0.25046618  1
  V  V83  1  0.63078554  0.25349812  0.87262201  1
  V  V84  1  0.11856293  0.49998280  0.12191851  1
  Zn  Zn85  1  0.24201133  -0.00091334  0.75940955  1
  Zn  Zn86  1  0.62721123  0.62619130  0.00420186  1
  Zn  Zn87  1  0.87653300  0.86734663  0.49247450  1
  Zn  Zn88  1  0.24567486  0.74680543  0.50316757  1
  Zn  Zn89  1  0.87413454  0.12037179  0.24548313  1
  Zn  Zn90  1  0.87529016  0.25828922  0.62124973  1
  Zn  Zn91  1  0.87469663  0.74699835  0.61818534  1
  Zn  Zn92  1  0.12271995  0.24888314  0.37488004  1
  Zn  Zn93  1  0.75157679  0.74623017  0.49793207  1
  Zn  Zn94  1  0.37746158  0.25113774  0.12656540  1
  Zn  Zn95  1  -0.00606203  0.88220668  0.86838633  1
  Zn  Zn96  1  0.75185314  0.62442241  0.37516696  1
  Zn  Zn97  1  0.24126899  0.62187486  0.39090243  1
  Zn  Zn98  1  0.63523274  0.00914118  0.63215475  1
  Zn  Zn99  1  0.24748884  0.62634183  0.87361450  1
  Zn  Zn100  1  0.75082059  0.62390163  0.87431558  1
  Zn  Zn101  1  0.12687467  0.12563099  0.00020221  1
  Zn  Zn102  1  0.62539549  0.86959993  0.24940785  1
  Zn  Zn103  1  0.37469463  0.25032562  0.62510365  1
  Zn  Zn104  1  0.87814311  0.87730640  -0.00450091  1
  Zn  Zn105  1  0.80481850  0.06821515  0.81492855  1
  Zn  Zn106  1  0.87196215  0.49817050  0.37517482  1
  Zn  Zn107  1  0.19084784  0.18771453  0.18863062  1
  Zn  Zn108  1  0.18375965  0.18517792  0.68739182  1
  Zn  Zn109  1  0.18444855  0.68485824  0.19327928  1
  Zn  Zn110  1  0.18797155  0.68730880  0.68445168  1
  Zn  Zn111  1  0.68760389  0.19274311  0.18106442  1
  Zn  Zn112  1  0.68914241  0.19427613  0.68298241  1
  Zn  Zn113  1  0.68772968  0.68764861  0.18878140  1
  Zn  Zn114  1  0.68945246  0.68807593  0.68430447  1
  Zn  Zn115  1  0.31470775  0.31189298  0.31454840  1
  Zn  Zn116  1  0.31500537  0.31354839  0.81266334  1
  Zn  Zn117  1  0.30809217  0.81140004  0.31732921  1
  Zn  Zn118  1  0.30992917  0.81581169  0.80967228  1
  Zn  Zn119  1  0.80937723  0.31075310  0.30871301  1
  Zn  Zn120  1  0.81246478  0.31528080  0.81322349  1
  Zn  Zn121  1  0.81189481  0.80724690  0.30976608  1
  Zn  Zn122  1  0.81544769  0.81564201  0.81063635  1
  Zn  Zn123  1  0.18631850  0.43522764  0.43502879  1
  Zn  Zn124  1  0.18841545  0.43638459  0.93836594  1
  Zn  Zn125  1  0.18482588  0.92817268  0.44308097  1
  Zn  Zn126  1  0.18171482  0.93781457  0.94290574  1
  Zn  Zn127  1  0.68904019  0.43768815  0.43368516  1
  Zn  Zn128  1  0.68957382  0.43981349  0.93579627  1
  Zn  Zn129  1  0.68554948  0.93929864  0.43807107  1
  Zn  Zn130  1  0.69240241  0.93293806  0.93861321  1
  Zn  Zn131  1  0.31130167  0.06317709  0.06796215  1
  Zn  Zn132  1  0.31287924  0.06020312  0.56477342  1
  Zn  Zn133  1  0.30940371  0.56343948  0.06504386  1
  Zn  Zn134  1  0.31721214  0.56479584  0.55980872  1
  Zn  Zn135  1  0.81191864  0.06142866  0.05971402  1
  Zn  Zn136  1  0.81108546  0.06070305  0.55731140  1
  Zn  Zn137  1  0.81131736  0.56338658  0.06245832  1
  Zn  Zn138  1  0.80986023  0.56140147  0.56381753  1
  Zn  Zn139  1  0.44052770  0.43760750  0.19062612  1
  Zn  Zn140  1  0.43635553  0.43499971  0.68681873  1
  Zn  Zn141  1  0.43520346  0.93920059  0.18958649  1
  Zn  Zn142  1  0.43607310  0.93823239  0.68982782  1
  Zn  Zn143  1  0.93903256  0.43674688  0.18877409  1
  Zn  Zn144  1  0.93334374  0.43519320  0.68598600  1
  Zn  Zn145  1  0.93447823  0.93774494  0.18490172  1
  Zn  Zn146  1  0.92850062  0.93963819  0.68617641  1
  Zn  Zn147  1  0.06001836  0.05726630  0.31501261  1
  Zn  Zn148  1  -0.03143652  0.06669001  0.81373971  1
  Zn  Zn149  1  0.06196151  0.56610493  0.31611526  1
  Zn  Zn150  1  0.06207062  0.56465912  0.80853311  1
  Zn  Zn151  1  0.56087912  0.06133763  0.31477677  1
  Zn  Zn152  1  0.64179925  0.06563900  0.81022910  1
  Zn  Zn153  1  0.56492348  0.56366500  0.31025873  1
  Zn  Zn154  1  0.56111131  0.56614935  0.81221569  1
  Zn  Zn155  1  0.43503630  0.18426299  0.44097758  1
  Zn  Zn156  1  0.44238157  0.18682891  0.93570513  1
  Zn  Zn157  1  0.43973394  0.68273511  0.43768213  1
  Zn  Zn158  1  0.43736396  0.68752427  0.94000437  1
  Zn  Zn159  1  0.93509872  0.18201236  0.43291254  1
  Zn  Zn160  1  0.93798126  0.18757193  0.94283890  1
  Zn  Zn161  1  0.94110729  0.68668614  0.43394276  1
  Zn  Zn162  1  0.93973121  0.68817679  0.93357966  1
  Zn  Zn163  1  0.06228367  0.31085334  0.06181872  1
  Zn  Zn164  1  0.06216851  0.31201909  0.56121553  1
  Zn  Zn165  1  0.05924406  0.81398831  0.06197110  1
  Zn  Zn166  1  0.06470036  0.81402288  0.56532954  1
  Zn  Zn167  1  0.56267043  0.31149442  0.06159450  1
  Zn  Zn168  1  0.57011829  0.31179951  0.56453704  1
  Zn  Zn169  1  0.56574346  0.81196221  0.06433779  1
  Zn  Zn170  1  0.56848913  0.80765066  0.55919432  1
  O  O171  1  0.13187923  0.11131085  0.12473896  1
  O  O172  1  0.12017872  0.11775047  0.61317023  1
  O  O173  1  0.11872396  0.61798327  0.11932868  1
  O  O174  1  0.11657432  0.61244223  0.63126962  1
  O  O175  1  0.62206880  0.11792045  0.11396955  1
  O  O176  1  0.61110681  0.12525853  0.61639135  1
  O  O177  1  0.61525437  0.61529008  0.12878967  1
  O  O178  1  0.61783925  0.63051616  0.61099795  1
  O  O179  1  0.37132366  0.38745162  0.38181681  1
  O  O180  1  0.38456623  0.38249027  0.88095405  1
  O  O181  1  0.38195768  0.88264889  0.37293113  1
  O  O182  1  0.38031234  0.87940711  0.88337550  1
  O  O183  1  0.88727288  0.37800347  0.36617089  1
  O  O184  1  0.88347102  0.38064940  0.88235584  1
  O  O185  1  0.86569059  0.88846766  0.37379982  1
  O  O186  1  0.88138670  0.86738331  0.88175130  1
  O  O187  1  0.25491397  -0.00061420  0.37204950  1
  O  O188  1  0.26191101  -0.00663632  0.87859579  1
  O  O189  1  0.25236335  0.50099232  0.36391688  1
  O  O190  1  0.25643931  0.50121819  0.86833592  1
  O  O191  1  0.76153057  0.00886772  0.37975309  1
  O  O192  1  0.71758989  0.03024864  0.89214661  1
  O  O193  1  0.75100049  0.50214951  0.35948505  1
  O  O194  1  0.75983363  0.49994747  0.86314402  1
  O  O195  1  0.24303171  0.49476102  0.13589989  1
  O  O196  1  0.24406046  0.49420067  0.62768872  1
  O  O197  1  0.24302056  0.99397624  0.13470995  1
  O  O198  1  0.24218676  0.99145796  0.62428295  1
  O  O199  1  0.73998362  0.50432817  0.13499270  1
  O  O200  1  0.75031362  0.49118085  0.63539294  1
  O  O201  1  0.74154331  0.98581753  0.11589232  1
  O  O202  1  0.74936182  0.98431290  0.61919707  1
  O  O203  1  0.00676213  0.36755212  0.25577107  1
  O  O204  1  0.00588101  0.36938046  0.75697563  1
  O  O205  1  -0.00581083  0.85914800  0.24318441  1
  O  O206  1  -0.00276019  0.85851673  0.74427356  1
  O  O207  1  0.51186349  0.36523408  0.24540710  1
  O  O208  1  0.49318388  0.36644024  0.75946454  1
  O  O209  1  0.50242965  0.88058038  0.26249472  1
  O  O210  1  0.50199141  0.86286517  0.75497749  1
  O  O211  1  0.49902851  0.13127862  0.24288281  1
  O  O212  1  0.48917341  0.13420059  0.73914451  1
  O  O213  1  0.48555462  0.61797327  0.24263760  1
  O  O214  1  0.49704889  0.63629871  0.74453910  1
  O  O215  1  0.99996418  0.13834577  0.25485440  1
  O  O216  1  1.01338078  0.13942322  0.73487020  1
  O  O217  1  0.99466544  0.62937746  0.24118157  1
  O  O218  1  0.99270217  0.62712944  0.73785202  1
  O  O219  1  0.37096555  0.25732520  -0.00054346  1
  O  O220  1  0.36620102  0.25706544  0.49978473  1
  O  O221  1  0.36763944  0.75386991  0.00899778  1
  O  O222  1  0.37851496  0.74761890  0.51326768  1
  O  O223  1  0.86973726  0.25844520  0.00589765  1
  O  O224  1  0.86204944  0.24530139  0.49888446  1
  O  O225  1  0.86415730  0.74540534  -0.00003985  1
  O  O226  1  0.87312812  0.75018010  0.49890407  1
  O  O227  1  0.13218358  0.24033165  0.49890033  1
  O  O228  1  0.13463836  0.25166852  0.99254790  1
  O  O229  1  0.11894252  0.75130379  0.48614019  1
  O  O230  1  0.12927152  0.74351817  0.99271541  1
  O  O231  1  0.63357596  0.23717610  0.50130544  1
  O  O232  1  0.63350093  0.24538905  0.99496696  1
  O  O233  1  0.62686491  0.73973826  0.48729575  1
  O  O234  1  0.63043392  0.74865221  0.99118453  1
  O  O235  1  0.50117036  0.23706192  0.12767671  1
  O  O236  1  0.49831925  0.24464029  0.63281921  1
  O  O237  1  0.49534132  0.73717403  0.12135013  1
  O  O238  1  0.49466215  0.74772907  0.63226161  1
  O  O239  1  0.99093641  0.25472232  0.13281699  1
  O  O240  1  0.99789845  0.24503855  0.63089696  1
  O  O241  1  1.00799210  0.73993129  0.13590660  1
  O  O242  1  1.00161720  0.73975281  0.62970730  1
  O  O243  1  0.00073956  0.25579002  0.36776960  1
  O  O244  1  0.01017427  0.25938458  0.86809213  1
  O  O245  1  0.01025152  0.74619900  0.36002175  1
  O  O246  1  0.00967015  0.74767682  0.86422392  1
  O  O247  1  0.49850197  0.24181262  0.36371738  1
  O  O248  1  0.50528802  0.26087767  0.86929560  1
  O  O249  1  0.50423703  0.76118827  0.38225371  1
  O  O250  1  0.50498506  0.75468638  0.86931057  1
  O  O251  1  0.24375444  0.12916922  0.49703317  1
  O  O252  1  0.25221002  0.13984206  1.00469073  1
  O  O253  1  0.24972851  0.63172627  0.50457311  1
  O  O254  1  0.23900674  0.63203363  1.00112407  1
  O  O255  1  0.74208016  0.13194643  0.49312340  1
  O  O256  1  0.74287053  0.13993873  1.00670913  1
  O  O257  1  0.73728099  0.62277183  0.49855585  1
  O  O258  1  0.74636731  0.63297766  0.99752946  1
  O  O259  1  0.25769194  0.36885152  0.00598487  1
  O  O260  1  0.25378970  0.36827789  0.50373105  1
  O  O261  1  0.25393344  0.86930224  0.01025048  1
  O  O262  1  0.24938573  0.86792170  0.51832369  1
  O  O263  1  0.76007882  0.36675714  -0.00596648  1
  O  O264  1  0.74537861  0.36842446  0.50624606  1
  O  O265  1  0.75099507  0.86467497  0.00799654  1
  O  O266  1  0.74780657  0.87144822  0.51050732  1
  O  O267  1  0.13190759  0.49449861  0.24433314  1
  O  O268  1  0.13040236  0.49350004  0.74184206  1
  O  O269  1  0.13136945  1.00250153  0.24131391  1
  O  O270  1  0.12502591  1.00750915  0.73595114  1
  O  O271  1  0.62901380  0.48999389  0.24431266  1
  O  O272  1  0.64001034  0.50416658  0.75667572  1
  O  O273  1  0.62052685  1.00056857  0.23595117  1
  O  O274  1  0.60565234  0.97842846  0.74546275  1
  O  O275  1  0.36755042  0.00612790  0.26014400  1
  O  O276  1  0.37633412  0.00773307  0.76284651  1
  O  O277  1  0.36799645  0.50195052  0.25981454  1
  O  O278  1  0.36956741  0.50636031  0.75467854  1
  O  O279  1  0.87955849  0.00256268  0.26226261  1
  O  O280  1  0.88729120  0.00423191  0.76335905  1
  O  O281  1  0.86753126  0.50651732  0.24660473  1
  O  O282  1  0.87002555  0.50829298  0.75577762  1
  O  O283  1  0.11684749  0.37210441  0.36511841  1
  O  O284  1  0.11790681  0.37402049  0.86915475  1
  O  O285  1  0.12977130  0.85801370  0.37103374  1
  O  O286  1  0.12177315  0.86261790  0.87751935  1
  O  O287  1  0.62179894  0.37590473  0.36164752  1
  O  O288  1  0.61219923  0.36985184  0.88133001  1
  O  O289  1  0.61760880  0.86822524  0.37229787  1
  O  O290  1  0.61996606  0.86442641  0.86853153  1
  O  O291  1  0.38571175  0.12506585  0.13350039  1
  O  O292  1  0.38403610  0.12684753  0.62933169  1
  O  O293  1  0.38051035  0.62937901  0.13284012  1
  O  O294  1  0.38485964  0.63253038  0.63241320  1
  O  O295  1  0.87041549  0.13765891  0.12643600  1
  O  O296  1  0.88613854  0.12757656  0.61824736  1
  O  O297  1  0.89015736  0.61760299  0.12856604  1
  O  O298  1  0.88315567  0.62286108  0.63103558  1
  O  O299  1  0.25325906  0.25788351  0.11813633  1
  O  O300  1  0.25055636  0.25635470  0.61801356  1
  O  O301  1  0.25176493  0.75746459  0.12374932  1
  O  O302  1  0.25910951  0.75979222  0.62924288  1
  O  O303  1  0.75976051  0.25595620  0.11536725  1
  O  O304  1  0.75313685  0.26026693  0.61501738  1
  O  O305  1  0.74086983  0.76214612  0.11505004  1
  O  O306  1  0.75219498  0.76083971  0.62113069  1
  O  O307  1  0.24758957  0.24152383  0.38085734  1
  O  O308  1  0.24208517  0.26117111  0.88474554  1
  O  O309  1  0.23884251  0.74691142  0.37888009  1
  O  O310  1  0.24316383  0.74884067  0.88004534  1
  O  O311  1  0.75227631  0.24043724  0.38067476  1
  O  O312  1  0.73633960  0.25741312  0.87940295  1
  O  O313  1  0.74070129  0.74503230  0.37622633  1
  O  O314  1  0.74252847  0.74798741  0.88210050  1
  O  O315  1  0.00723959  0.11273733  0.00292032  1
  O  O316  1  0.00754498  0.12011788  0.50532177  1
  O  O317  1  0.01187787  0.63044811  0.00738944  1
  O  O318  1  -0.00116888  0.61443561  0.51117375  1
  O  O319  1  0.50672752  0.11748259  0.00781533  1
  O  O320  1  0.50474003  0.11813917  0.50547092  1
  O  O321  1  0.50091504  0.61792506  0.00914010  1
  O  O322  1  0.51101286  0.62528810  0.50894718  1
  O  O323  1  0.48862804  0.36691055  0.50572615  1
  O  O324  1  0.49347127  0.38100812  0.99396397  1
  O  O325  1  0.50726478  0.88704214  0.49444496  1
  O  O326  1  0.49348791  0.88150367  1.00035931  1
  O  O327  1  1.00459915  0.38127131  0.48901865  1
  O  O328  1  0.99455462  0.37230060  0.98708470  1
  O  O329  1  0.99813045  0.88725594  0.50437174  1
  O  O330  1  1.00025487  0.89044173  1.00275819  1
  O  O331  1  0.48656504  0.49927613  0.36919198  1
  O  O332  1  0.49588481  0.49546077  0.87922271  1
  O  O333  1  0.49201728  0.99284134  0.38217568  1
  O  O334  1  0.48898392  0.99199106  0.89216867  1
  O  O335  1  1.00138169  0.49199138  0.38349150  1
  O  O336  1  0.98938803  0.49208581  0.86777025  1
  O  O337  1  0.98468018  1.00531721  0.38329479  1
  O  O338  1  1.01854539  0.99785962  0.89246946  1
  O  O339  1  0.01296529  -0.00163711  0.12324237  1
  O  O340  1  0.00486862  0.00717752  0.61675415  1
  O  O341  1  0.01369408  0.50645257  0.12986497  1
  O  O342  1  0.00702806  0.50160408  0.61803149  1
  O  O343  1  0.50359859  0.00855069  0.11871647  1
  O  O344  1  0.49739958  0.00696008  0.61715066  1
  O  O345  1  0.50447287  0.50902315  0.12083039  1
  O  O346  1  0.49891705  0.51382806  0.63399466  1
  O  O347  1  0.24425968  0.37987853  0.24583593  1
  O  O348  1  0.24674808  0.38039634  0.74202326  1
  O  O349  1  0.25631376  0.88757473  0.24381391  1
  O  O350  1  0.25343496  0.88182696  0.73537534  1
  O  O351  1  0.73612166  0.38099878  0.24988650  1
  O  O352  1  0.75139024  0.38823542  0.74489568  1
  O  O353  1  0.74728506  0.86819303  0.23337867  1
  O  O354  1  0.74105464  0.86925664  0.73767672  1
  O  O355  1  0.25475897  0.11451543  0.25664386  1
  O  O356  1  0.26513568  0.12219550  0.74215321  1
  O  O357  1  0.26142979  0.61419922  0.24724251  1
  O  O358  1  0.25785566  0.61834796  0.74961789  1
  O  O359  1  0.74734524  0.13133132  0.25940080  1
  O  O360  1  0.72391923  0.10982002  0.74453758  1
  O  O361  1  0.76052659  0.61819286  0.24777224  1
  O  O362  1  0.75765114  0.61531657  0.74815674  1
  O  O363  1  0.36836487  0.11515251  0.37100556  1
  O  O364  1  0.38098141  0.11585823  0.86768388  1
  O  O365  1  0.37249517  0.61328783  0.36987410  1
  O  O366  1  0.37445488  0.62025973  0.86744121  1
  O  O367  1  0.86397110  0.11575462  0.36971636  1
  O  O368  1  0.88730500  0.13222543  0.86311619  1
  O  O369  1  0.87581575  0.61809450  0.36363402  1
  O  O370  1  0.87548502  0.61599483  0.86700639  1
  O  O371  1  0.12884724  0.38238804  0.13033373  1
  O  O372  1  0.13131788  0.38189259  0.62963706  1
  O  O373  1  0.13593262  0.88504986  0.12332511  1
  O  O374  1  0.13530178  0.88368975  0.62488551  1
  O  O375  1  0.61849810  0.38788318  0.12849068  1
  O  O376  1  0.64378932  0.37086329  0.62933687  1
  O  O377  1  0.63105129  0.88265723  0.12762955  1
  O  O378  1  0.63466443  0.87319887  0.63097251  1
  O  O379  1  0.11860250  0.25624762  0.24872979  1
  O  O380  1  0.12191869  0.25879187  0.75542769  1
  O  O381  1  0.11449419  0.75369850  0.25249307  1
  O  O382  1  0.11612728  0.74022001  0.75953711  1
  O  O383  1  0.61940347  0.26410803  0.24320616  1
  O  O384  1  0.61166182  0.24797309  0.75867023  1
  O  O385  1  0.62334422  0.74591969  0.26554755  1
  O  O386  1  0.61766276  0.75605033  0.75555850  1
  O  O387  1  0.38390837  0.24417625  0.24890872  1
  O  O388  1  0.38393621  0.24361236  0.75109291  1
  O  O389  1  0.36878927  0.73935504  0.24551492  1
  O  O390  1  0.38276318  0.74511288  0.74518689  1
  O  O391  1  0.88243108  0.25097001  0.23961911  1
  O  O392  1  0.88749671  0.25686355  0.74779025  1
  O  O393  1  0.88604760  0.73755112  0.25242837  1
  O  O394  1  0.88258307  0.73537330  0.74763008  1
  O  O395  1  0.37371550  0.49175925  0.48635225  1
  O  O396  1  0.37859087  0.49618547  0.99539707  1
  O  O397  1  0.38339663  1.00520048  0.48933251  1
  O  O398  1  0.37911972  0.99670044  0.99894348  1
  O  O399  1  0.88616755  0.50021240  0.49864711  1
  O  O400  1  0.86858991  0.49285907  0.98896894  1
  O  O401  1  0.88204993  0.99757343  0.48855859  1
  O  O402  1  0.89277047  1.00269040  1.00405526  1
  O  O403  1  0.12183253  0.00382685  0.01573213  1
  O  O404  1  0.11672327  0.00523486  0.50323162  1
  O  O405  1  0.13234687  0.50873730  0.01049907  1
  O  O406  1  0.11753284  0.49438914  0.50954662  1
  O  O407  1  0.61480590  0.00338957  0.00961666  1
  O  O408  1  0.61659577  0.01087952  0.50387498  1
  O  O409  1  0.62005187  0.50230991  0.00685770  1
  O  O410  1  0.62412741  0.51206183  0.49435398  1
  O  O411  1  0.37115767  0.37517627  0.11854453  1
  O  O412  1  0.36673937  0.37491578  0.61549679  1
  O  O413  1  0.36685143  0.87081455  0.12233074  1
  O  O414  1  0.36672251  0.86800024  0.62844991  1
  O  O415  1  0.88243958  0.37137578  0.11086824  1
  O  O416  1  0.85624918  0.37479848  0.62831598  1
  O  O417  1  0.86034913  0.87787968  0.11888797  1
  O  O418  1  0.86332651  0.87087804  0.62065476  1
  O  O419  1  0.13003514  0.12281554  0.38634797  1
  O  O420  1  0.12797071  0.14098442  0.87697442  1
  O  O421  1  0.13024547  0.64309168  0.36092634  1
  O  O422  1  0.12547786  0.62866722  0.88355533  1
  O  O423  1  0.63403225  0.11700936  0.38243738  1
  O  O424  1  0.60359249  0.14295787  0.88817806  1
  O  O425  1  0.62237583  0.62934686  0.38461137  1
  O  O426  1  0.62513449  0.63830714  0.87574458  1
