# generated using pymatgen
data_V85Zn86O256
_symmetry_space_group_name_H-M   'P 1'
_cell_length_a   16.94734463
_cell_length_b   16.94729705
_cell_length_c   16.95372248
_cell_angle_alpha   90.04104372
_cell_angle_beta   89.98221237
_cell_angle_gamma   89.99904650
_symmetry_Int_Tables_number   1
_chemical_formula_structural   V85Zn86O256
_chemical_formula_sum   'V85 Zn86 O256'
_cell_volume   4869.30569425
_cell_formula_units_Z   1
loop_
 _symmetry_equiv_pos_site_id
 _symmetry_equiv_pos_as_xyz
  1  'x, y, z'
loop_
 _atom_site_type_symbol
 _atom_site_label
 _atom_site_symmetry_multiplicity
 _atom_site_fract_x
 _atom_site_fract_y
 _atom_site_fract_z
 _atom_site_occupancy
  V  V0  1  0.75162164  0.87517571  0.12497667  1
  V  V1  1  0.24843425  0.75629625  -0.00006526  1
  V  V2  1  0.61813444  0.61877168  0.48623495  1
  V  V3  1  0.87171222  0.00428703  0.87430491  1
  V  V4  1  0.87540337  0.25043140  0.12586877  1
  V  V5  1  0.25299581  0.49089938  0.25085949  1
  V  V6  1  0.62887122  0.24488093  0.37668669  1
  V  V7  1  0.12490465  0.12487501  0.00206481  1
  V  V8  1  0.61588017  0.49887341  0.62587184  1
  V  V9  1  0.00084273  0.25499296  0.75006833  1
  V  V10  1  0.74921944  0.37556168  0.12372646  1
  V  V11  1  0.49921813  0.00149611  0.00421772  1
  V  V12  1  0.50746806  0.87553077  0.87253396  1
  V  V13  1  0.88084733  0.37781458  -0.00712016  1
  V  V14  1  0.24774064  0.24705963  0.50510609  1
  V  V15  1  0.37359634  -0.00091087  0.87956070  1
  V  V16  1  0.00105113  0.75219984  0.74628799  1
  V  V17  1  0.12434447  -0.00446143  0.62389236  1
  V  V18  1  0.87513024  0.00115960  0.37608860  1
  V  V19  1  0.51555874  0.36090004  0.86921723  1
  V  V20  1  0.12579032  0.62588568  -0.00216271  1
  V  V21  1  0.26245400  0.87116052  0.62579455  1
  V  V22  1  0.62334384  0.37384174  0.25071338  1
  V  V23  1  -0.00048913  0.62612790  0.62219529  1
  V  V24  1  0.37597515  0.50367363  0.38195454  1
  V  V25  1  0.00236510  0.74869139  0.25062716  1
  V  V26  1  0.12914019  0.50239265  0.62725640  1
  V  V27  1  0.87343140  0.87231309  0.50058018  1
  V  V28  1  0.38327233  0.25383642  0.63278291  1
  V  V29  1  0.12314326  0.38452823  0.75730219  1
  V  V30  1  0.87497891  0.62373658  0.25988764  1
  V  V31  1  0.74897698  0.24882611  -0.00521999  1
  V  V32  1  0.12719337  0.75504792  0.86885452  1
  V  V33  1  0.63300038  0.12052395  0.49636583  1
  V  V34  1  0.74881674  0.48953770  0.74856087  1
  V  V35  1  0.24954614  0.26314349  0.00583090  1
  V  V36  1  0.36847661  0.74754684  0.12673635  1
  V  V37  1  0.49873420  0.12677598  0.12802946  1
  V  V38  1  0.25166203  -0.00292505  0.24926716  1
  V  V39  1  0.74772182  -0.00362333  0.74875292  1
  V  V40  1  0.24144341  -0.00902965  0.75411729  1
  V  V41  1  0.00048165  0.48813182  0.49455225  1
  V  V42  1  0.62164046  0.49872473  0.11955065  1
  V  V43  1  0.49499359  0.62015297  0.12204452  1
  V  V44  1  0.00565298  0.00673264  0.49995025  1
  V  V45  1  0.75035551  0.62201176  0.86909296  1
  V  V46  1  0.26161370  0.75308031  0.50217699  1
  V  V47  1  0.74007326  0.86881037  0.62347822  1
  V  V48  1  0.00194801  0.25983958  0.25588978  1
  V  V49  1  0.62125462  -0.00123637  0.62578557  1
  V  V50  1  0.87510458  0.12627577  0.25619379  1
  V  V51  1  0.13392741  0.74841801  0.37496640  1
  V  V52  1  0.00251413  0.12222348  0.12868924  1
  V  V53  1  -0.00025371  0.87691048  0.86946764  1
  V  V54  1  0.88143185  0.48382518  0.37554392  1
  V  V55  1  0.74900457  0.50313395  0.25597447  1
  V  V56  1  0.38187998  0.37936144  0.50492530  1
  V  V57  1  0.74518905  0.73909429  0.48524681  1
  V  V58  1  0.37260709  0.87736046  0.01011724  1
  V  V59  1  0.47896646  0.00266360  0.49600344  1
  V  V60  1  0.13181664  0.49247755  0.12376933  1
  V  V61  1  0.13092922  0.62587825  0.49529689  1
  V  V62  1  0.37022550  0.25896382  0.12656407  1
  V  V63  1  0.87764847  0.12474473  0.74487310  1
  V  V64  1  0.12511771  0.25812087  0.38069087  1
  V  V65  1  0.24999219  0.37776150  0.63263945  1
  V  V66  1  0.37828413  0.63346155  0.74507442  1
  V  V67  1  0.75677091  0.37702270  0.60982135  1
  V  V68  1  0.00328632  0.87422810  0.37647931  1
  V  V69  1  0.61997119  0.62361959  -0.00362288  1
  V  V70  1  0.49949290  0.24848325  0.25359888  1
  V  V71  1  0.24828568  0.12570150  0.87858434  1
  V  V72  1  0.62835662  0.12854033  -0.00139321  1
  V  V73  1  0.00074195  0.62208095  0.12353362  1
  V  V74  1  0.37474251  0.12319301  0.25829547  1
  V  V75  1  0.74635770  0.74968047  -0.00399129  1
  V  V76  1  0.37962536  0.49900033  0.87442046  1
  V  V77  1  0.87502806  0.74709922  0.12330329  1
  V  V78  1  0.12984672  0.87442163  0.24204697  1
  V  V79  1  0.11989053  0.25588236  0.87699078  1
  V  V80  1  0.24596566  0.12171429  0.38028274  1
  V  V81  1  0.37191042  0.12965710  0.75342274  1
  V  V82  1  0.36775301  0.62408157  0.25501078  1
  V  V83  1  0.62463706  0.00153631  0.12882982  1
  V  V84  1  0.75259053  0.00359023  0.25503674  1
  Zn  Zn85  1  0.87524917  0.87572053  -0.00314612  1
  Zn  Zn86  1  0.88313415  0.25694169  0.61582170  1
  Zn  Zn87  1  0.62898930  0.85553246  0.26757597  1
  Zn  Zn88  1  0.01061433  0.12850834  0.62172780  1
  Zn  Zn89  1  0.76010531  0.24841845  0.49064384  1
  Zn  Zn90  1  0.88355540  0.49852686  0.86855939  1
  Zn  Zn91  1  0.49015766  0.87202776  0.38414050  1
  Zn  Zn92  1  0.87127939  0.74705296  0.62332454  1
  Zn  Zn93  1  0.00872450  0.49194011  -0.00738391  1
  Zn  Zn94  1  0.51071420  0.74502618  0.26210419  1
  Zn  Zn95  1  0.49867613  0.63319036  0.61977435  1
  Zn  Zn96  1  0.50066677  0.12960062  0.62850304  1
  Zn  Zn97  1  0.12868937  -0.00500659  0.12236476  1
  Zn  Zn98  1  0.50717615  0.76198053  0.73054101  1
  Zn  Zn99  1  0.62553078  0.75205181  0.86461436  1
  Zn  Zn100  1  0.38462715  0.38871294  0.00277662  1
  Zn  Zn101  1  0.12798391  0.37566908  0.25050086  1
  Zn  Zn102  1  0.87332161  0.62385680  0.74722679  1
  Zn  Zn103  1  0.50139931  0.37762077  0.38279537  1
  Zn  Zn104  1  0.70486358  0.17270606  0.83526403  1
  Zn  Zn105  1  0.25179215  0.62100014  0.86582389  1
  Zn  Zn106  1  -0.00043376  -0.00139232  -0.00123058  1
  Zn  Zn107  1  0.18821204  0.18843535  0.19111723  1
  Zn  Zn108  1  0.18698995  0.18558400  0.68919624  1
  Zn  Zn109  1  0.19028310  0.68198630  0.18740150  1
  Zn  Zn110  1  0.19010440  0.68933194  0.68795049  1
  Zn  Zn111  1  0.68876604  0.18662405  0.18668168  1
  Zn  Zn112  1  0.68682647  0.19145718  0.67403949  1
  Zn  Zn113  1  0.68977932  0.68314320  0.18584250  1
  Zn  Zn114  1  0.67924984  0.68598977  0.68560560  1
  Zn  Zn115  1  0.31279425  0.31359058  0.31824205  1
  Zn  Zn116  1  0.31073310  0.31700102  0.81630685  1
  Zn  Zn117  1  0.31630302  0.81296435  0.31677954  1
  Zn  Zn118  1  0.31806270  0.81153962  0.81259314  1
  Zn  Zn119  1  0.80985025  0.31216315  0.31180655  1
  Zn  Zn120  1  0.81602080  0.31696252  0.80726953  1
  Zn  Zn121  1  0.81360833  0.81377826  0.31052776  1
  Zn  Zn122  1  0.81301054  0.81293786  0.80899227  1
  Zn  Zn123  1  0.19498901  0.43777002  0.43951799  1
  Zn  Zn124  1  0.19629226  0.44275248  0.93344389  1
  Zn  Zn125  1  0.19231790  0.93589717  0.43788622  1
  Zn  Zn126  1  0.18486054  0.93551429  0.93935261  1
  Zn  Zn127  1  0.68537743  0.44097694  0.43485042  1
  Zn  Zn128  1  0.68639709  0.43587985  0.93532419  1
  Zn  Zn129  1  0.68321987  0.93392191  0.43723159  1
  Zn  Zn130  1  0.68951341  0.94222890  0.94038273  1
  Zn  Zn131  1  0.31083062  0.06756409  0.07036305  1
  Zn  Zn132  1  0.30421146  0.06728729  0.57066528  1
  Zn  Zn133  1  0.30858769  0.56186690  0.05758372  1
  Zn  Zn134  1  0.31246522  0.56541307  0.56603728  1
  Zn  Zn135  1  0.81497810  0.06358864  0.06323980  1
  Zn  Zn136  1  0.81413575  0.06263261  0.56438932  1
  Zn  Zn137  1  0.81002408  0.56207305  0.06313079  1
  Zn  Zn138  1  0.81380211  0.55972041  0.55818509  1
  Zn  Zn139  1  0.43888127  0.43737813  0.19031394  1
  Zn  Zn140  1  0.43830941  0.44164904  0.69928433  1
  Zn  Zn141  1  0.42627020  0.91982585  0.21997176  1
  Zn  Zn142  1  0.43601070  0.94555816  0.69086041  1
  Zn  Zn143  1  0.93812949  0.43951700  0.18194013  1
  Zn  Zn144  1  0.93818075  0.43998055  0.68621227  1
  Zn  Zn145  1  0.93959460  0.93658780  0.18705805  1
  Zn  Zn146  1  0.93616316  0.93520423  0.68530349  1
  Zn  Zn147  1  0.06695734  0.06482584  0.31539512  1
  Zn  Zn148  1  0.06194672  0.06467565  0.81168229  1
  Zn  Zn149  1  0.06530397  0.56144666  0.31334803  1
  Zn  Zn150  1  0.05984178  0.56655707  0.81380296  1
  Zn  Zn151  1  0.57416559  0.03390010  0.33020071  1
  Zn  Zn152  1  0.57299865  0.09185334  0.79587119  1
  Zn  Zn153  1  0.55534011  0.56189503  0.30913470  1
  Zn  Zn154  1  0.55713848  0.55818434  0.80954529  1
  Zn  Zn155  1  0.43887237  0.18470946  0.44161081  1
  Zn  Zn156  1  0.43789241  0.19213920  0.93983876  1
  Zn  Zn157  1  0.44309822  0.68812883  0.43522206  1
  Zn  Zn158  1  0.43810162  0.68841491  0.93446638  1
  Zn  Zn159  1  0.93939420  0.19003262  0.43749182  1
  Zn  Zn160  1  0.93711807  0.18771251  0.93559801  1
  Zn  Zn161  1  0.94084832  0.68600063  0.43883698  1
  Zn  Zn162  1  0.93689244  0.68537407  0.93537407  1
  Zn  Zn163  1  0.06102848  0.31034676  0.06667377  1
  Zn  Zn164  1  0.06583145  0.31258273  0.56563453  1
  Zn  Zn165  1  0.05864511  0.81219425  0.05886971  1
  Zn  Zn166  1  0.06931603  0.81724091  0.56427773  1
  Zn  Zn167  1  0.55854713  0.31400864  0.05566517  1
  Zn  Zn168  1  0.56721427  0.31418467  0.56555240  1
  Zn  Zn169  1  0.54452108  0.82809264  0.09816390  1
  Zn  Zn170  1  0.55866510  0.81201552  0.55018617  1
  O  O171  1  0.11762499  0.12599098  0.11955459  1
  O  O172  1  0.12771306  0.10539739  0.63128340  1
  O  O173  1  0.11961456  0.61824504  0.11791102  1
  O  O174  1  0.11829243  0.61939254  0.62088595  1
  O  O175  1  0.61948196  0.12132755  0.11809046  1
  O  O176  1  0.62182260  0.11672147  0.61099887  1
  O  O177  1  0.61687491  0.61684574  0.11713981  1
  O  O178  1  0.62678256  0.61052117  0.61339424  1
  O  O179  1  0.37483431  0.38016041  0.38972609  1
  O  O180  1  0.37348018  0.38777864  0.87771630  1
  O  O181  1  0.39329608  0.89074598  0.32734839  1
  O  O182  1  0.37988788  0.87990002  0.89189446  1
  O  O183  1  0.87789367  0.38447651  0.36767324  1
  O  O184  1  0.87287418  0.37600611  0.89020493  1
  O  O185  1  0.88094610  0.87982332  0.38366372  1
  O  O186  1  0.88179153  0.88581481  0.87323454  1
  O  O187  1  0.24453348  0.01037746  0.36523105  1
  O  O188  1  0.25246331  0.00297941  0.87227081  1
  O  O189  1  0.26242048  0.49710877  0.36578048  1
  O  O190  1  0.26580138  0.50624084  0.87329841  1
  O  O191  1  0.75766057  -0.00505779  0.36145740  1
  O  O192  1  0.75938538  -0.00632129  0.86332606  1
  O  O193  1  0.75925351  0.49439212  0.36083811  1
  O  O194  1  0.75162602  0.50464985  0.86499956  1
  O  O195  1  0.24126225  0.50544044  0.13351501  1
  O  O196  1  0.23634880  0.49337950  0.62175010  1
  O  O197  1  0.24449291  1.00795508  0.14295160  1
  O  O198  1  0.24465563  0.99010278  0.63400493  1
  O  O199  1  0.74312373  0.49397760  0.13383762  1
  O  O200  1  0.74795785  0.49154352  0.62821065  1
  O  O201  1  0.75035309  0.99366248  0.13316245  1
  O  O202  1  0.74348976  0.99232783  0.62881669  1
  O  O203  1  0.00069806  0.36206976  0.24357695  1
  O  O204  1  0.00873910  0.36450267  0.74521917  1
  O  O205  1  0.00519158  0.86771530  0.25687807  1
  O  O206  1  -0.00411060  0.86758813  0.75987847  1
  O  O207  1  0.50527189  0.36153825  0.25064777  1
  O  O208  1  0.49676020  0.37514206  0.76852923  1
  O  O209  1  0.52000798  0.85782411  0.21035425  1
  O  O210  1  0.49114387  0.88017373  0.77031293  1
  O  O211  1  0.49223752  0.13602690  0.24921172  1
  O  O212  1  0.47389103  0.11094359  0.74499500  1
  O  O213  1  0.48720743  0.62538136  0.23855775  1
  O  O214  1  0.49171995  0.62800498  0.74587099  1
  O  O215  1  0.99602131  0.13050501  0.24414398  1
  O  O216  1  0.99719545  0.13754280  0.74883617  1
  O  O217  1  0.99582526  0.62958225  0.24250590  1
  O  O218  1  0.99849037  0.63311850  0.73849176  1
  O  O219  1  0.36305627  0.24655734  0.01101908  1
  O  O220  1  0.36535713  0.25759978  0.51105923  1
  O  O221  1  0.36574480  0.75578090  0.00397142  1
  O  O222  1  0.35935363  0.74015829  0.49509246  1
  O  O223  1  0.87161434  0.25745026  0.00606329  1
  O  O224  1  0.87153606  0.24279025  0.50416208  1
  O  O225  1  0.86441266  0.74816245  0.00552149  1
  O  O226  1  0.86648073  0.75559529  0.49908408  1
  O  O227  1  0.13792210  0.25435800  0.49639639  1
  O  O228  1  0.12923247  0.24663292  0.99633227  1
  O  O229  1  0.12991521  0.74505241  0.49166554  1
  O  O230  1  0.13070212  0.74640001  0.99428639  1
  O  O231  1  0.62600498  0.23860612  0.49406580  1
  O  O232  1  0.63713427  0.24156872  1.00717010  1
  O  O233  1  0.63757454  0.73414858  0.49792830  1
  O  O234  1  0.63918401  0.73997495  0.99857867  1
  O  O235  1  0.49472478  0.24461880  0.13309148  1
  O  O236  1  0.48644121  0.25178785  0.62474196  1
  O  O237  1  0.48233663  0.73125608  0.11577349  1
  O  O238  1  0.50154558  0.74804384  0.61799504  1
  O  O239  1  0.99632257  0.23944166  0.13449163  1
  O  O240  1  1.00315111  0.24682739  0.63457353  1
  O  O241  1  0.99479932  0.74324345  0.13073616  1
  O  O242  1  1.00185682  0.74493084  0.62957234  1
  O  O243  1  0.01265021  0.24298604  0.36668854  1
  O  O244  1  0.01308728  0.24842375  0.86999322  1
  O  O245  1  0.01024977  0.75397374  0.36932279  1
  O  O246  1  0.00452705  0.75531380  0.86675693  1
  O  O247  1  0.50903565  0.25119724  0.36950083  1
  O  O248  1  0.49643817  0.26038771  0.87435132  1
  O  O249  1  0.50149723  0.75911157  0.37485755  1
  O  O250  1  0.50401583  0.77028541  0.88638351  1
  O  O251  1  0.25323510  0.13514495  0.49348730  1
  O  O252  1  0.23812360  0.13170473  0.99887090  1
  O  O253  1  0.23616440  0.63461730  0.51018783  1
  O  O254  1  0.23802407  0.63758433  0.99762880  1
  O  O255  1  0.73655935  0.12507219  0.50314714  1
  O  O256  1  0.74352454  0.13653543  1.00933302  1
  O  O257  1  0.74734368  0.63536655  0.49912936  1
  O  O258  1  0.74256696  0.62971510  0.99415271  1
  O  O259  1  0.25293998  0.36470247  0.00024061  1
  O  O260  1  0.25764364  0.36904360  0.51448115  1
  O  O261  1  0.25419665  0.86436093  0.00056867  1
  O  O262  1  0.24900766  0.86795094  0.51327428  1
  O  O263  1  0.75798430  0.36817114  0.00590844  1
  O  O264  1  0.75074636  0.37600375  0.50757309  1
  O  O265  1  0.75440558  0.86697830  0.00493343  1
  O  O266  1  0.75378877  0.86636224  0.50256235  1
  O  O267  1  0.13392728  0.49939073  0.24325499  1
  O  O268  1  0.11859946  0.49226479  0.74248144  1
  O  O269  1  0.13075034  0.99066323  0.24998730  1
  O  O270  1  0.13614193  1.00041587  0.74921076  1
  O  O271  1  0.63141910  0.49741933  0.24082286  1
  O  O272  1  0.63473914  0.50648816  0.73383370  1
  O  O273  1  0.63798369  1.01548253  0.23591482  1
  O  O274  1  0.63347093  1.00638806  0.73558675  1
  O  O275  1  0.36742045  0.01894310  0.23917063  1
  O  O276  1  0.35886575  0.00535755  0.75926108  1
  O  O277  1  0.36850428  0.50399799  0.25456959  1
  O  O278  1  0.37703415  0.51504284  0.76309675  1
  O  O279  1  0.87164669  0.00625035  0.25387431  1
  O  O280  1  0.87118466  0.00578077  0.75352811  1
  O  O281  1  0.87107766  0.50515352  0.25377275  1
  O  O282  1  0.86568513  0.50328068  0.74973117  1
  O  O283  1  0.13300931  0.36249795  0.37354764  1
  O  O284  1  0.13056345  0.37014418  0.86693393  1
  O  O285  1  0.12043536  0.86718746  0.36691253  1
  O  O286  1  0.11627205  0.86274946  0.87861025  1
  O  O287  1  0.62113984  0.36799503  0.36873151  1
  O  O288  1  0.61670469  0.37154951  0.87599141  1
  O  O289  1  0.60305348  0.91775264  0.35911493  1
  O  O290  1  0.60949956  0.88133978  0.88436109  1
  O  O291  1  0.38079354  0.13788067  0.13438469  1
  O  O292  1  0.36812042  0.13866783  0.63606326  1
  O  O293  1  0.37902568  0.62578250  0.12839322  1
  O  O294  1  0.38003532  0.61726811  0.63996501  1
  O  O295  1  0.88459126  0.13051896  0.13306868  1
  O  O296  1  0.88289960  0.12253693  0.63695899  1
  O  O297  1  0.88358283  0.62692846  0.13002744  1
  O  O298  1  0.88943665  0.62568932  0.62069320  1
  O  O299  1  0.25795221  0.24602940  0.11886305  1
  O  O300  1  0.25242666  0.25792245  0.62106933  1
  O  O301  1  0.26005529  0.74274552  0.11589204  1
  O  O302  1  0.24412172  0.76464838  0.61839397  1
  O  O303  1  0.75695265  0.25681342  0.11935082  1
  O  O304  1  0.74919955  0.26808751  0.62175137  1
  O  O305  1  0.75612148  0.75688459  0.11725684  1
  O  O306  1  0.75124238  0.75679692  0.61454743  1
  O  O307  1  0.24481575  0.24603609  0.38582776  1
  O  O308  1  0.23890959  0.24586875  0.88471729  1
  O  O309  1  0.24042183  0.75790520  0.38352104  1
  O  O310  1  0.24183034  0.75126553  0.88163146  1
  O  O311  1  0.73367272  0.25155184  0.37203688  1
  O  O312  1  0.76324006  0.25134274  0.88909348  1
  O  O313  1  0.75247254  0.75413654  0.38719984  1
  O  O314  1  0.74875939  0.74408843  0.88001870  1
  O  O315  1  0.01048526  0.12787640  0.00814752  1
  O  O316  1  -0.00078623  0.10948168  0.50085405  1
  O  O317  1  0.01337822  0.63027528  0.00597876  1
  O  O318  1  0.01261492  0.62160594  0.50637465  1
  O  O319  1  0.50577045  0.12150792  0.00809701  1
  O  O320  1  0.50689231  0.11829711  0.50850321  1
  O  O321  1  0.51381770  0.62677976  0.00243507  1
  O  O322  1  0.51510129  0.62209024  0.49936270  1
  O  O323  1  0.48530023  0.37038680  0.50412761  1
  O  O324  1  0.49680540  0.37190017  0.98343444  1
  O  O325  1  0.50241005  0.89878448  0.49793601  1
  O  O326  1  0.49082299  0.88413713  1.00467848  1
  O  O327  1  1.00747044  0.38953077  0.50464582  1
  O  O328  1  0.98433656  0.37291912  1.00711332  1
  O  O329  1  0.99130696  0.87880291  0.49535277  1
  O  O330  1  0.99553426  0.87528221  0.98551610  1
  O  O331  1  0.48188823  0.49285550  0.36670321  1
  O  O332  1  0.48819782  0.49110246  0.87351891  1
  O  O333  1  0.48217255  1.01822761  0.39496675  1
  O  O334  1  0.48971626  0.99138930  0.88761913  1
  O  O335  1  0.99485170  0.50179809  0.38223705  1
  O  O336  1  0.99552978  0.50815975  0.88233342  1
  O  O337  1  0.99756973  0.99422435  0.38155507  1
  O  O338  1  0.99463708  0.99211622  0.87336226  1
  O  O339  1  0.00142071  0.01196974  0.12346549  1
  O  O340  1  0.00756982  -0.00339728  0.61708062  1
  O  O341  1  0.00876572  0.50839221  0.11887859  1
  O  O342  1  0.01001511  0.50756384  0.61791027  1
  O  O343  1  0.51102414  0.00893044  0.12350643  1
  O  O344  1  0.50761145  0.00244763  0.62012640  1
  O  O345  1  0.50753968  0.50940994  0.12817405  1
  O  O346  1  0.51458744  0.49719637  0.62793856  1
  O  O347  1  0.25186774  0.38628792  0.24989709  1
  O  O348  1  0.23847065  0.37120023  0.73962634  1
  O  O349  1  0.23972255  0.88404309  0.25414815  1
  O  O350  1  0.25280573  0.87944486  0.74166389  1
  O  O351  1  0.74245259  0.38062458  0.24238082  1
  O  O352  1  0.75034017  0.38548492  0.74212461  1
  O  O353  1  0.74882196  0.88333287  0.24193527  1
  O  O354  1  0.75750152  0.88630467  0.73637669  1
  O  O355  1  0.25597553  0.12156268  0.25974069  1
  O  O356  1  0.25372619  0.11728520  0.76021675  1
  O  O357  1  0.26167044  0.61345753  0.24744956  1
  O  O358  1  0.26854138  0.63723154  0.75041204  1
  O  O359  1  0.76444247  0.11719428  0.24207755  1
  O  O360  1  0.76321846  0.11245330  0.74671906  1
  O  O361  1  0.76377983  0.61310531  0.23994012  1
  O  O362  1  0.75156067  0.61692472  0.75555830  1
  O  O363  1  0.36153395  0.13816512  0.36659185  1
  O  O364  1  0.36655688  0.12045698  0.87414430  1
  O  O365  1  0.37826375  0.61653322  0.36589933  1
  O  O366  1  0.37757416  0.61901028  0.86751110  1
  O  O367  1  0.88192383  0.11765874  0.36226218  1
  O  O368  1  0.88296028  0.11310123  0.86343404  1
  O  O369  1  0.88236880  0.61974306  0.36181546  1
  O  O370  1  0.85986311  0.62314164  0.87580161  1
  O  O371  1  0.12074537  0.38895197  0.12586421  1
  O  O372  1  0.13118624  0.38368189  0.63376866  1
  O  O373  1  0.11576238  0.87449385  0.13802835  1
  O  O374  1  0.13518141  0.88773915  0.62745049  1
  O  O375  1  0.62704149  0.38165691  0.12909875  1
  O  O376  1  0.63722136  0.38992817  0.61736615  1
  O  O377  1  0.64362044  0.88741103  0.11752277  1
  O  O378  1  0.63564444  0.88387599  0.61298492  1
  O  O379  1  0.11856196  0.25401432  0.25735953  1
  O  O380  1  0.12025913  0.25787647  0.75881987  1
  O  O381  1  0.12510951  0.75404886  0.25603441  1
  O  O382  1  0.11261344  0.74561439  0.75722248  1
  O  O383  1  0.61729173  0.25028212  0.25577098  1
  O  O384  1  0.62186848  0.19309374  0.76286375  1
  O  O385  1  0.62614430  0.74551241  0.24740501  1
  O  O386  1  0.62047680  0.75231352  0.75238425  1
  O  O387  1  0.37994653  0.24654827  0.24620933  1
  O  O388  1  0.36170559  0.24206757  0.74421862  1
  O  O389  1  0.37029697  0.73832051  0.24005762  1
  O  O390  1  0.38826207  0.73868826  0.75923682  1
  O  O391  1  0.88162409  0.24288810  0.24807486  1
  O  O392  1  0.88416223  0.24369622  0.74761100  1
  O  O393  1  0.87947472  0.74191744  0.24425445  1
  O  O394  1  0.88691935  0.74674744  0.74526726  1
  O  O395  1  0.36653449  0.49281246  0.49380312  1
  O  O396  1  0.37308440  0.50479460  0.98482197  1
  O  O397  1  0.38117719  1.00622848  0.51244848  1
  O  O398  1  0.37481848  0.99441999  1.00258970  1
  O  O399  1  0.88735476  0.50658234  0.48629169  1
  O  O400  1  0.87268769  0.48362998  1.00396258  1
  O  O401  1  0.88013511  0.99251265  0.49479502  1
  O  O402  1  0.87745927  1.00100870  0.98899380  1
  O  O403  1  0.12183136  0.00975303  0.00277845  1
  O  O404  1  0.11574906  -0.00801188  0.50740787  1
  O  O405  1  0.12957885  0.50875839  0.00598511  1
  O  O406  1  0.12258716  0.50805533  0.50439034  1
  O  O407  1  0.62487595  0.00699586  0.01498505  1
  O  O408  1  0.62326782  0.01039282  0.50712107  1
  O  O409  1  0.63526611  0.50739689  0.01333128  1
  O  O410  1  0.63398973  0.51120694  0.50958350  1
  O  O411  1  0.38232178  0.36293898  0.12221012  1
  O  O412  1  0.36751707  0.37355203  0.62654488  1
  O  O413  1  0.37536070  0.86368827  0.11692758  1
  O  O414  1  0.36093549  0.88017327  0.63010064  1
  O  O415  1  0.86881080  0.36842488  0.11911518  1
  O  O416  1  0.86097132  0.37675247  0.62646875  1
  O  O417  1  0.86669464  0.86979598  0.12353270  1
  O  O418  1  0.86635620  0.87445069  0.61078178  1
  O  O419  1  0.13928183  0.13801035  0.37080822  1
  O  O420  1  0.12815196  0.13324686  0.88397577  1
  O  O421  1  0.12301862  0.63561579  0.38293912  1
  O  O422  1  0.12724886  0.63783129  0.88144068  1
  O  O423  1  0.62039900  0.12803808  0.38888645  1
  O  O424  1  0.62810252  0.10588314  0.89736194  1
  O  O425  1  0.62541457  0.60865972  0.38722032  1
  O  O426  1  0.63406398  0.62198380  0.88148630  1
