# generated using pymatgen
data_V85Zn86O256
_symmetry_space_group_name_H-M   'P 1'
_cell_length_a   16.93725201
_cell_length_b   16.93478927
_cell_length_c   16.93484695
_cell_angle_alpha   90.04141755
_cell_angle_beta   90.02175586
_cell_angle_gamma   90.05416461
_symmetry_Int_Tables_number   1
_chemical_formula_structural   V85Zn86O256
_chemical_formula_sum   'V85 Zn86 O256'
_cell_volume   4857.39792847
_cell_formula_units_Z   1
loop_
 _symmetry_equiv_pos_site_id
 _symmetry_equiv_pos_as_xyz
  1  'x, y, z'
loop_
 _atom_site_type_symbol
 _atom_site_label
 _atom_site_symmetry_multiplicity
 _atom_site_fract_x
 _atom_site_fract_y
 _atom_site_fract_z
 _atom_site_occupancy
  V  V0  1  0.13190248  0.88143422  0.25377339  1
  V  V1  1  0.87289276  0.75450719  0.12331702  1
  V  V2  1  0.38409723  0.38053839  0.50389622  1
  V  V3  1  -0.00030105  0.75364054  0.24923227  1
  V  V4  1  0.74852449  0.62621303  0.37637914  1
  V  V5  1  0.44157501  0.43530203  -0.05941091  1
  V  V6  1  0.62474030  0.36837174  0.25406609  1
  V  V7  1  0.37647569  0.49739288  0.37317181  1
  V  V8  1  0.74925492  -0.00867285  0.24910975  1
  V  V9  1  0.50194534  -0.00076664  0.51343959  1
  V  V10  1  0.24728252  0.49244012  0.75431937  1
  V  V11  1  0.76169968  0.24853539  0.00183213  1
  V  V12  1  0.00338489  0.25222914  0.25042659  1
  V  V13  1  0.13208882  0.49985776  0.13068388  1
  V  V14  1  0.36571672  0.62056387  0.24861037  1
  V  V15  1  0.37418240  0.00133280  0.87944255  1
  V  V16  1  0.62219216  0.25516936  0.87918840  1
  V  V17  1  0.12379261  0.13080591  0.49457611  1
  V  V18  1  0.62322128  0.75204282  0.37760792  1
  V  V19  1  0.86825247  0.87425524  0.50245714  1
  V  V20  1  0.62228400  0.62159311  -0.00342888  1
  V  V21  1  0.12246550  0.74175177  0.37712830  1
  V  V22  1  0.49987009  0.25304276  0.75111260  1
  V  V23  1  -0.00034545  0.12496713  0.62617276  1
  V  V24  1  0.87297294  0.25015157  0.62376480  1
  V  V25  1  0.13101868  0.00513151  0.12972141  1
  V  V26  1  0.50250763  0.12603842  0.13207091  1
  V  V27  1  0.61998492  0.49942749  0.11996322  1
  V  V28  1  0.87530387  0.62803428  0.25015750  1
  V  V29  1  -0.00306935  0.49827496  -0.00058916  1
  V  V30  1  0.86746695  0.12243824  0.74630027  1
  V  V31  1  0.75047568  0.50174987  0.24505938  1
  V  V32  1  0.74984780  0.37380711  0.62552949  1
  V  V33  1  0.86857237  0.00618723  0.37386021  1
  V  V34  1  0.74670043  0.12145105  0.86961980  1
  V  V35  1  0.87580495  0.49777055  0.86115332  1
  V  V36  1  0.36373376  0.12245450  0.25255264  1
  V  V37  1  0.37453555  0.87453633  0.49780882  1
  V  V38  1  0.62453612  0.89061915  0.74734969  1
  V  V39  1  0.49769108  0.87615833  0.87655378  1
  V  V40  1  0.24555909  0.73951905  0.50075266  1
  V  V41  1  0.62107477  0.74751107  0.87420388  1
  V  V42  1  0.37681099  0.61581382  0.75493793  1
  V  V43  1  0.24930992  0.25050981  0.48918537  1
  V  V44  1  0.49741621  0.74753967  0.24946131  1
  V  V45  1  0.37412708  0.25476039  0.11756564  1
  V  V46  1  0.61105487  0.12799958  0.49747763  1
  V  V47  1  0.24596811  0.87263070  0.62927244  1
  V  V48  1  0.12395722  0.51585952  0.62478565  1
  V  V49  1  0.13837116  0.37423305  0.25496686  1
  V  V50  1  0.37968300  0.12524395  0.74609349  1
  V  V51  1  0.25105154  0.13096396  0.88057207  1
  V  V52  1  -0.00172953  0.87652075  0.37472098  1
  V  V53  1  0.74300513  0.88455646  0.62753493  1
  V  V54  1  0.37807652  0.24729757  0.62348510  1
  V  V55  1  0.24984532  -0.00152250  0.74963916  1
  V  V56  1  0.87002050  0.87695157  0.00674514  1
  V  V57  1  0.00059694  0.62613534  0.12466400  1
  V  V58  1  0.11965945  0.76668413  0.87564080  1
  V  V59  1  0.00858134  0.51036793  0.50051589  1
  V  V60  1  0.87833334  0.50063793  0.37455420  1
  V  V61  1  0.37387994  0.74646400  0.62621780  1
  V  V62  1  0.25388151  0.87719211  0.12717505  1
  V  V63  1  0.87402033  -0.00331561  0.87228844  1
  V  V64  1  0.87702204  0.37498568  0.49859715  1
  V  V65  1  0.00845908  0.37047622  0.37697568  1
  V  V66  1  0.61716966  0.61645319  0.50190435  1
  V  V67  1  0.62558116  0.12542476  0.00330465  1
  V  V68  1  0.24056786  0.37099589  0.62795256  1
  V  V69  1  0.12861556  0.13407398  0.00026572  1
  V  V70  1  0.12647084  0.25256190  0.86586505  1
  V  V71  1  0.75877358  0.37362805  0.12287288  1
  V  V72  1  0.25107861  0.62304015  0.87700811  1
  V  V73  1  0.74458118  0.24348272  0.48315908  1
  V  V74  1  0.78074342  0.65075620  0.85162564  1
  V  V75  1  0.49814909  0.74884325  0.74873876  1
  V  V76  1  -0.00400559  0.13303706  0.12553195  1
  V  V77  1  0.74675154  0.75440050  0.00758909  1
  V  V78  1  0.25343937  0.37312658  0.11352260  1
  V  V79  1  0.62789005  -0.00872140  0.12620725  1
  V  V80  1  0.62459607  0.37664845  0.75297289  1
  V  V81  1  -0.00024747  -0.00296820  0.00029329  1
  V  V82  1  0.86749177  0.13176929  0.24931840  1
  V  V83  1  0.12376553  -0.00310003  0.62318316  1
  V  V84  1  0.12294632  0.62615356  -0.00274870  1
  Zn  Zn85  1  0.50157125  0.24856651  0.25914439  1
  Zn  Zn86  1  0.49955430  0.00040099  0.00396513  1
  Zn  Zn87  1  0.50874216  0.37517046  0.38471487  1
  Zn  Zn88  1  0.62567831  0.87186088  0.24877797  1
  Zn  Zn89  1  0.88157131  0.36995478  0.00150328  1
  Zn  Zn90  1  0.00315787  0.25449122  0.74715818  1
  Zn  Zn91  1  0.75176611  0.74486182  0.51359883  1
  Zn  Zn92  1  0.61557428  0.49156172  0.61890407  1
  Zn  Zn93  1  0.74883652  0.50454350  0.74790870  1
  Zn  Zn94  1  0.05635150  0.82981188  0.72320416  1
  Zn  Zn95  1  0.25217210  0.75049284  0.00207227  1
  Zn  Zn96  1  0.95939970  0.66793233  0.65782589  1
  Zn  Zn97  1  0.24460453  0.61510656  0.37569446  1
  Zn  Zn98  1  0.37391836  0.87214418  0.00155635  1
  Zn  Zn99  1  0.50207549  0.87947586  0.37478588  1
  Zn  Zn100  1  0.49470103  0.62194884  0.11930387  1
  Zn  Zn101  1  0.49521997  0.61722281  0.62154863  1
  Zn  Zn102  1  0.37270784  0.00140875  0.37394749  1
  Zn  Zn103  1  0.00459911  0.37549799  0.87045513  1
  Zn  Zn104  1  0.37349820  0.74630682  0.12421158  1
  Zn  Zn105  1  0.24081666  0.11770982  0.37043248  1
  Zn  Zn106  1  -0.00278428  0.00256966  0.49764903  1
  Zn  Zn107  1  0.18769283  0.19464629  0.18665974  1
  Zn  Zn108  1  0.19183106  0.18217860  0.68611400  1
  Zn  Zn109  1  0.18775027  0.69125288  0.18916673  1
  Zn  Zn110  1  0.18607084  0.68749426  0.69521731  1
  Zn  Zn111  1  0.69118373  0.18771925  0.18602506  1
  Zn  Zn112  1  0.68431875  0.18520748  0.68132484  1
  Zn  Zn113  1  0.68423087  0.68672727  0.18751416  1
  Zn  Zn114  1  0.68779941  0.69653286  0.68480882  1
  Zn  Zn115  1  0.32091402  0.30926988  0.31170736  1
  Zn  Zn116  1  0.31532645  0.31494060  0.81826026  1
  Zn  Zn117  1  0.31082352  0.80909004  0.31400662  1
  Zn  Zn118  1  0.30919324  0.80852724  0.81436134  1
  Zn  Zn119  1  0.81758887  0.31561589  0.30781195  1
  Zn  Zn120  1  0.81491174  0.31142671  0.81318187  1
  Zn  Zn121  1  0.81175461  0.81326991  0.31575067  1
  Zn  Zn122  1  0.80681509  0.82421026  0.81269033  1
  Zn  Zn123  1  0.19354502  0.43721966  0.44011919  1
  Zn  Zn124  1  0.18830343  0.43817802  0.93907432  1
  Zn  Zn125  1  0.19133483  0.93872269  0.43912319  1
  Zn  Zn126  1  0.19098540  0.94506291  0.94532458  1
  Zn  Zn127  1  0.69247790  0.43853915  0.43637113  1
  Zn  Zn128  1  0.69507367  0.44033925  0.93487342  1
  Zn  Zn129  1  0.68501045  0.94355308  0.43826409  1
  Zn  Zn130  1  0.68683275  0.93805308  0.93839067  1
  Zn  Zn131  1  0.31347245  0.06508335  0.06487624  1
  Zn  Zn132  1  0.31198153  0.06229546  0.55839196  1
  Zn  Zn133  1  0.31309730  0.55706037  0.06090007  1
  Zn  Zn134  1  0.31395267  0.55839089  0.56394126  1
  Zn  Zn135  1  0.81120226  0.06417226  0.06544820  1
  Zn  Zn136  1  0.80453876  0.06200443  0.56049600  1
  Zn  Zn137  1  0.81063509  0.56818844  0.05447783  1
  Zn  Zn138  1  0.81052780  0.55835448  0.56493238  1
  Zn  Zn139  1  0.43801745  0.43939168  0.18623885  1
  Zn  Zn140  1  0.43793446  0.43631970  0.68911171  1
  Zn  Zn141  1  0.44098275  0.93929843  0.19175768  1
  Zn  Zn142  1  0.43469162  0.93536709  0.68864596  1
  Zn  Zn143  1  0.94134314  0.43785242  0.18791919  1
  Zn  Zn144  1  0.94618517  0.43651066  0.68797288  1
  Zn  Zn145  1  0.93999793  0.94286342  0.18667665  1
  Zn  Zn146  1  0.92795913  0.93768935  0.68309413  1
  Zn  Zn147  1  0.05917411  0.06310810  0.31223195  1
  Zn  Zn148  1  0.04186110  0.02091061  0.79295828  1
  Zn  Zn149  1  0.06155474  0.55954980  0.31102199  1
  Zn  Zn150  1  0.06610037  0.55832794  0.80978856  1
  Zn  Zn151  1  0.56200717  0.06215849  0.32123193  1
  Zn  Zn152  1  0.55799043  0.06734167  0.81442319  1
  Zn  Zn153  1  0.55795326  0.55873077  0.31179533  1
  Zn  Zn154  1  0.56060477  0.55942385  0.81361093  1
  Zn  Zn155  1  0.44087118  0.19230181  0.43413393  1
  Zn  Zn156  1  0.44149795  0.18967830  0.93970933  1
  Zn  Zn157  1  0.43600862  0.68624841  0.43478016  1
  Zn  Zn158  1  0.43462257  0.68467372  0.94014965  1
  Zn  Zn159  1  0.93628742  0.18928776  0.43652691  1
  Zn  Zn160  1  0.94176972  0.18120640  0.93285775  1
  Zn  Zn161  1  0.91696750  0.67209667  0.47525864  1
  Zn  Zn162  1  0.95042630  0.68569394  0.83509994  1
  Zn  Zn163  1  0.06555532  0.31392115  0.06237158  1
  Zn  Zn164  1  0.06299947  0.31210746  0.56311867  1
  Zn  Zn165  1  0.06392234  0.81458086  0.06015709  1
  Zn  Zn166  1  0.05759021  0.80957031  0.55369688  1
  Zn  Zn167  1  0.56377040  0.31294968  0.06616529  1
  Zn  Zn168  1  0.56385813  0.30562363  0.56467189  1
  Zn  Zn169  1  0.55771178  0.81081465  0.06283332  1
  Zn  Zn170  1  0.56394211  0.81012238  0.56361536  1
  O  O171  1  0.12120259  0.12189904  0.12081695  1
  O  O172  1  0.11690408  0.12131386  0.61649077  1
  O  O173  1  0.12329717  0.61804786  0.12198762  1
  O  O174  1  0.12987609  0.61493106  0.62418354  1
  O  O175  1  0.61869584  0.11989575  0.12319872  1
  O  O176  1  0.63921880  0.12419332  0.59759219  1
  O  O177  1  0.62831260  0.61597117  0.11445261  1
  O  O178  1  0.62776907  0.62649865  0.60834296  1
  O  O179  1  0.37327379  0.38321225  0.38465422  1
  O  O180  1  0.37962627  0.37266822  0.88735033  1
  O  O181  1  0.37440572  0.87007460  0.39058569  1
  O  O182  1  0.37997405  0.88372283  0.87410603  1
  O  O183  1  0.88412618  0.38303126  0.37788022  1
  O  O184  1  0.87405281  0.38542228  0.88086442  1
  O  O185  1  0.88091376  0.88772675  0.37435155  1
  O  O186  1  0.86733449  0.89165893  0.88655276  1
  O  O187  1  0.25895746  0.00572413  0.38316159  1
  O  O188  1  0.25667541  0.00850699  0.87081400  1
  O  O189  1  0.26572520  0.50061537  0.37833768  1
  O  O190  1  0.23871850  0.50986445  0.86547781  1
  O  O191  1  0.75876011  -0.00069501  0.36533737  1
  O  O192  1  0.75655544  0.01438983  0.88259446  1
  O  O193  1  0.75611725  0.51019285  0.36719484  1
  O  O194  1  0.76382663  0.51081908  0.87123841  1
  O  O195  1  0.23882799  0.49230789  0.12434620  1
  O  O196  1  0.24071702  0.49271755  0.62999743  1
  O  O197  1  0.23742716  0.99686451  0.12236488  1
  O  O198  1  0.24438613  0.99136254  0.62621485  1
  O  O199  1  0.74589079  0.49563692  0.12711198  1
  O  O200  1  0.74537783  0.48669499  0.62643761  1
  O  O201  1  0.73910861  1.00744165  0.13515863  1
  O  O202  1  0.74770633  0.98631026  0.62241649  1
  O  O203  1  0.00757677  0.36892682  0.25615604  1
  O  O204  1  -0.00233581  0.36735731  0.75697479  1
  O  O205  1  0.00877010  0.87399701  0.25441144  1
  O  O206  1  -0.00046506  0.91491358  0.76551256  1
  O  O207  1  0.51962154  0.37640232  0.24397806  1
  O  O208  1  0.50804184  0.36070947  0.74823367  1
  O  O209  1  0.50064372  0.86193368  0.25379949  1
  O  O210  1  0.50177051  0.87008170  0.75977030  1
  O  O211  1  0.49857644  0.12603638  0.24147863  1
  O  O212  1  0.48807063  0.13526651  0.75351487  1
  O  O213  1  0.49098520  0.63391708  0.25018084  1
  O  O214  1  0.49069497  0.63179617  0.75328616  1
  O  O215  1  0.99513594  0.13369168  0.24424457  1
  O  O216  1  0.99095485  0.12231420  0.73612496  1
  O  O217  1  0.99361231  0.63138645  0.24497738  1
  O  O218  1  0.99674909  0.62453313  0.75239949  1
  O  O219  1  0.37882992  0.24304862  0.01850979  1
  O  O220  1  0.36806579  0.25352496  0.50862350  1
  O  O221  1  0.37115156  0.75328577  0.00568511  1
  O  O222  1  0.36793868  0.75421331  0.50612981  1
  O  O223  1  0.86506728  0.24774862  -0.00779985  1
  O  O224  1  0.86704941  0.25658073  0.50363462  1
  O  O225  1  0.86437766  0.76279998  0.00711670  1
  O  O226  1  0.86375960  0.77260215  0.47795640  1
  O  O227  1  0.13590549  0.24235403  0.50651000  1
  O  O228  1  0.12272025  0.23811211  0.99378243  1
  O  O229  1  0.13268857  0.75608358  0.48793150  1
  O  O230  1  0.12955099  0.74240103  0.99464662  1
  O  O231  1  0.63465296  0.24243009  0.49792884  1
  O  O232  1  0.63262916  0.24523479  0.99365699  1
  O  O233  1  0.62727781  0.74089991  0.48956893  1
  O  O234  1  0.62969677  0.74813128  0.99454143  1
  O  O235  1  0.49271265  0.24419512  0.13142718  1
  O  O236  1  0.48630712  0.25028908  0.63326943  1
  O  O237  1  0.49751594  0.74545052  0.13534808  1
  O  O238  1  0.49279812  0.74471332  0.63177815  1
  O  O239  1  1.00481168  0.24099987  0.13190119  1
  O  O240  1  0.99155804  0.24190458  0.62457358  1
  O  O241  1  0.99634006  0.74629568  0.12962291  1
  O  O242  1  1.00285074  0.77132369  0.64104789  1
  O  O243  1  -0.00198582  0.26333726  0.36933046  1
  O  O244  1  0.01678341  0.24442036  0.87280408  1
  O  O245  1  0.00610964  0.76440261  0.36882729  1
  O  O246  1  0.01950844  0.75894780  0.88623653  1
  O  O247  1  0.49846695  0.26281064  0.37127887  1
  O  O248  1  0.51418935  0.24356348  0.86830434  1
  O  O249  1  0.50780090  0.75180607  0.36927895  1
  O  O250  1  0.50264366  0.75875747  0.87101065  1
  O  O251  1  0.24076429  0.13494137  0.50252482  1
  O  O252  1  0.24211118  0.11957796  0.99185330  1
  O  O253  1  0.25321883  0.63698497  0.49963534  1
  O  O254  1  0.23911772  0.62116818  0.99425202  1
  O  O255  1  0.75592846  0.14256644  0.49446559  1
  O  O256  1  0.74489410  0.13230297  0.99528279  1
  O  O257  1  0.73959189  0.62616451  0.48984647  1
  O  O258  1  0.74367218  0.63967904  0.98620374  1
  O  O259  1  0.24611181  0.37522304  0.01409905  1
  O  O260  1  0.25829035  0.36610256  0.50960183  1
  O  O261  1  0.25224659  0.87627784  0.01356773  1
  O  O262  1  0.25603574  0.86641038  0.51214389  1
  O  O263  1  0.75336895  0.36635713  0.00679315  1
  O  O264  1  0.75402418  0.36775575  0.50525211  1
  O  O265  1  0.75692171  0.86807536  -0.00107041  1
  O  O266  1  0.75063272  0.87714000  0.50829643  1
  O  O267  1  0.11957251  0.48882600  0.24036882  1
  O  O268  1  0.13413844  0.50008245  0.73523740  1
  O  O269  1  0.11919974  0.99388276  0.24157889  1
  O  O270  1  0.13777328  1.01328996  0.73198773  1
  O  O271  1  0.63358445  0.49651049  0.24025402  1
  O  O272  1  0.62699672  0.48406925  0.75345483  1
  O  O273  1  0.63295530  1.00002538  0.24561358  1
  O  O274  1  0.61629071  0.98937259  0.75628761  1
  O  O275  1  0.37887659  0.01897579  0.24817027  1
  O  O276  1  0.37229875  0.00737058  0.75923764  1
  O  O277  1  0.37763671  0.50635225  0.26042517  1
  O  O278  1  0.36378036  0.51029412  0.74603673  1
  O  O279  1  0.86832652  0.00761176  0.25389693  1
  O  O280  1  0.87071523  0.01399233  0.75886230  1
  O  O281  1  0.87192017  0.50765044  0.25481522  1
  O  O282  1  0.87336867  0.49868471  0.75811666  1
  O  O283  1  0.12009811  0.38105175  0.36759218  1
  O  O284  1  0.13054959  0.35481011  0.88103047  1
  O  O285  1  0.11792581  0.87304526  0.36948257  1
  O  O286  1  0.13575774  0.86535809  0.88344752  1
  O  O287  1  0.62843828  0.38559397  0.35722417  1
  O  O288  1  0.63751162  0.36323957  0.86696364  1
  O  O289  1  0.62572173  0.86413853  0.37354484  1
  O  O290  1  0.61664385  0.86893890  0.87047734  1
  O  O291  1  0.38110263  0.13181598  0.13346257  1
  O  O292  1  0.36611820  0.13343640  0.63582681  1
  O  O293  1  0.37562674  0.62251972  0.13427325  1
  O  O294  1  0.37213172  0.63072759  0.63472914  1
  O  O295  1  0.88660502  0.12077670  0.13459582  1
  O  O296  1  0.87809111  0.12712748  0.62876015  1
  O  O297  1  0.88062493  0.63335035  0.12814597  1
  O  O298  1  0.88283194  0.63986553  0.58302571  1
  O  O299  1  0.26462310  0.25662876  0.12687288  1
  O  O300  1  0.25939589  0.25553703  0.62313407  1
  O  O301  1  0.25017067  0.76311706  0.12472757  1
  O  O302  1  0.25090693  0.75495755  0.62101146  1
  O  O303  1  0.74749011  0.25889750  0.11315262  1
  O  O304  1  0.75529638  0.25995960  0.61642790  1
  O  O305  1  0.75265675  0.74631785  0.11484337  1
  O  O306  1  0.74811052  0.77054960  0.62511542  1
  O  O307  1  0.25445820  0.24607803  0.38706634  1
  O  O308  1  0.24308015  0.23850187  0.87019159  1
  O  O309  1  0.23973410  0.74937409  0.38475500  1
  O  O310  1  0.24226277  0.73823461  0.87910932  1
  O  O311  1  0.75396335  0.25895336  0.38569759  1
  O  O312  1  0.74267469  0.24019965  0.88138549  1
  O  O313  1  0.74092215  0.73743663  0.36999612  1
  O  O314  1  0.73534928  0.75302036  0.88537806  1
  O  O315  1  0.00627493  0.12099694  0.01031438  1
  O  O316  1  0.00426373  0.12611767  0.50931442  1
  O  O317  1  0.01453511  0.61734385  0.00865660  1
  O  O318  1  0.01218518  0.60868676  0.48254182  1
  O  O319  1  0.50723374  0.12434789  0.01387192  1
  O  O320  1  0.50359423  0.11754955  0.50170232  1
  O  O321  1  0.51750568  0.63216062  0.00124266  1
  O  O322  1  0.51420853  0.62880135  0.49908203  1
  O  O323  1  0.48759323  0.37000990  0.50588886  1
  O  O324  1  0.50643392  0.37922946  0.99712542  1
  O  O325  1  0.49319257  0.88264208  0.50240063  1
  O  O326  1  0.49751562  0.87770632  0.98768150  1
  O  O327  1  0.99794885  0.37900166  0.49241854  1
  O  O328  1  1.00082447  0.38286762  0.99648504  1
  O  O329  1  0.98874321  0.88010085  0.48932819  1
  O  O330  1  0.99357973  0.89102245  1.00615716  1
  O  O331  1  0.48500880  0.49252419  0.37376689  1
  O  O332  1  0.49501735  0.49329153  0.87565403  1
  O  O333  1  0.49122169  0.99617622  0.38697436  1
  O  O334  1  0.49070488  0.99437086  0.87758624  1
  O  O335  1  0.99893648  0.48876994  0.37944899  1
  O  O336  1  0.99515394  0.49783307  0.88335858  1
  O  O337  1  0.99265058  0.99028655  0.37456220  1
  O  O338  1  0.98425369  1.02001153  0.89163654  1
  O  O339  1  0.01025523  0.01176589  0.12003439  1
  O  O340  1  0.00661130  0.00781054  0.61918138  1
  O  O341  1  0.00970467  0.50467879  0.11965671  1
  O  O342  1  0.01544064  0.49792802  0.61671812  1
  O  O343  1  0.50876428  0.00790566  0.12516341  1
  O  O344  1  0.49347150  -0.00154584  0.61303150  1
  O  O345  1  0.51657183  0.50254460  0.12858434  1
  O  O346  1  0.50433789  0.50511769  0.63261518  1
  O  O347  1  0.24037422  0.36554471  0.24487681  1
  O  O348  1  0.25722490  0.38518234  0.74417694  1
  O  O349  1  0.23787687  0.87209850  0.24671952  1
  O  O350  1  0.25822653  0.88060709  0.73675354  1
  O  O351  1  0.74500756  0.38120256  0.24262577  1
  O  O352  1  0.74314008  0.37189901  0.74108691  1
  O  O353  1  0.74950938  0.88740165  0.24963487  1
  O  O354  1  0.73848801  0.87919358  0.74043821  1
  O  O355  1  0.25996224  0.12962013  0.24999697  1
  O  O356  1  0.26259165  0.11942184  0.75866685  1
  O  O357  1  0.26227696  0.63155394  0.25450418  1
  O  O358  1  0.25523366  0.61610110  0.75847728  1
  O  O359  1  0.76395626  0.12120117  0.24635190  1
  O  O360  1  0.75353797  0.13096185  0.75834519  1
  O  O361  1  0.75589517  0.62085374  0.25541142  1
  O  O362  1  0.73404399  0.62256438  0.76131840  1
  O  O363  1  0.37437179  0.12870226  0.35941173  1
  O  O364  1  0.37121429  0.12025977  0.87146473  1
  O  O365  1  0.37372835  0.61330696  0.37039452  1
  O  O366  1  0.36303349  0.62870858  0.86739993  1
  O  O367  1  0.88506532  0.11413225  0.36453725  1
  O  O368  1  0.86545587  0.12095157  0.86643626  1
  O  O369  1  0.86619717  0.62094830  0.37429219  1
  O  O370  1  0.87541528  0.60922112  0.88877432  1
  O  O371  1  0.13301927  0.38036877  0.13248521  1
  O  O372  1  0.13842845  0.37517308  0.62486277  1
  O  O373  1  0.13234575  0.88426388  0.13248727  1
  O  O374  1  0.13124730  0.88312002  0.62456144  1
  O  O375  1  0.63764186  0.38257867  0.13135112  1
  O  O376  1  0.63296653  0.37097906  0.63279591  1
  O  O377  1  0.61945833  0.88773406  0.12653875  1
  O  O378  1  0.63058567  0.87501009  0.63402823  1
  O  O379  1  0.11301046  0.25851940  0.24855021  1
  O  O380  1  0.12607719  0.23927704  0.76305223  1
  O  O381  1  0.11833915  0.76069674  0.25636442  1
  O  O382  1  0.13110355  0.75517281  0.76869020  1
  O  O383  1  0.62938737  0.26590687  0.24508443  1
  O  O384  1  0.61849431  0.25432004  0.75462266  1
  O  O385  1  0.61732035  0.74785173  0.25971573  1
  O  O386  1  0.61570765  0.75824959  0.75897723  1
  O  O387  1  0.37920602  0.23793665  0.24056824  1
  O  O388  1  0.38113825  0.24476788  0.74644680  1
  O  O389  1  0.38143139  0.74119727  0.25092689  1
  O  O390  1  0.37808436  0.74067583  0.74583298  1
  O  O391  1  0.88838193  0.24330245  0.25297226  1
  O  O392  1  0.87490705  0.23750203  0.74328535  1
  O  O393  1  0.87951495  0.74787413  0.24441102  1
  O  O394  1  0.84879853  0.72183852  0.79542514  1
  O  O395  1  0.37266343  0.49063450  0.49225182  1
  O  O396  1  0.38568724  0.49633593  1.00157329  1
  O  O397  1  0.38372595  0.99105168  0.50278781  1
  O  O398  1  0.37634264  0.99999046  0.98927638  1
  O  O399  1  0.88578360  0.49212165  0.49334860  1
  O  O400  1  0.88924126  0.49939479  1.00069939  1
  O  O401  1  0.87258820  0.99426717  0.48913207  1
  O  O402  1  0.87956791  0.99701204  0.99802742  1
  O  O403  1  0.11653058  0.01081811  0.00749174  1
  O  O404  1  0.12371217  0.00741632  0.51088008  1
  O  O405  1  0.11629676  0.50518681  0.00696979  1
  O  O406  1  0.12243801  0.49310959  0.51504948  1
  O  O407  1  0.62481648  0.00738239  0.00887684  1
  O  O408  1  0.60801575  0.00696318  0.49911211  1
  O  O409  1  0.63717050  0.51120665  0.00592701  1
  O  O410  1  0.62796132  0.51284184  0.49810015  1
  O  O411  1  0.36931759  0.36305326  0.13341999  1
  O  O412  1  0.36577499  0.36818291  0.62055146  1
  O  O413  1  0.36202381  0.88026097  0.12967940  1
  O  O414  1  0.36812401  0.86681461  0.61716433  1
  O  O415  1  0.86344733  0.37946036  0.12488861  1
  O  O416  1  0.86921320  0.37152899  0.61811184  1
  O  O417  1  0.87904595  0.87359896  0.11491642  1
  O  O418  1  0.86110739  0.88167562  0.61278879  1
  O  O419  1  0.12039503  0.12194963  0.39006970  1
  O  O420  1  0.13600689  0.13172838  0.88441491  1
  O  O421  1  0.12639698  0.63843057  0.36437721  1
  O  O422  1  0.13043680  0.63087266  0.88339494  1
  O  O423  1  0.62945014  0.11905620  0.39616498  1
  O  O424  1  0.63063625  0.13080917  0.88121943  1
  O  O425  1  0.62943792  0.62739777  0.38147160  1
  O  O426  1  0.62156789  0.63871758  0.87871745  1
