# generated using pymatgen
data_V85Zn86O256
_symmetry_space_group_name_H-M   'P 1'
_cell_length_a   16.94880482
_cell_length_b   16.94402077
_cell_length_c   16.95934221
_cell_angle_alpha   90.16246590
_cell_angle_beta   89.97955888
_cell_angle_gamma   89.97363448
_symmetry_Int_Tables_number   1
_chemical_formula_structural   V85Zn86O256
_chemical_formula_sum   'V85 Zn86 O256'
_cell_volume   4870.37876756
_cell_formula_units_Z   1
loop_
 _symmetry_equiv_pos_site_id
 _symmetry_equiv_pos_as_xyz
  1  'x, y, z'
loop_
 _atom_site_type_symbol
 _atom_site_label
 _atom_site_symmetry_multiplicity
 _atom_site_fract_x
 _atom_site_fract_y
 _atom_site_fract_z
 _atom_site_occupancy
  V  V0  1  0.74886719  -0.01075104  0.24983286  1
  V  V1  1  0.63841683  0.25233783  0.87476145  1
  V  V2  1  0.24750718  0.62309484  0.87346529  1
  V  V3  1  0.74484774  0.75505126  0.00237869  1
  V  V4  1  0.87706052  0.12909071  0.25162588  1
  V  V5  1  0.12384654  0.49726696  0.12430625  1
  V  V6  1  -0.00257394  0.62574007  0.12561364  1
  V  V7  1  0.61707229  0.61903205  0.00186438  1
  V  V8  1  0.50281099  0.74828336  0.24998608  1
  V  V9  1  0.37695123  0.12738223  0.24970610  1
  V  V10  1  0.37806676  0.63020987  0.74747180  1
  V  V11  1  0.12749991  0.74952413  0.37557399  1
  V  V12  1  -0.00170328  0.87798758  0.37769085  1
  V  V13  1  0.12775065  0.12932864  0.50316327  1
  V  V14  1  0.85450151  0.25499459  0.12541889  1
  V  V15  1  0.62743641  0.62652225  0.49994301  1
  V  V16  1  0.37849275  0.24870474  0.62070815  1
  V  V17  1  0.88742334  0.24714483  0.62106496  1
  V  V18  1  0.87566392  0.49510622  0.87378918  1
  V  V19  1  0.24925127  0.37444836  0.12413643  1
  V  V20  1  0.86837736  0.75500884  0.12473941  1
  V  V21  1  0.50305129  0.12616461  0.12517088  1
  V  V22  1  0.62973394  0.37545482  0.25712682  1
  V  V23  1  0.12056749  0.24887295  0.37239510  1
  V  V24  1  0.25020178  0.00257469  0.24989888  1
  V  V25  1  0.38201100  0.50604944  0.37127565  1
  V  V26  1  0.74963013  0.13461917  0.37803558  1
  V  V27  1  0.11633977  0.50207733  0.62373569  1
  V  V28  1  0.38227124  0.49848397  0.87610901  1
  V  V29  1  0.74783771  0.62656633  0.87509723  1
  V  V30  1  0.74553678  0.49105357  0.74870252  1
  V  V31  1  0.37633338  0.00033757  0.37324014  1
  V  V32  1  0.50006455  0.63235433  0.62479160  1
  V  V33  1  0.50157464  0.25824203  0.75454320  1
  V  V34  1  0.87377044  0.62308246  0.25171806  1
  V  V35  1  -0.00518875  0.87354121  0.87170433  1
  V  V36  1  -0.00035646  0.37542507  0.37600204  1
  V  V37  1  0.37603055  0.87478686  -0.00097962  1
  V  V38  1  0.75065718  0.62363818  0.37847464  1
  V  V39  1  0.62171463  0.49657767  0.62745034  1
  V  V40  1  -0.00510511  0.74716415  0.73501922  1
  V  V41  1  0.12046448  0.36938364  0.24561505  1
  V  V42  1  0.37999962  -0.00590656  0.87179957  1
  V  V43  1  0.25025889  0.75404642  0.51044419  1
  V  V44  1  0.25090369  0.50650094  0.25147756  1
  V  V45  1  0.25143588  0.37280431  0.61548422  1
  V  V46  1  0.62732329  0.13258135  0.50789455  1
  V  V47  1  0.62958827  -0.01188732  0.12736032  1
  V  V48  1  0.12374001  0.00018100  0.12494697  1
  V  V49  1  0.50117782  -0.00150974  -0.00121029  1
  V  V50  1  0.12190111  0.62333086  -0.00184680  1
  V  V51  1  0.50385818  0.00399100  0.50734271  1
  V  V52  1  0.38153626  0.37172320  0.49117699  1
  V  V53  1  0.25141055  0.13245542  0.37907601  1
  V  V54  1  0.86862586  0.86400826  0.50956433  1
  V  V55  1  0.12042795  0.62527412  0.50318420  1
  V  V56  1  0.63130471  0.75467026  0.37118489  1
  V  V57  1  0.37361949  0.74552513  0.13218051  1
  V  V58  1  0.25229032  0.25112495  -0.00250383  1
  V  V59  1  0.25075538  0.49743187  0.74643383  1
  V  V60  1  0.38134193  0.12618411  0.74636827  1
  V  V61  1  0.25134494  0.12599625  0.87152253  1
  V  V62  1  0.50133234  0.25521225  0.25933192  1
  V  V63  1  -0.00328608  0.00397188  0.50620180  1
  V  V64  1  -0.00337881  0.49633334  -0.00414301  1
  V  V65  1  0.37446039  0.87596540  0.50418971  1
  V  V66  1  0.00033910  0.13738753  0.12750533  1
  V  V67  1  0.49562902  0.61511059  0.12850521  1
  V  V68  1  0.87611366  0.12844084  0.76297475  1
  V  V69  1  0.11358618  0.37082496  0.75343471  1
  V  V70  1  0.24708210  0.74980232  -0.00006772  1
  V  V71  1  0.12274205  0.74883494  0.87166783  1
  V  V72  1  0.74352182  0.36309031  0.61727891  1
  V  V73  1  0.24964325  0.87543032  0.12480566  1
  V  V74  1  -0.00158455  -0.00341902  0.00118758  1
  V  V75  1  0.12438439  0.87624369  0.25119366  1
  V  V76  1  0.12644804  0.12351984  -0.00202984  1
  V  V77  1  0.60663317  0.75305073  0.87064381  1
  V  V78  1  0.38336786  0.37804617  -0.00012316  1
  V  V79  1  0.87574633  0.62791800  0.73739579  1
  V  V80  1  0.85949367  0.37427448  0.00425910  1
  V  V81  1  0.25084928  -0.01102949  0.74333912  1
  V  V82  1  0.64081422  0.12818223  -0.00293747  1
  V  V83  1  0.50446756  0.87777238  0.37147067  1
  V  V84  1  0.63025678  0.49066424  0.12108759  1
  Zn  Zn85  1  0.63137677  0.00397443  0.62982826  1
  Zn  Zn86  1  0.74662021  -0.00068511  0.75703968  1
  Zn  Zn87  1  0.10789343  0.24266170  0.85809239  1
  Zn  Zn88  1  0.86627109  0.87756431  0.00303272  1
  Zn  Zn89  1  0.87576965  0.49821859  0.37706211  1
  Zn  Zn90  1  0.50710895  0.37728829  0.87741035  1
  Zn  Zn91  1  0.12735005  0.87042145  0.74121242  1
  Zn  Zn92  1  0.61321893  0.88372475  0.75116084  1
  Zn  Zn93  1  0.86836299  0.00596598  0.87955761  1
  Zn  Zn94  1  -0.00540222  0.50335274  0.50107348  1
  Zn  Zn95  1  0.37783773  0.75780049  0.63111467  1
  Zn  Zn96  1  0.13179868  -0.00454473  0.62203832  1
  Zn  Zn97  1  0.87035740  0.37252638  0.49607082  1
  Zn  Zn98  1  0.75016195  0.86946030  0.63374234  1
  Zn  Zn99  1  0.75350415  0.49538479  0.24664899  1
  Zn  Zn100  1  -0.00075466  0.75166283  0.25024984  1
  Zn  Zn101  1  0.50325394  0.49552329  0.49396059  1
  Zn  Zn102  1  0.62666691  0.25725971  0.38315447  1
  Zn  Zn103  1  0.25338629  0.62765754  0.37320419  1
  Zn  Zn104  1  0.00725634  0.12856666  0.63563502  1
  Zn  Zn105  1  0.87218004  0.00200265  0.37859962  1
  Zn  Zn106  1  0.37889271  0.25243885  0.12549122  1
  Zn  Zn107  1  0.18899625  0.18976597  0.18546352  1
  Zn  Zn108  1  0.19396164  0.18884661  0.68479221  1
  Zn  Zn109  1  0.18525916  0.68682995  0.18810498  1
  Zn  Zn110  1  0.18702664  0.68697291  0.68661148  1
  Zn  Zn111  1  0.68471145  0.18193019  0.19221786  1
  Zn  Zn112  1  0.68967023  0.18428767  0.69468330  1
  Zn  Zn113  1  0.68592145  0.68481019  0.18901421  1
  Zn  Zn114  1  0.69247499  0.68946776  0.69039189  1
  Zn  Zn115  1  0.30994573  0.31451807  0.31158816  1
  Zn  Zn116  1  0.31047841  0.31316969  0.81081833  1
  Zn  Zn117  1  0.31311040  0.81383565  0.31416362  1
  Zn  Zn118  1  0.43213925  0.80938496  0.81625790  1
  Zn  Zn119  1  0.81330286  0.31141437  0.30751707  1
  Zn  Zn120  1  0.81872337  0.31178855  0.80729988  1
  Zn  Zn121  1  0.81548061  0.80988008  0.31645302  1
  Zn  Zn122  1  0.80706741  0.81417669  0.81228537  1
  Zn  Zn123  1  0.18927518  0.43813778  0.43594269  1
  Zn  Zn124  1  0.18945102  0.43616107  0.93440123  1
  Zn  Zn125  1  0.18830946  0.94087068  0.44010309  1
  Zn  Zn126  1  0.18789520  0.93547635  0.93068523  1
  Zn  Zn127  1  0.69012089  0.44144216  0.43673302  1
  Zn  Zn128  1  0.68597431  0.43829650  0.93645122  1
  Zn  Zn129  1  0.68873029  0.94210203  0.43695721  1
  Zn  Zn130  1  0.68593553  0.93631992  0.93162001  1
  Zn  Zn131  1  0.31520860  0.06368934  0.06244916  1
  Zn  Zn132  1  0.31567329  0.06382527  0.56192577  1
  Zn  Zn133  1  0.31226858  0.56108762  0.06211817  1
  Zn  Zn134  1  0.31026194  0.56295177  0.55807984  1
  Zn  Zn135  1  0.81457137  0.06009367  0.06765257  1
  Zn  Zn136  1  0.81001474  0.05890176  0.56884623  1
  Zn  Zn137  1  0.80836075  0.56562461  0.06144306  1
  Zn  Zn138  1  0.80964961  0.55656661  0.55946561  1
  Zn  Zn139  1  0.43866525  0.43446168  0.19105507  1
  Zn  Zn140  1  0.43755955  0.43691008  0.68629337  1
  Zn  Zn141  1  0.44059146  0.93616717  0.18751914  1
  Zn  Zn142  1  0.45478056  0.93502808  0.68087443  1
  Zn  Zn143  1  0.93847746  0.43454898  0.18689573  1
  Zn  Zn144  1  0.93250975  0.43515017  0.68494026  1
  Zn  Zn145  1  0.93586725  0.93940219  0.18910889  1
  Zn  Zn146  1  0.93474462  0.94102488  0.68755175  1
  Zn  Zn147  1  0.05996377  0.06278690  0.31397665  1
  Zn  Zn148  1  0.05943556  0.06122084  0.81078662  1
  Zn  Zn149  1  0.06253725  0.56149177  0.31303258  1
  Zn  Zn150  1  0.05779697  0.55979676  0.80850103  1
  Zn  Zn151  1  0.56770178  0.06497193  0.31436545  1
  Zn  Zn152  1  0.56328645  0.06697419  0.81483941  1
  Zn  Zn153  1  0.56255070  0.56317910  0.30844418  1
  Zn  Zn154  1  0.56165845  0.56417232  0.81033308  1
  Zn  Zn155  1  0.44078042  0.18780930  0.43973559  1
  Zn  Zn156  1  0.44025094  0.18693049  0.93557699  1
  Zn  Zn157  1  0.44120075  0.68713058  0.44000771  1
  Zn  Zn158  1  0.43145264  0.67795203  0.94723736  1
  Zn  Zn159  1  0.93859306  0.19017560  0.44047082  1
  Zn  Zn160  1  0.93460757  0.19133200  0.94252328  1
  Zn  Zn161  1  0.94046242  0.68914454  0.43790714  1
  Zn  Zn162  1  0.93324645  0.68638536  0.93456505  1
  Zn  Zn163  1  0.04683718  0.29953042  0.02554036  1
  Zn  Zn164  1  0.06663513  0.31342029  0.55897549  1
  Zn  Zn165  1  0.05980598  0.81201669  0.06249327  1
  Zn  Zn166  1  0.06399678  0.81863510  0.56312712  1
  Zn  Zn167  1  0.56647606  0.30870529  0.06279190  1
  Zn  Zn168  1  0.55851618  0.31161835  0.56637465  1
  Zn  Zn169  1  0.56000602  0.81008534  0.05991824  1
  Zn  Zn170  1  0.60133470  0.79679873  0.57884070  1
  O  O171  1  0.11893850  0.11894131  0.12118305  1
  O  O172  1  0.12702532  0.12385758  0.61656836  1
  O  O173  1  0.11621384  0.61964325  0.11866894  1
  O  O174  1  0.13065410  0.61413141  0.61648664  1
  O  O175  1  0.61936220  0.11956423  0.11493130  1
  O  O176  1  0.63004416  0.12638974  0.61082263  1
  O  O177  1  0.61521616  0.61835628  0.11943106  1
  O  O178  1  0.61928867  0.61649043  0.61716879  1
  O  O179  1  0.36560000  0.38413706  0.38472810  1
  O  O180  1  0.37248936  0.38299962  0.88237073  1
  O  O181  1  0.38157029  0.88223632  0.37871555  1
  O  O182  1  0.37150691  0.88368987  0.88654261  1
  O  O183  1  0.88626456  0.37247515  0.37184434  1
  O  O184  1  0.86745260  0.38784339  0.88288473  1
  O  O185  1  0.88875206  0.87613899  0.37875237  1
  O  O186  1  0.88797598  0.86716882  0.88157526  1
  O  O187  1  0.25473719  0.01013210  0.36754399  1
  O  O188  1  0.26059293  0.00732491  0.87002965  1
  O  O189  1  0.25685135  0.50255084  0.36618780  1
  O  O190  1  0.25631836  0.50465234  0.86531121  1
  O  O191  1  0.75075522  0.01118000  0.36294848  1
  O  O192  1  0.75658548  -0.00425990  0.87391250  1
  O  O193  1  0.75449103  0.50878989  0.36791928  1
  O  O194  1  0.75143099  0.50849434  0.86691117  1
  O  O195  1  0.24429641  0.49430196  0.13037892  1
  O  O196  1  0.24404565  0.49379891  0.63037614  1
  O  O197  1  0.24401866  0.99675646  0.12977386  1
  O  O198  1  0.25441377  1.00457713  0.64027286  1
  O  O199  1  0.73434620  0.51077172  0.12996014  1
  O  O200  1  0.73951188  0.49186413  0.63019204  1
  O  O201  1  0.74429698  1.00213699  0.13905351  1
  O  O202  1  0.74899042  0.98926119  0.63215553  1
  O  O203  1  0.01383325  0.38046225  0.25785796  1
  O  O204  1  0.01507743  0.38125826  0.74793798  1
  O  O205  1  0.00606756  0.87567002  0.25888567  1
  O  O206  1  -0.00224480  0.86557355  0.75702939  1
  O  O207  1  0.51248655  0.36489117  0.24457538  1
  O  O208  1  0.49404190  0.36244981  0.75480945  1
  O  O209  1  0.49427614  0.86449056  0.26104620  1
  O  O210  1  0.49730989  0.88052588  0.76456025  1
  O  O211  1  0.49806334  0.13124012  0.24322431  1
  O  O212  1  0.48516362  0.13557415  0.75752278  1
  O  O213  1  0.50069438  0.63808540  0.24274999  1
  O  O214  1  0.48876526  0.61721911  0.73882226  1
  O  O215  1  0.98655308  0.11668487  0.24123079  1
  O  O216  1  0.98815449  0.12613152  0.74968512  1
  O  O217  1  0.99393406  0.62768892  0.24239929  1
  O  O218  1  0.98342127  0.62992400  0.75300479  1
  O  O219  1  0.36647734  0.25576626  0.00022557  1
  O  O220  1  0.37997567  0.25760196  0.50717643  1
  O  O221  1  0.36771953  0.75470708  0.01011515  1
  O  O222  1  0.36751514  0.75850702  0.49738289  1
  O  O223  1  0.87227160  0.25931269  0.01608300  1
  O  O224  1  0.87587072  0.25404016  0.51512821  1
  O  O225  1  0.86310784  0.74633333  0.00755662  1
  O  O226  1  0.87985753  0.76573955  0.49648872  1
  O  O227  1  0.12492463  0.23763498  0.49090355  1
  O  O228  1  0.14588902  0.23902520  1.01074400  1
  O  O229  1  0.13134784  0.74633753  0.49395552  1
  O  O230  1  0.12610314  0.74274333  0.99424941  1
  O  O231  1  0.61774803  0.23725830  0.49937151  1
  O  O232  1  0.62422402  0.23644952  0.99309929  1
  O  O233  1  0.61278815  0.73216108  0.48308139  1
  O  O234  1  0.62675484  0.73899805  0.99469560  1
  O  O235  1  0.50043696  0.23817271  0.13124406  1
  O  O236  1  0.48694755  0.25444026  0.63642959  1
  O  O237  1  0.49279841  0.74380164  0.13143493  1
  O  O238  1  0.49988623  0.73453265  0.61866857  1
  O  O239  1  1.00163912  0.23800587  0.11787503  1
  O  O240  1  0.99009837  0.25319685  0.62326519  1
  O  O241  1  0.99404228  0.73795936  0.12440498  1
  O  O242  1  1.00402778  0.74954889  0.63644369  1
  O  O243  1  0.01341955  0.25559579  0.37512225  1
  O  O244  1  0.01786990  0.26010605  0.92017879  1
  O  O245  1  0.01267674  0.75880143  0.37405512  1
  O  O246  1  0.00805733  0.75284449  0.87243753  1
  O  O247  1  0.50383684  0.24630106  0.36200359  1
  O  O248  1  0.50625588  0.25340572  0.86982851  1
  O  O249  1  0.50476549  0.75570733  0.36660897  1
  O  O250  1  0.50230982  0.74178429  0.88277409  1
  O  O251  1  0.24308594  0.11880263  0.48807062  1
  O  O252  1  0.25019049  0.12953978  0.99027546  1
  O  O253  1  0.24053414  0.63531011  0.49558869  1
  O  O254  1  0.24233942  0.62956952  0.99463703  1
  O  O255  1  0.73687042  0.11806544  0.49134742  1
  O  O256  1  0.73842670  0.12102903  1.00458202  1
  O  O257  1  0.74289299  0.62109128  0.48728300  1
  O  O258  1  0.73858628  0.63045718  0.99198574  1
  O  O259  1  0.25567444  0.36755387  0.00342597  1
  O  O260  1  0.25681554  0.37908267  0.51083904  1
  O  O261  1  0.25259533  0.86874397  0.00544282  1
  O  O262  1  0.26129755  0.86692418  0.49008888  1
  O  O263  1  0.76069192  0.38626938  0.00586135  1
  O  O264  1  0.74898094  0.37667609  0.51392117  1
  O  O265  1  0.74705039  0.85854452  -0.00097150  1
  O  O266  1  0.76868144  0.88102765  0.49292522  1
  O  O267  1  0.13172224  0.49344430  0.24393920  1
  O  O268  1  0.13151399  0.49406056  0.74252223  1
  O  O269  1  0.12965963  0.99559301  0.24543691  1
  O  O270  1  0.14208911  1.00186118  0.75276342  1
  O  O271  1  0.62402173  0.48775046  0.24344821  1
  O  O272  1  0.63463824  0.50648617  0.74122749  1
  O  O273  1  0.63937284  1.00628801  0.24165799  1
  O  O274  1  0.62629267  1.00646697  0.74883140  1
  O  O275  1  0.37113844  0.00645719  0.25434617  1
  O  O276  1  0.36862814  0.00764565  0.75647105  1
  O  O277  1  0.36648130  0.49132352  0.26330837  1
  O  O278  1  0.36704829  0.50579755  0.75482738  1
  O  O279  1  0.86476073  0.00836070  0.25045949  1
  O  O280  1  0.87853544  0.01536747  0.75481454  1
  O  O281  1  0.87533037  0.51248480  0.24795994  1
  O  O282  1  0.86910973  0.50781467  0.75576592  1
  O  O283  1  0.12336008  0.36697903  0.36759641  1
  O  O284  1  0.13277793  0.37551650  0.85517082  1
  O  O285  1  0.11678999  0.87088636  0.37310128  1
  O  O286  1  0.11429832  0.86543532  0.87028164  1
  O  O287  1  0.62658230  0.37564863  0.36241063  1
  O  O288  1  0.62281031  0.35799820  0.88537266  1
  O  O289  1  0.61730979  0.86589581  0.38089134  1
  O  O290  1  0.61901023  0.85402970  0.88236308  1
  O  O291  1  0.38462307  0.12564380  0.13251271  1
  O  O292  1  0.36830783  0.13690460  0.63384051  1
  O  O293  1  0.38296022  0.63322145  0.11826631  1
  O  O294  1  0.38200528  0.62305301  0.63103127  1
  O  O295  1  0.88053431  0.13609286  0.12980769  1
  O  O296  1  0.87912300  0.13922012  0.62362546  1
  O  O297  1  0.88051923  0.63172687  0.13082946  1
  O  O298  1  0.86611421  0.62088659  0.63924382  1
  O  O299  1  0.25737102  0.25709275  0.11890027  1
  O  O300  1  0.26521300  0.26235640  0.63073723  1
  O  O301  1  0.25546596  0.75303714  0.12134651  1
  O  O302  1  0.25450550  0.74738773  0.61323493  1
  O  O303  1  0.75661498  0.24652526  0.12705057  1
  O  O304  1  0.75249241  0.26233121  0.63155112  1
  O  O305  1  0.75686428  0.74045559  0.11646900  1
  O  O306  1  0.70962608  0.76381216  0.61208539  1
  O  O307  1  0.24068322  0.23862447  0.36881367  1
  O  O308  1  0.24855259  0.24171111  0.88143255  1
  O  O309  1  0.23936444  0.75027637  0.37880935  1
  O  O310  1  0.23203419  0.74107390  0.88164837  1
  O  O311  1  0.74912176  0.23864601  0.37088610  1
  O  O312  1  0.73715574  0.25352775  0.86819252  1
  O  O313  1  0.73827728  0.74278289  0.36940761  1
  O  O314  1  0.74161051  0.73769531  0.88294839  1
  O  O315  1  0.00419548  0.11167101  0.00939308  1
  O  O316  1  0.00918837  0.11871350  0.50088040  1
  O  O317  1  0.00072136  0.61688723  0.00667868  1
  O  O318  1  0.01564820  0.62384512  0.49467597  1
  O  O319  1  0.50056202  0.11569263  0.00993862  1
  O  O320  1  0.51660171  0.11574682  0.48699121  1
  O  O321  1  0.50858785  0.62529302  0.01260537  1
  O  O322  1  0.50616909  0.61610442  0.50680714  1
  O  O323  1  0.48688724  0.37867021  0.50325990  1
  O  O324  1  0.48598322  0.36945332  1.00100147  1
  O  O325  1  0.49055267  0.88720238  0.48288632  1
  O  O326  1  0.49259750  0.89060707  1.00766317  1
  O  O327  1  1.00440040  0.37673941  0.48515244  1
  O  O328  1  0.98394984  0.39484903  1.01321892  1
  O  O329  1  0.99316863  0.88342294  0.49388662  1
  O  O330  1  1.00182494  0.88520393  0.99479455  1
  O  O331  1  0.48558751  0.50131931  0.37104934  1
  O  O332  1  0.48649364  0.49744425  0.86974458  1
  O  O333  1  0.49570135  0.99384056  0.37301775  1
  O  O334  1  0.48695278  1.01019061  0.88607527  1
  O  O335  1  0.99947471  0.49000143  0.37651959  1
  O  O336  1  0.98826716  0.50562245  0.88379780  1
  O  O337  1  0.99957428  0.99333515  0.38541861  1
  O  O338  1  0.99718838  0.99048134  0.88365705  1
  O  O339  1  0.00575457  0.00441804  0.11896458  1
  O  O340  1  0.00313834  0.00428416  0.61456187  1
  O  O341  1  0.00287799  0.51136779  0.12053050  1
  O  O342  1  0.01296430  0.49345900  0.62270306  1
  O  O343  1  0.50658236  0.00957838  0.12269031  1
  O  O344  1  0.48896491  0.01424049  0.60653998  1
  O  O345  1  0.50523706  0.51150710  0.13400540  1
  O  O346  1  0.51227968  0.50211778  0.62522325  1
  O  O347  1  0.24032059  0.38338331  0.24415662  1
  O  O348  1  0.24888108  0.38643920  0.73983128  1
  O  O349  1  0.24467243  0.88204586  0.24457715  1
  O  O350  1  0.25244737  0.89165984  0.75525436  1
  O  O351  1  0.73459044  0.37508311  0.24827820  1
  O  O352  1  0.75491640  0.38725576  0.74075942  1
  O  O353  1  0.75662138  0.89059925  0.25701513  1
  O  O354  1  0.73599854  0.87322688  0.75132370  1
  O  O355  1  0.25656096  0.12110538  0.25494119  1
  O  O356  1  0.25913747  0.12305488  0.76000722  1
  O  O357  1  0.24630575  0.61067032  0.24886817  1
  O  O358  1  0.25448005  0.61384332  0.75245176  1
  O  O359  1  0.76099120  0.11980088  0.25602483  1
  O  O360  1  0.77216218  0.12368605  0.74363556  1
  O  O361  1  0.75788133  0.62439320  0.26007246  1
  O  O362  1  0.75740882  0.61903207  0.75688421  1
  O  O363  1  0.36801181  0.12220995  0.37047742  1
  O  O364  1  0.36748657  0.11863338  0.86981116  1
  O  O365  1  0.37258267  0.61014772  0.37908635  1
  O  O366  1  0.36757343  0.61734810  0.86942949  1
  O  O367  1  0.87113895  0.12653574  0.36766301  1
  O  O368  1  0.87785004  0.12985581  0.86711413  1
  O  O369  1  0.86945256  0.62723088  0.36783043  1
  O  O370  1  0.86312434  0.61477509  0.87138947  1
  O  O371  1  0.12880260  0.38044152  0.13039362  1
  O  O372  1  0.13397716  0.38031405  0.63068787  1
  O  O373  1  0.12991446  0.87917168  0.13042084  1
  O  O374  1  0.12734438  0.88124952  0.62847313  1
  O  O375  1  0.61894612  0.38555340  0.13056027  1
  O  O376  1  0.63477107  0.37993314  0.62333107  1
  O  O377  1  0.61839080  0.88926459  0.12047342  1
  O  O378  1  0.59705367  0.89307005  0.63183255  1
  O  O379  1  0.12943492  0.25940415  0.25636686  1
  O  O380  1  0.12887364  0.26514220  0.74574342  1
  O  O381  1  0.12407730  0.75768867  0.25745605  1
  O  O382  1  0.11620386  0.74667476  0.75743760  1
  O  O383  1  0.61952750  0.26100129  0.24942184  1
  O  O384  1  0.61596994  0.23892721  0.76625797  1
  O  O385  1  0.61546588  0.74761309  0.25803924  1
  O  O386  1  0.61990209  0.74002124  0.77151894  1
  O  O387  1  0.38336745  0.24703103  0.24880554  1
  O  O388  1  0.38021258  0.24461263  0.74579734  1
  O  O389  1  0.37865262  0.75351804  0.23753219  1
  O  O390  1  0.37036627  0.73474791  0.74983903  1
  O  O391  1  0.87474950  0.24309769  0.23507244  1
  O  O392  1  0.87564491  0.24061025  0.73771052  1
  O  O393  1  0.87665973  0.73970236  0.24347591  1
  O  O394  1  0.87933045  0.73516340  0.75654313  1
  O  O395  1  0.37443629  0.49297041  0.48635138  1
  O  O396  1  0.36698423  0.49072715  0.98803806  1
  O  O397  1  0.37952020  0.99634672  0.48982957  1
  O  O398  1  0.38083641  0.99540528  0.99409255  1
  O  O399  1  0.87821638  0.49226690  0.49692005  1
  O  O400  1  0.87764594  0.49916765  0.99364008  1
  O  O401  1  0.88449367  0.99604940  0.49761929  1
  O  O402  1  0.88430233  0.99575244  1.00252364  1
  O  O403  1  0.12065416  0.00482722  0.00327871  1
  O  O404  1  0.11897458  0.01258949  0.49850335  1
  O  O405  1  0.11662554  0.50265107  0.00239832  1
  O  O406  1  0.12769901  0.50823013  0.50731515  1
  O  O407  1  0.61796452  0.00916079  0.00459795  1
  O  O408  1  0.61724443  0.00997723  0.49955104  1
  O  O409  1  0.62558757  0.50786879  0.00748195  1
  O  O410  1  0.62393044  0.50897129  0.50561158  1
  O  O411  1  0.36800772  0.37732498  0.11679129  1
  O  O412  1  0.36861514  0.37231833  0.61545999  1
  O  O413  1  0.36853807  0.86891272  0.11950075  1
  O  O414  1  0.38278830  0.87488524  0.60792715  1
  O  O415  1  0.87463213  0.36180615  0.12374918  1
  O  O416  1  0.86365264  0.36399039  0.62561017  1
  O  O417  1  0.88281589  0.85827080  0.12385467  1
  O  O418  1  0.87493997  0.87340925  0.61352034  1
  O  O419  1  0.13091048  0.13177954  0.37744688  1
  O  O420  1  0.13415101  0.12571912  0.87983486  1
  O  O421  1  0.12780514  0.63473761  0.37902532  1
  O  O422  1  0.12593702  0.62764683  0.87873417  1
  O  O423  1  0.63523009  0.13049265  0.38112980  1
  O  O424  1  0.62105029  0.13515682  0.89179442  1
  O  O425  1  0.63243212  0.62756533  0.37823471  1
  O  O426  1  0.62702660  0.62837008  0.88437098  1
