# generated using pymatgen
data_V85Zn86O256
_symmetry_space_group_name_H-M   'P 1'
_cell_length_a   16.94561858
_cell_length_b   16.94568604
_cell_length_c   16.94207192
_cell_angle_alpha   89.97564954
_cell_angle_beta   90.02221336
_cell_angle_gamma   89.98410317
_symmetry_Int_Tables_number   1
_chemical_formula_structural   V85Zn86O256
_chemical_formula_sum   'V85 Zn86 O256'
_cell_volume   4865.00191131
_cell_formula_units_Z   1
loop_
 _symmetry_equiv_pos_site_id
 _symmetry_equiv_pos_as_xyz
  1  'x, y, z'
loop_
 _atom_site_type_symbol
 _atom_site_label
 _atom_site_symmetry_multiplicity
 _atom_site_fract_x
 _atom_site_fract_y
 _atom_site_fract_z
 _atom_site_occupancy
  V  V0  1  0.49658037  0.24831580  0.75370066  1
  V  V1  1  0.49718397  0.74915416  0.74515257  1
  V  V2  1  0.51171448  0.00645729  0.50231172  1
  V  V3  1  0.25135214  0.24348558  0.49258585  1
  V  V4  1  0.37486147  0.62387241  0.25287339  1
  V  V5  1  0.36173765  0.00126906  0.37272222  1
  V  V6  1  0.88107944  0.87863645  -0.00181705  1
  V  V7  1  0.62339159  0.88104126  0.73440247  1
  V  V8  1  0.75479758  0.51693274  0.25424360  1
  V  V9  1  -0.00420828  0.11991401  0.14009388  1
  V  V10  1  0.37226354  0.37375364  0.00201274  1
  V  V11  1  0.50053008  0.24744254  0.25287071  1
  V  V12  1  0.37478286  0.50274223  0.87619760  1
  V  V13  1  -0.01105620  -0.00041929  0.50548717  1
  V  V14  1  0.49880380  0.50412811  0.00139193  1
  V  V15  1  0.75056966  0.12490056  0.87659741  1
  V  V16  1  0.38336856  0.37283901  0.50206085  1
  V  V17  1  0.63550359  0.61959943  0.49291817  1
  V  V18  1  0.75103761  0.49884098  0.75588667  1
  V  V19  1  0.49154460  -0.00755632  0.00101618  1
  V  V20  1  -0.00236005  0.74763312  0.25844331  1
  V  V21  1  0.24692503  0.24358804  -0.00189347  1
  V  V22  1  0.37015399  0.11613890  0.76475489  1
  V  V23  1  0.24796446  0.62512038  0.87540409  1
  V  V24  1  0.87989321  0.00389867  0.87570278  1
  V  V25  1  0.87556706  0.37254448  0.00062159  1
  V  V26  1  0.50366670  0.37683998  0.37864285  1
  V  V27  1  0.62720711  0.62525402  -0.00827708  1
  V  V28  1  -0.00373561  0.62578140  0.13151475  1
  V  V29  1  0.75285411  0.88329155  0.12937990  1
  V  V30  1  0.80385401  0.67564518  0.81569079  1
  V  V31  1  0.13901829  0.00359013  0.62560863  1
  V  V32  1  0.49753250  0.62134737  0.61619028  1
  V  V33  1  0.37388032  0.24821507  0.12666623  1
  V  V34  1  0.49902627  0.12213948  0.13046951  1
  V  V35  1  0.49893042  0.62696519  0.12311615  1
  V  V36  1  0.12580748  0.74846796  0.37920936  1
  V  V37  1  0.12545751  0.24359437  0.36337007  1
  V  V38  1  0.75189490  0.76849610  0.50080355  1
  V  V39  1  0.87216320  0.13187496  0.74063072  1
  V  V40  1  0.37080167  0.87688574  0.50939605  1
  V  V41  1  0.87387416  0.74983909  0.13414151  1
  V  V42  1  0.35940094  0.11939765  0.25152325  1
  V  V43  1  0.24948334  0.49710860  0.74941328  1
  V  V44  1  0.62340533  0.37578912  0.75114357  1
  V  V45  1  0.61902177  0.49387055  0.61857493  1
  V  V46  1  0.87481448  0.51369742  0.37503843  1
  V  V47  1  0.49926007  0.87643811  0.37539484  1
  V  V48  1  0.24593269  0.62358835  0.37950154  1
  V  V49  1  -0.00527412  0.25487158  0.74235052  1
  V  V50  1  0.75509292  0.37103969  0.62325709  1
  V  V51  1  0.10904006  0.11827498  -0.00704768  1
  V  V52  1  0.12426279  0.62526029  0.00361408  1
  V  V53  1  0.12015357  0.37531536  0.74579731  1
  V  V54  1  0.88177452  0.24803636  0.13871627  1
  V  V55  1  0.37067859  0.75548148  0.12499102  1
  V  V56  1  0.75409175  0.23918224  0.50260219  1
  V  V57  1  0.13406020  0.87442445  0.74598523  1
  V  V58  1  0.12738774  0.50588076  0.61692211  1
  V  V59  1  0.87812274  0.36923800  0.50009030  1
  V  V60  1  0.12565562  0.88322936  0.25309631  1
  V  V61  1  0.62809935  0.24340997  0.37723818  1
  V  V62  1  -0.00235199  0.87005258  0.86595823  1
  V  V63  1  0.75083442  0.37534218  0.13059711  1
  V  V64  1  0.63020741  0.88100752  0.25184848  1
  V  V65  1  -0.00150238  0.50005589  0.00032223  1
  V  V66  1  0.62510696  0.25071234  0.87969608  1
  V  V67  1  0.24667250  0.75428327  0.00179986  1
  V  V68  1  0.75608364  0.12153357  0.35819285  1
  V  V69  1  0.12615178  0.24972785  0.87269643  1
  V  V70  1  0.37414262  0.24428600  0.62798264  1
  V  V71  1  0.24888759  0.88634576  0.12677603  1
  V  V72  1  0.62617000  0.12027268  0.00247619  1
  V  V73  1  -0.00127035  0.36519758  0.36469512  1
  V  V74  1  0.75203564  0.74771627  0.00032780  1
  V  V75  1  0.49920895  0.37717126  0.87809348  1
  V  V76  1  0.62547554  0.75613830  0.87063479  1
  V  V77  1  0.87382956  -0.00402590  0.36008393  1
  V  V78  1  0.74164802  0.00247827  0.73948837  1
  V  V79  1  0.01059007  0.49993496  0.49641562  1
  V  V80  1  0.37721314  0.49837660  0.38021155  1
  V  V81  1  0.49886198  0.75251676  0.25041632  1
  V  V82  1  0.24816202  0.74995329  0.51004517  1
  V  V83  1  0.62605492  0.50284256  0.12749333  1
  V  V84  1  0.12677921  0.12364658  0.49574864  1
  Zn  Zn85  1  0.12533363  0.37378022  0.24667410  1
  Zn  Zn86  1  0.48334531  0.88633243  0.87201476  1
  Zn  Zn87  1  0.24671655  0.49628313  0.24944215  1
  Zn  Zn88  1  0.24556159  0.37579218  0.12782288  1
  Zn  Zn89  1  0.11532979  0.74383815  0.86549948  1
  Zn  Zn90  1  0.75253102  0.24778992  0.00411536  1
  Zn  Zn91  1  0.25052540  0.00663355  0.78386618  1
  Zn  Zn92  1  0.11978114  0.00002979  0.12326773  1
  Zn  Zn93  1  0.36692584  0.74896044  0.62622767  1
  Zn  Zn94  1  0.62617288  0.37764472  0.25221383  1
  Zn  Zn95  1  0.86652881  0.50472401  0.88017469  1
  Zn  Zn96  1  0.51027414  0.11293894  0.63146435  1
  Zn  Zn97  1  -0.00626051  0.87133152  0.38670569  1
  Zn  Zn98  1  0.96674464  0.66045482  0.66002889  1
  Zn  Zn99  1  0.37149561  0.62566485  0.74478770  1
  Zn  Zn100  1  0.90223422  0.82575739  0.56937330  1
  Zn  Zn101  1  -0.00008829  0.13268023  0.62155110  1
  Zn  Zn102  1  0.63122480  0.00286401  0.13113204  1
  Zn  Zn103  1  0.12630991  0.49666420  0.13022954  1
  Zn  Zn104  1  0.62756295  0.74383673  0.37245968  1
  Zn  Zn105  1  0.25117037  0.37359637  0.62064968  1
  Zn  Zn106  1  -0.00353917  0.37935632  0.87150985  1
  Zn  Zn107  1  0.18536056  0.18445829  0.17856031  1
  Zn  Zn108  1  0.19130711  0.18511528  0.68636817  1
  Zn  Zn109  1  0.18538009  0.68736535  0.19304785  1
  Zn  Zn110  1  0.15437430  0.67189320  0.69657895  1
  Zn  Zn111  1  0.68755962  0.19125848  0.18822809  1
  Zn  Zn112  1  0.68586802  0.18777371  0.68834818  1
  Zn  Zn113  1  0.68498041  0.69307354  0.18598161  1
  Zn  Zn114  1  0.68365051  0.69119282  0.67417908  1
  Zn  Zn115  1  0.31112161  0.31005778  0.31174794  1
  Zn  Zn116  1  0.31001329  0.31132153  0.81480262  1
  Zn  Zn117  1  0.30934491  0.81519370  0.31304265  1
  Zn  Zn118  1  0.30953155  0.81712097  0.81402422  1
  Zn  Zn119  1  0.81216969  0.31611583  0.31454295  1
  Zn  Zn120  1  0.81103269  0.31465542  0.81453312  1
  Zn  Zn121  1  0.80905032  0.80766822  0.32110809  1
  Zn  Zn122  1  0.83579939  0.84324574  0.75483640  1
  Zn  Zn123  1  0.19222485  0.42727990  0.43000110  1
  Zn  Zn124  1  0.18511024  0.43497410  0.93938839  1
  Zn  Zn125  1  0.18483264  0.93446812  0.44137455  1
  Zn  Zn126  1  0.17708404  0.93330952  0.93697096  1
  Zn  Zn127  1  0.69044085  0.43644553  0.43776303  1
  Zn  Zn128  1  0.68836818  0.43732643  0.94170687  1
  Zn  Zn129  1  0.68864245  0.93971568  0.43230016  1
  Zn  Zn130  1  0.69073100  0.93734791  0.93554157  1
  Zn  Zn131  1  0.28960647  0.04041130  -0.00455164  1
  Zn  Zn132  1  0.31930638  0.06572582  0.56143332  1
  Zn  Zn133  1  0.31160490  0.56351583  0.06551537  1
  Zn  Zn134  1  0.31153441  0.56101905  0.56040329  1
  Zn  Zn135  1  0.81788634  0.06305178  0.06333668  1
  Zn  Zn136  1  0.81002305  0.05975666  0.56259146  1
  Zn  Zn137  1  0.81294166  0.56418672  0.06528915  1
  Zn  Zn138  1  0.81308196  0.56182971  0.56233561  1
  Zn  Zn139  1  0.43547848  0.43585273  0.19100043  1
  Zn  Zn140  1  0.43645640  0.43623000  0.68702998  1
  Zn  Zn141  1  0.43670568  0.93943765  0.18622394  1
  Zn  Zn142  1  0.43745191  0.93869350  0.68625667  1
  Zn  Zn143  1  0.93665472  0.44015866  0.19016662  1
  Zn  Zn144  1  0.92124362  0.47601543  0.66956877  1
  Zn  Zn145  1  0.94130551  0.93471299  0.18932928  1
  Zn  Zn146  1  0.94963573  0.95483881  0.69240645  1
  Zn  Zn147  1  0.06039158  0.06036461  0.31729542  1
  Zn  Zn148  1  0.05963798  0.06301662  0.80920154  1
  Zn  Zn149  1  0.06238141  0.56143579  0.31502836  1
  Zn  Zn150  1  0.05719232  0.56204941  0.81139601  1
  Zn  Zn151  1  0.56416713  0.06109955  0.31840714  1
  Zn  Zn152  1  0.55785117  0.06223232  0.81718104  1
  Zn  Zn153  1  0.56019460  0.55888783  0.31192170  1
  Zn  Zn154  1  0.56325087  0.56585014  0.80936125  1
  Zn  Zn155  1  0.43652495  0.18389432  0.43537967  1
  Zn  Zn156  1  0.43957518  0.18449197  0.94187220  1
  Zn  Zn157  1  0.43751108  0.68919958  0.44046488  1
  Zn  Zn158  1  0.41859933  0.72075296  0.92050000  1
  Zn  Zn159  1  0.93748394  0.18451306  0.43406457  1
  Zn  Zn160  1  0.93813740  0.19387208  0.93381451  1
  Zn  Zn161  1  0.94794224  0.69413338  0.46616550  1
  Zn  Zn162  1  0.94041640  0.69292946  0.94409056  1
  Zn  Zn163  1  0.06010190  0.31086641  0.06469086  1
  Zn  Zn164  1  0.06496936  0.31437465  0.55933211  1
  Zn  Zn165  1  0.06113937  0.81336055  0.06396707  1
  Zn  Zn166  1  0.07026414  0.81317950  0.56671397  1
  Zn  Zn167  1  0.56273143  0.31248310  0.06455231  1
  Zn  Zn168  1  0.57669373  0.27821012  0.57594369  1
  Zn  Zn169  1  0.56559601  0.81235321  0.06444734  1
  Zn  Zn170  1  0.56193109  0.80817994  0.55671495  1
  O  O171  1  0.10854474  0.12585801  0.11471968  1
  O  O172  1  0.12592065  0.12191887  0.61357258  1
  O  O173  1  0.11259927  0.62603410  0.12067787  1
  O  O174  1  0.13680149  0.60424217  0.60553568  1
  O  O175  1  0.61820346  0.12609722  0.12025662  1
  O  O176  1  0.60514310  0.17038738  0.61593541  1
  O  O177  1  0.61737051  0.62404850  0.11651346  1
  O  O178  1  0.61920121  0.61338273  0.61358008  1
  O  O179  1  0.38285994  0.37894774  0.38036060  1
  O  O180  1  0.37970151  0.38061748  0.88230127  1
  O  O181  1  0.38069992  0.88430871  0.37839298  1
  O  O182  1  0.38874495  0.82977570  0.89050221  1
  O  O183  1  0.88273324  0.37791583  0.38150268  1
  O  O184  1  0.87393110  0.37552188  0.89121812  1
  O  O185  1  0.87376000  0.89174007  0.37095967  1
  O  O186  1  0.88030173  0.88371340  0.87221902  1
  O  O187  1  0.26338598  -0.00503577  0.37753668  1
  O  O188  1  0.25668166  -0.00126512  0.89686068  1
  O  O189  1  0.25878309  0.50674000  0.37527025  1
  O  O190  1  0.25312758  0.50540448  0.87081306  1
  O  O191  1  0.76149638  0.01214346  0.37889916  1
  O  O192  1  0.75596357  0.00846823  0.86797797  1
  O  O193  1  0.76540217  0.49597695  0.36852037  1
  O  O194  1  0.74430383  0.49884799  0.86490635  1
  O  O195  1  0.24755223  0.49709085  0.12832764  1
  O  O196  1  0.24754374  0.49477538  0.63275973  1
  O  O197  1  0.24734044  0.98589984  0.10604585  1
  O  O198  1  0.23929857  1.00453390  0.61785708  1
  O  O199  1  0.74755558  0.49472418  0.13369343  1
  O  O200  1  0.73646093  0.48861820  0.63130014  1
  O  O201  1  0.75206069  0.98730208  0.12213382  1
  O  O202  1  0.74185512  1.01286973  0.64010521  1
  O  O203  1  -0.00125672  0.37486709  0.26162467  1
  O  O204  1  0.00833980  0.37203457  0.75056087  1
  O  O205  1  0.00717245  0.86156641  0.25265938  1
  O  O206  1  0.01630003  0.88293786  0.75775114  1
  O  O207  1  0.50016412  0.36531295  0.26041610  1
  O  O208  1  0.50366390  0.37099567  0.75985613  1
  O  O209  1  0.50450747  0.87097119  0.25622247  1
  O  O210  1  0.50790355  0.86977960  0.75306400  1
  O  O211  1  0.50078598  0.12901687  0.24573029  1
  O  O212  1  0.49027303  0.13119698  0.75142052  1
  O  O213  1  0.49441176  0.63192606  0.24552806  1
  O  O214  1  0.50103130  0.63121833  0.73560619  1
  O  O215  1  1.00380340  0.12554615  0.23832137  1
  O  O216  1  0.98933086  0.13557314  0.74903884  1
  O  O217  1  1.00348858  0.63800722  0.24471190  1
  O  O218  1  1.04501892  0.64336198  0.73781964  1
  O  O219  1  0.36544596  0.25077586  0.00380775  1
  O  O220  1  0.37060588  0.25058162  0.50650157  1
  O  O221  1  0.35976314  0.73564803  0.01957275  1
  O  O222  1  0.36730082  0.75931787  0.50173353  1
  O  O223  1  0.87382036  0.25904217  0.00868606  1
  O  O224  1  0.86900039  0.26053023  0.49516535  1
  O  O225  1  0.86989574  0.75707641  0.01156579  1
  O  O226  1  0.85754309  0.76261407  0.48454469  1
  O  O227  1  0.13389178  0.24276490  0.49428927  1
  O  O228  1  0.12669113  0.24570871  0.99099683  1
  O  O229  1  0.13440238  0.75843843  0.48656957  1
  O  O230  1  0.12689326  0.73717779  1.00083670  1
  O  O231  1  0.64108257  0.26107481  0.48211077  1
  O  O232  1  0.62492724  0.23933043  0.99629478  1
  O  O233  1  0.63137709  0.73543171  0.49864896  1
  O  O234  1  0.63021194  0.74562666  0.99041358  1
  O  O235  1  0.49591989  0.24300778  0.13164214  1
  O  O236  1  0.48074274  0.26439621  0.63954258  1
  O  O237  1  0.49036584  0.74776821  0.12870898  1
  O  O238  1  0.50030043  0.74161273  0.63223003  1
  O  O239  1  0.98727360  0.24153807  0.12472533  1
  O  O240  1  1.00588954  0.25152324  0.63819653  1
  O  O241  1  0.99299736  0.74516846  0.13379601  1
  O  O242  1  0.98369918  0.74014960  0.58063180  1
  O  O243  1  0.01058192  0.25447851  0.37858043  1
  O  O244  1  0.01028282  0.25608757  0.86414615  1
  O  O245  1  0.00627861  0.74957677  0.37401320  1
  O  O246  1  -0.00159887  0.76419395  0.87647711  1
  O  O247  1  0.50915255  0.25333663  0.37308062  1
  O  O248  1  0.50494451  0.25557766  0.87353987  1
  O  O249  1  0.49886990  0.76224813  0.37068838  1
  O  O250  1  0.51485549  0.73662182  0.85534937  1
  O  O251  1  0.24556245  0.13564598  0.50257442  1
  O  O252  1  0.22908730  0.13858493  1.00565397  1
  O  O253  1  0.25982806  0.63310565  0.48521640  1
  O  O254  1  0.24081565  0.62972848  0.99646808  1
  O  O255  1  0.75631031  0.13737711  0.49452672  1
  O  O256  1  0.74246386  0.12581155  0.99718895  1
  O  O257  1  0.73688875  0.61840510  0.49845502  1
  O  O258  1  0.73893153  0.63386274  1.00984518  1
  O  O259  1  0.25493219  0.36256625  -0.00038446  1
  O  O260  1  0.26352382  0.36096932  0.49728746  1
  O  O261  1  0.23584659  0.85769521  0.00929818  1
  O  O262  1  0.25996995  0.86399041  0.49417213  1
  O  O263  1  0.75737903  0.37632285  0.01477509  1
  O  O264  1  0.75901574  0.36841669  0.50510776  1
  O  O265  1  0.75962273  0.86796564  0.00497287  1
  O  O266  1  0.73815388  0.86778697  0.50531679  1
  O  O267  1  0.12636738  0.49654872  0.24942272  1
  O  O268  1  0.13001084  0.49128190  0.73967244  1
  O  O269  1  0.11789347  0.98707937  0.24845955  1
  O  O270  1  0.13172081  0.99947788  0.74328051  1
  O  O271  1  0.63352102  0.49937125  0.24450347  1
  O  O272  1  0.63042909  0.49359521  0.74339747  1
  O  O273  1  0.62153993  0.98556859  0.25027152  1
  O  O274  1  0.62516955  0.98985892  0.75533009  1
  O  O275  1  0.37993952  0.00550645  0.26352572  1
  O  O276  1  0.37636173  0.01245236  0.75064036  1
  O  O277  1  0.37591634  0.50600006  0.26331477  1
  O  O278  1  0.36614534  0.50172666  0.75718317  1
  O  O279  1  0.87912726  0.00131124  0.26149575  1
  O  O280  1  0.86413168  0.01472927  0.75885716  1
  O  O281  1  0.87059811  0.50132833  0.26465758  1
  O  O282  1  0.85546484  0.48742916  0.76291137  1
  O  O283  1  0.11622041  0.36086727  0.37251787  1
  O  O284  1  0.12250770  0.37007645  0.86326967  1
  O  O285  1  0.12061346  0.86868351  0.36846479  1
  O  O286  1  0.11356386  0.87276351  0.86590482  1
  O  O287  1  0.61803203  0.37040030  0.37301035  1
  O  O288  1  0.61839432  0.36961813  0.87573540  1
  O  O289  1  0.61609518  0.87321283  0.36802591  1
  O  O290  1  0.62076325  0.86181757  0.87389920  1
  O  O291  1  0.39058751  0.13035979  0.13598038  1
  O  O292  1  0.38360741  0.13258806  0.63315371  1
  O  O293  1  0.38033382  0.63060131  0.13527727  1
  O  O294  1  0.38342734  0.62387365  0.62474410  1
  O  O295  1  0.88447317  0.13697962  0.12200660  1
  O  O296  1  0.87435591  0.12545317  0.63800401  1
  O  O297  1  0.88739604  0.63572457  0.12120627  1
  O  O298  1  0.88774268  0.58480417  0.63961378  1
  O  O299  1  0.25770987  0.25083236  0.11579020  1
  O  O300  1  0.26154400  0.25102488  0.61873179  1
  O  O301  1  0.25330246  0.75414094  0.12209451  1
  O  O302  1  0.24433948  0.73796811  0.61084067  1
  O  O303  1  0.75999125  0.25800173  0.12517557  1
  O  O304  1  0.74895484  0.26294050  0.61708107  1
  O  O305  1  0.75859845  0.75935661  0.12194376  1
  O  O306  1  0.75289162  0.74088925  0.60143345  1
  O  O307  1  0.24170028  0.24948595  0.38344718  1
  O  O308  1  0.23476812  0.25288469  0.88082073  1
  O  O309  1  0.24374937  0.74278335  0.37949301  1
  O  O310  1  0.24255175  0.73997439  0.88498219  1
  O  O311  1  0.74817177  0.23968379  0.37725342  1
  O  O312  1  0.74181323  0.24467723  0.88049165  1
  O  O313  1  0.74093211  0.74968319  0.39017829  1
  O  O314  1  0.74524525  0.74111694  0.87485354  1
  O  O315  1  0.00759249  0.13300588  0.00565500  1
  O  O316  1  0.00843394  0.12005265  0.50166671  1
  O  O317  1  0.00588363  0.62041396  0.00780971  1
  O  O318  1  0.00601448  0.59847818  0.49199190  1
  O  O319  1  0.50795868  0.11843822  0.01033300  1
  O  O320  1  0.49598375  0.10845363  0.49750474  1
  O  O321  1  0.50679777  0.61957646  0.00600691  1
  O  O322  1  0.50856797  0.62958033  0.51171889  1
  O  O323  1  0.48778135  0.36242816  0.49227632  1
  O  O324  1  0.49435574  0.38267918  0.99699690  1
  O  O325  1  0.49225937  0.87952907  0.49207212  1
  O  O326  1  0.50859652  0.89058148  1.00419760  1
  O  O327  1  0.99379317  0.37573844  0.48905185  1
  O  O328  1  0.99239187  0.38414686  0.99963227  1
  O  O329  1  0.99803716  0.88741523  0.50498478  1
  O  O330  1  0.98639994  0.87173528  0.99334561  1
  O  O331  1  0.49378306  0.48465227  0.37284856  1
  O  O332  1  0.49455636  0.49869778  0.88037681  1
  O  O333  1  0.49360378  0.99027656  0.38277026  1
  O  O334  1  0.49984871  0.99987590  0.89413664  1
  O  O335  1  0.99315199  0.48879670  0.38025305  1
  O  O336  1  0.99508934  0.50146863  0.88727000  1
  O  O337  1  0.98598392  0.99985269  0.38350508  1
  O  O338  1  0.98590318  0.99343746  0.86901719  1
  O  O339  1  -0.00454095  0.01556014  0.12608026  1
  O  O340  1  0.01332069  0.01165375  0.61763716  1
  O  O341  1  -0.00316700  0.50935993  0.11630956  1
  O  O342  1  0.01527042  0.48249302  0.60477236  1
  O  O343  1  0.50815533  0.00756628  0.12082314  1
  O  O344  1  0.49787291  -0.00146215  0.60786985  1
  O  O345  1  0.50547657  0.50523976  0.12218603  1
  O  O346  1  0.51151231  0.50405541  0.62964731  1
  O  O347  1  0.24802585  0.37661555  0.24801821  1
  O  O348  1  0.24373035  0.38596505  0.75222830  1
  O  O349  1  0.23755832  0.86992579  0.24030522  1
  O  O350  1  0.23866495  0.88889762  0.76000860  1
  O  O351  1  0.75159375  0.38397487  0.24006682  1
  O  O352  1  0.74211770  0.37850208  0.74309177  1
  O  O353  1  0.74199765  0.86723752  0.24182528  1
  O  O354  1  0.73014211  0.88833766  0.75714468  1
  O  O355  1  0.26084000  0.12219968  0.23969625  1
  O  O356  1  0.26539165  0.12204693  0.74954748  1
  O  O357  1  0.25968931  0.62597960  0.26197117  1
  O  O358  1  0.24357906  0.61247858  0.75854930  1
  O  O359  1  0.75079517  0.12526862  0.25959549  1
  O  O360  1  0.75278850  0.12523050  0.75751925  1
  O  O361  1  0.74739824  0.61612997  0.24455340  1
  O  O362  1  0.74229939  0.61923080  0.75246204  1
  O  O363  1  0.37709841  0.11021709  0.36676785  1
  O  O364  1  0.37642376  0.12955240  0.86377336  1
  O  O365  1  0.37451449  0.61599418  0.37232063  1
  O  O366  1  0.36052602  0.62377328  0.87307678  1
  O  O367  1  0.86347241  0.11725233  0.37472311  1
  O  O368  1  0.86952973  0.12171950  0.87085741  1
  O  O369  1  0.88379874  0.60996087  0.38622288  1
  O  O370  1  0.86827015  0.62571545  0.87902080  1
  O  O371  1  0.12486548  0.37620476  0.12750005  1
  O  O372  1  0.13244533  0.37579303  0.63426777  1
  O  O373  1  0.12870716  0.87741846  0.13319297  1
  O  O374  1  0.12332419  0.88620583  0.63896147  1
  O  O375  1  0.63464422  0.38154770  0.12666605  1
  O  O376  1  0.62903810  0.37738371  0.62931894  1
  O  O377  1  0.63662901  0.87482661  0.13249866  1
  O  O378  1  0.61882795  0.87258094  0.63666570  1
  O  O379  1  0.13080314  0.24445262  0.26111397  1
  O  O380  1  0.12183559  0.25497072  0.75474618  1
  O  O381  1  0.11769325  0.75655337  0.26138381  1
  O  O382  1  0.13944757  0.77172515  0.75029114  1
  O  O383  1  0.62122332  0.25415865  0.26102853  1
  O  O384  1  0.61929236  0.25809320  0.76385529  1
  O  O385  1  0.61511600  0.75910041  0.25091333  1
  O  O386  1  0.62249529  0.76022729  0.75154699  1
  O  O387  1  0.38127618  0.23854645  0.24884999  1
  O  O388  1  0.37494881  0.24228829  0.74629360  1
  O  O389  1  0.37895468  0.74458269  0.24430464  1
  O  O390  1  0.38243885  0.74668037  0.74369226  1
  O  O391  1  0.87281052  0.25429758  0.23683862  1
  O  O392  1  0.88330710  0.24534249  0.75751410  1
  O  O393  1  0.88143490  0.75618075  0.24196607  1
  O  O394  1  0.86318293  0.73162115  0.75767028  1
  O  O395  1  0.37262198  0.48875049  0.48860746  1
  O  O396  1  0.37947879  0.49647395  0.99430415  1
  O  O397  1  0.37914851  0.99355834  0.48892783  1
  O  O398  1  0.39449581  1.00292544  1.01634387  1
  O  O399  1  0.88345894  0.48790306  0.48913260  1
  O  O400  1  0.88080870  0.49340786  1.00138660  1
  O  O401  1  0.88558035  1.00669869  0.49653677  1
  O  O402  1  0.86816841  0.99071010  0.98845100  1
  O  O403  1  0.11737384  0.01567056  0.00089091  1
  O  O404  1  0.11859504  0.00689042  0.50392862  1
  O  O405  1  0.11649203  0.50952744  0.00241970  1
  O  O406  1  0.11773766  0.48271633  0.50084239  1
  O  O407  1  0.62231857  0.01102893  0.00265603  1
  O  O408  1  0.60998125  -0.00191483  0.49330030  1
  O  O409  1  0.62122721  0.50835874  0.00740359  1
  O  O410  1  0.62641888  0.50645298  0.50612362  1
  O  O411  1  0.37736499  0.36582964  0.11773534  1
  O  O412  1  0.37146518  0.37051523  0.61654695  1
  O  O413  1  0.36460560  0.86510814  0.13333979  1
  O  O414  1  0.37681187  0.87287700  0.61272444  1
  O  O415  1  0.87221796  0.36696322  0.12034609  1
  O  O416  1  0.86486412  0.38493923  0.61449198  1
  O  O417  1  0.87241988  0.87017602  0.11770045  1
  O  O418  1  0.87108259  0.88498596  0.65549085  1
  O  O419  1  0.12228562  0.12844287  0.38695249  1
  O  O420  1  0.11530288  0.13318755  0.88526927  1
  O  O421  1  0.13527510  0.63396997  0.37190016  1
  O  O422  1  0.13325762  0.62351877  0.88576798  1
  O  O423  1  0.64100452  0.13094046  0.37284189  1
  O  O424  1  0.62870267  0.13065163  0.88400895  1
  O  O425  1  0.61349573  0.62273522  0.39053543  1
  O  O426  1  0.62342827  0.63102629  0.88689409  1
