# generated using pymatgen
data_V85Zn86O256
_symmetry_space_group_name_H-M   'P 1'
_cell_length_a   16.94046908
_cell_length_b   16.93459108
_cell_length_c   16.94471448
_cell_angle_alpha   89.97455359
_cell_angle_beta   89.93569183
_cell_angle_gamma   90.01499872
_symmetry_Int_Tables_number   1
_chemical_formula_structural   V85Zn86O256
_chemical_formula_sum   'V85 Zn86 O256'
_cell_volume   4861.09456746
_cell_formula_units_Z   1
loop_
 _symmetry_equiv_pos_site_id
 _symmetry_equiv_pos_as_xyz
  1  'x, y, z'
loop_
 _atom_site_type_symbol
 _atom_site_label
 _atom_site_symmetry_multiplicity
 _atom_site_fract_x
 _atom_site_fract_y
 _atom_site_fract_z
 _atom_site_occupancy
  V  V0  1  -0.00324168  0.87423465  0.38135622  1
  V  V1  1  0.24870850  0.88603592  0.12377832  1
  V  V2  1  0.37818198  0.62332947  0.75249935  1
  V  V3  1  -0.01398504  0.88041038  0.86795635  1
  V  V4  1  0.62923973  0.75356287  0.87708255  1
  V  V5  1  0.24914534  0.37275385  0.61554584  1
  V  V6  1  0.50544905  0.62309657  0.62046411  1
  V  V7  1  0.62961373  0.37467691  0.75285468  1
  V  V8  1  0.12635072  0.37309261  0.74964774  1
  V  V9  1  0.74904997  0.12929556  0.36900515  1
  V  V10  1  0.37152817  0.62780971  0.25857758  1
  V  V11  1  0.87894919  0.24803792  0.62670477  1
  V  V12  1  0.75854955  0.50605316  0.75115130  1
  V  V13  1  0.88177231  0.37527241  0.49942443  1
  V  V14  1  -0.00222255  0.75327419  0.24459871  1
  V  V15  1  0.62823380  0.24628246  0.88107968  1
  V  V16  1  0.11963479  -0.00474323  0.62063258  1
  V  V17  1  0.63068495  0.63190587  0.00116381  1
  V  V18  1  0.49260838  0.25705224  0.26175401  1
  V  V19  1  0.88197859  0.24162712  0.14013829  1
  V  V20  1  0.74548435  0.87657929  0.61964130  1
  V  V21  1  0.00208156  0.50730846  -0.00070813  1
  V  V22  1  0.24890175  0.00579013  0.75358797  1
  V  V23  1  0.24129651  0.74877446  0.00173942  1
  V  V24  1  0.87669816  0.37631950  0.00126962  1
  V  V25  1  0.25432474  0.23670844  0.00160084  1
  V  V26  1  0.37622722  0.49880058  0.87662759  1
  V  V27  1  0.12107589  0.87752092  0.24580436  1
  V  V28  1  0.37235253  0.12753694  0.24853721  1
  V  V29  1  0.62728197  0.12199526  0.50655869  1
  V  V30  1  0.50037372  0.87718864  0.87643405  1
  V  V31  1  0.74693565  0.86903325  0.12034744  1
  V  V32  1  0.00309870  0.11997784  0.62040517  1
  V  V33  1  0.75137213  0.37634976  0.13021442  1
  V  V34  1  0.37432594  0.00376962  0.37757130  1
  V  V35  1  0.06075483  0.05143536  0.45018915  1
  V  V36  1  0.37535430  0.74696640  0.62473233  1
  V  V37  1  0.12561468  0.49945842  0.11997015  1
  V  V38  1  0.25053882  0.49647758  0.75055430  1
  V  V39  1  0.61583052  0.73693264  0.37341492  1
  V  V40  1  0.74729581  0.73690808  0.48913323  1
  V  V41  1  0.50548362  -0.00020955  0.50592175  1
  V  V42  1  0.12365759  0.51132489  0.62239827  1
  V  V43  1  0.62716538  0.50236803  0.62121423  1
  V  V44  1  0.50276000  0.49050703  0.49474127  1
  V  V45  1  0.74969381  0.24505515  0.00435587  1
  V  V46  1  0.87422210  0.73667698  0.62530277  1
  V  V47  1  0.49975492  0.50041029  0.00084372  1
  V  V48  1  0.62538456  0.00889388  0.12760205  1
  V  V49  1  0.49981136  0.63057819  0.13143794  1
  V  V50  1  0.87232254  0.00494213  0.38036814  1
  V  V51  1  -0.00518120  0.73006203  0.74458178  1
  V  V52  1  0.87162756  0.50410906  0.37479726  1
  V  V53  1  0.75442755  0.37502252  0.62788301  1
  V  V54  1  0.75017383  0.25054727  0.50051520  1
  V  V55  1  0.00377374  0.62997490  0.12235274  1
  V  V56  1  0.01097273  0.36883691  0.37034827  1
  V  V57  1  0.73960969  0.00076383  0.74476172  1
  V  V58  1  0.00296204  0.37479284  0.87582166  1
  V  V59  1  0.37676273  0.24808424  0.62804771  1
  V  V60  1  0.37601340  0.87465359  0.00052389  1
  V  V61  1  0.24909116  0.87108948  0.62633005  1
  V  V62  1  0.12867602  0.23388537  0.88122018  1
  V  V63  1  0.37633838  0.75176664  0.12948946  1
  V  V64  1  0.49949589  0.13632006  0.12392295  1
  V  V65  1  0.50104197  0.24849816  0.75367376  1
  V  V66  1  0.75775868  0.62866321  0.87535913  1
  V  V67  1  0.00104693  0.24809903  0.75085261  1
  V  V68  1  0.00574029  0.51553603  0.50079541  1
  V  V69  1  0.50347332  0.00741940  0.00129028  1
  V  V70  1  0.87730903  0.11242961  0.75401589  1
  V  V71  1  0.01500256  0.12273519  0.12816119  1
  V  V72  1  0.86889278  0.62671815  0.25017914  1
  V  V73  1  0.50174479  0.74985361  0.75038514  1
  V  V74  1  0.75218719  0.00168380  0.24965658  1
  V  V75  1  0.25598816  0.37469931  0.11931225  1
  V  V76  1  0.24801609  0.62522804  0.88035501  1
  V  V77  1  0.75524898  0.11795430  0.88135683  1
  V  V78  1  0.37585835  0.48583197  0.37230820  1
  V  V79  1  0.24531501  0.23122235  0.49864247  1
  V  V80  1  0.62741536  0.50038642  0.12705407  1
  V  V81  1  0.24562823  0.00291220  0.25920457  1
  V  V82  1  0.37973225  0.87170772  0.50063968  1
  V  V83  1  0.11929287  0.74669113  0.87318766  1
  V  V84  1  0.24387297  0.50461333  0.25644070  1
  Zn  Zn85  1  0.61635080  0.37882962  0.25755150  1
  Zn  Zn86  1  0.74460120  0.50357025  0.26037715  1
  Zn  Zn87  1  0.24337327  0.73020820  0.49477901  1
  Zn  Zn88  1  0.61800202  0.87186682  0.25309297  1
  Zn  Zn89  1  0.62102459  0.88008173  0.74399758  1
  Zn  Zn90  1  0.12497457  0.23032386  0.37605701  1
  Zn  Zn91  1  0.87970364  0.50461437  0.87062450  1
  Zn  Zn92  1  0.37026069  0.12734856  0.75693788  1
  Zn  Zn93  1  0.11988871  0.86911930  0.74642222  1
  Zn  Zn94  1  0.87313854  0.87567025  0.50128169  1
  Zn  Zn95  1  0.12218265  0.36475967  0.24373891  1
  Zn  Zn96  1  0.50470262  0.12050296  0.62991411  1
  Zn  Zn97  1  0.37733099  0.36887937  0.00105224  1
  Zn  Zn98  1  0.86586335  0.87403283  -0.00822930  1
  Zn  Zn99  1  0.00012108  0.01101285  -0.00137121  1
  Zn  Zn100  1  0.61884024  0.25907510  0.38048477  1
  Zn  Zn101  1  0.12880024  0.73269033  0.37590719  1
  Zn  Zn102  1  0.50096562  0.87085437  0.36652975  1
  Zn  Zn103  1  0.37955302  0.36424694  0.48994334  1
  Zn  Zn104  1  0.86892531  0.75003715  0.11747661  1
  Zn  Zn105  1  0.50294135  0.37452344  0.87836534  1
  Zn  Zn106  1  0.36679011  0.00409361  0.88050718  1
  Zn  Zn107  1  0.18895263  0.18995314  0.18894357  1
  Zn  Zn108  1  0.18360193  0.18547837  0.68399289  1
  Zn  Zn109  1  0.18390844  0.68990191  0.18906991  1
  Zn  Zn110  1  0.19094603  0.68708327  0.69075861  1
  Zn  Zn111  1  0.68176077  0.19142400  0.19057430  1
  Zn  Zn112  1  0.68928255  0.18659470  0.68914765  1
  Zn  Zn113  1  0.68413090  0.68710300  0.19430868  1
  Zn  Zn114  1  0.68895656  0.68936386  0.68778426  1
  Zn  Zn115  1  0.28883179  0.30391044  0.30453488  1
  Zn  Zn116  1  0.31119310  0.31172540  0.81721704  1
  Zn  Zn117  1  0.31651444  0.81571139  0.31108502  1
  Zn  Zn118  1  0.31258672  0.81525154  0.81304822  1
  Zn  Zn119  1  0.81004402  0.31807393  0.31541644  1
  Zn  Zn120  1  0.81596626  0.31014832  0.81491528  1
  Zn  Zn121  1  0.80921130  0.81607101  0.30830000  1
  Zn  Zn122  1  0.80924408  0.80963093  0.80304925  1
  Zn  Zn123  1  0.18801382  0.56484244  0.43643293  1
  Zn  Zn124  1  0.18644395  0.43401464  0.93871181  1
  Zn  Zn125  1  0.19946494  0.88968246  0.42596599  1
  Zn  Zn126  1  0.17817847  0.93948181  0.93305235  1
  Zn  Zn127  1  0.68818970  0.43620121  0.43904155  1
  Zn  Zn128  1  0.69012890  0.43842428  0.93982613  1
  Zn  Zn129  1  0.68461908  0.93287735  0.43571362  1
  Zn  Zn130  1  0.68360078  0.94277537  0.93885886  1
  Zn  Zn131  1  0.31723845  0.06402557  0.06507630  1
  Zn  Zn132  1  0.31641612  0.05868757  0.57080145  1
  Zn  Zn133  1  0.31192485  0.56484070  0.06403027  1
  Zn  Zn134  1  0.32115872  0.55430406  0.56521323  1
  Zn  Zn135  1  0.82329395  0.05630758  0.05930848  1
  Zn  Zn136  1  0.81214641  0.06106600  0.56228787  1
  Zn  Zn137  1  0.81442675  0.56482377  0.06230185  1
  Zn  Zn138  1  0.81276516  0.56109710  0.55888983  1
  Zn  Zn139  1  0.43340435  0.44004725  0.18615790  1
  Zn  Zn140  1  0.43960246  0.43191955  0.68833104  1
  Zn  Zn141  1  0.44020937  0.94066627  0.18977443  1
  Zn  Zn142  1  0.43683317  0.93750818  0.68813395  1
  Zn  Zn143  1  0.93751971  0.43667127  0.18935917  1
  Zn  Zn144  1  0.94170557  0.44073177  0.68564224  1
  Zn  Zn145  1  0.93073055  0.94359672  0.18489810  1
  Zn  Zn146  1  0.93372585  0.92896856  0.68666760  1
  Zn  Zn147  1  0.05434557  0.06328323  0.28439702  1
  Zn  Zn148  1  0.06475110  0.05814823  0.80669335  1
  Zn  Zn149  1  0.05410554  0.55787448  0.30604376  1
  Zn  Zn150  1  0.06577181  0.56305653  0.81315561  1
  Zn  Zn151  1  0.56229060  0.06495139  0.31703915  1
  Zn  Zn152  1  0.56338176  0.06688075  0.81897908  1
  Zn  Zn153  1  0.55926203  0.56451732  0.31407595  1
  Zn  Zn154  1  0.56783921  0.56349154  0.81162732  1
  Zn  Zn155  1  0.43381036  0.18185988  0.43952393  1
  Zn  Zn156  1  0.43428566  0.18342800  0.93428042  1
  Zn  Zn157  1  0.43530236  0.68082561  0.44198241  1
  Zn  Zn158  1  0.43918554  0.68822742  0.94200940  1
  Zn  Zn159  1  0.93346511  0.19061543  0.43143394  1
  Zn  Zn160  1  0.93735426  0.18709932  0.94242650  1
  Zn  Zn161  1  0.93431733  0.69172695  0.43375107  1
  Zn  Zn162  1  0.93370384  0.69840038  0.94386601  1
  Zn  Zn163  1  0.06419960  0.31041543  0.06127863  1
  Zn  Zn164  1  0.06671001  0.31251292  0.55827311  1
  Zn  Zn165  1  0.07741158  0.85391116  0.04283568  1
  Zn  Zn166  1  0.06078300  0.80445714  0.56071407  1
  Zn  Zn167  1  0.56425057  0.31419756  0.06523054  1
  Zn  Zn168  1  0.56481644  0.31196707  0.56550655  1
  Zn  Zn169  1  0.56435188  0.81676578  0.06601878  1
  Zn  Zn170  1  0.56716900  0.80929944  0.55722786  1
  O  O171  1  0.11484060  0.13187224  0.12565507  1
  O  O172  1  0.11088443  0.11493409  0.62638672  1
  O  O173  1  0.11076188  0.61855134  0.12797745  1
  O  O174  1  0.13195080  0.61020976  0.63002459  1
  O  O175  1  0.61662449  0.11671781  0.12926636  1
  O  O176  1  0.62637482  0.12997594  0.61178136  1
  O  O177  1  0.61906792  0.62221989  0.12000968  1
  O  O178  1  0.61678213  0.61509554  0.63201835  1
  O  O179  1  0.36652686  0.38430346  0.36909615  1
  O  O180  1  0.37828243  0.38841762  0.87720459  1
  O  O181  1  0.38124445  0.88395542  0.38546221  1
  O  O182  1  0.38290054  0.87866049  0.88222821  1
  O  O183  1  0.88308208  0.38060947  0.38369694  1
  O  O184  1  0.88314648  0.37614404  0.88445121  1
  O  O185  1  0.88182941  0.88505694  0.37078523  1
  O  O186  1  0.88285874  0.87236439  0.86433463  1
  O  O187  1  0.25853445  -0.01417786  0.36508304  1
  O  O188  1  0.24656710  -0.01184607  0.85752401  1
  O  O189  1  0.25705621  0.50090071  0.36004186  1
  O  O190  1  0.25703883  0.50467255  0.87278800  1
  O  O191  1  0.75275438  0.00728169  0.36942587  1
  O  O192  1  0.74461913  0.01314186  0.86873237  1
  O  O193  1  0.76689166  0.49725256  0.37864243  1
  O  O194  1  0.75049378  0.50827838  0.86752291  1
  O  O195  1  0.24098474  0.49586805  0.12465423  1
  O  O196  1  0.24601257  0.48948296  0.63149454  1
  O  O197  1  0.25729861  0.98869147  0.13197115  1
  O  O198  1  0.23974270  0.99294283  0.63292838  1
  O  O199  1  0.74200059  0.49356589  0.12336364  1
  O  O200  1  0.74524766  0.49747144  0.63126451  1
  O  O201  1  0.74251493  1.00052964  0.13282807  1
  O  O202  1  0.75300394  0.99130916  0.63300832  1
  O  O203  1  0.00281767  0.37865821  0.26516707  1
  O  O204  1  0.00527349  0.36789162  0.75429883  1
  O  O205  1  0.00326709  0.87051292  0.24840568  1
  O  O206  1  -0.00143481  0.86095070  0.75637436  1
  O  O207  1  0.49430752  0.35922036  0.24077494  1
  O  O208  1  0.50962489  0.36459213  0.75455867  1
  O  O209  1  0.50298942  0.87561936  0.25193513  1
  O  O210  1  0.50127465  0.87011441  0.75751463  1
  O  O211  1  0.49233746  0.13438489  0.24636141  1
  O  O212  1  0.50588381  0.13902357  0.74902763  1
  O  O213  1  0.49039978  0.62129422  0.23675423  1
  O  O214  1  0.49711036  0.62849427  0.74312423  1
  O  O215  1  0.99589004  0.14021515  0.22952581  1
  O  O216  1  0.99363898  0.12763825  0.74328539  1
  O  O217  1  0.98971205  0.63246070  0.24041698  1
  O  O218  1  0.99827724  0.63010301  0.74877702  1
  O  O219  1  0.35847963  0.25264787  -0.00959581  1
  O  O220  1  0.37022620  0.24776583  0.51193368  1
  O  O221  1  0.36728805  0.75513851  0.00853575  1
  O  O222  1  0.37512318  0.75719360  0.50770346  1
  O  O223  1  0.86494493  0.26206379  0.00556639  1
  O  O224  1  0.87175957  0.25783192  0.50665302  1
  O  O225  1  0.86381624  0.75847119  0.00486121  1
  O  O226  1  0.86485290  0.75172884  0.50635747  1
  O  O227  1  0.14046217  0.24787848  0.49835442  1
  O  O228  1  0.13369332  0.25317711  0.98639964  1
  O  O229  1  0.13205100  0.76280955  0.48881384  1
  O  O230  1  0.13633077  0.75704079  0.99216245  1
  O  O231  1  0.63376526  0.24539924  0.50097062  1
  O  O232  1  0.64035402  0.25728248  0.99570813  1
  O  O233  1  0.63925621  0.74849657  0.49050836  1
  O  O234  1  0.61870967  0.74152584  0.99200940  1
  O  O235  1  0.50295003  0.24006600  0.13038264  1
  O  O236  1  0.49342628  0.25046521  0.63557058  1
  O  O237  1  0.48965368  0.74150047  0.11676382  1
  O  O238  1  0.49800164  0.74001303  0.62766857  1
  O  O239  1  0.98632094  0.24849438  0.11928021  1
  O  O240  1  0.99891696  0.24022474  0.62814212  1
  O  O241  1  0.99939669  0.74426193  0.13457313  1
  O  O242  1  0.98351817  0.75382048  0.62910274  1
  O  O243  1  0.00613438  0.26360426  0.38199805  1
  O  O244  1  0.01073093  0.25431854  0.87322774  1
  O  O245  1  -0.00450762  0.75963777  0.36063366  1
  O  O246  1  0.00430965  0.74544712  0.86211076  1
  O  O247  1  0.49522575  0.24856848  0.36483702  1
  O  O248  1  0.51101972  0.25202561  0.87268202  1
  O  O249  1  0.51264412  0.74737267  0.38785996  1
  O  O250  1  0.50764945  0.75522647  0.87195948  1
  O  O251  1  0.25115655  0.13259390  0.51211049  1
  O  O252  1  0.25142803  0.13714664  1.00598559  1
  O  O253  1  0.26122499  0.61953123  0.49978469  1
  O  O254  1  0.25606409  0.63634962  0.99200250  1
  O  O255  1  0.74518852  0.12981370  0.49382123  1
  O  O256  1  0.75845902  0.13355835  0.99297614  1
  O  O257  1  0.75164232  0.63811265  0.49993073  1
  O  O258  1  0.73668224  0.61856673  0.99357458  1
  O  O259  1  0.25181668  0.36845296  0.00497735  1
  O  O260  1  0.25643385  0.36448703  0.51479958  1
  O  O261  1  0.25667186  0.86921745  0.00621912  1
  O  O262  1  0.26805020  0.88411605  0.51754715  1
  O  O263  1  0.75786828  0.37164341  0.01069316  1
  O  O264  1  0.76464108  0.37304487  0.50867287  1
  O  O265  1  0.74370286  0.88413246  0.01703391  1
  O  O266  1  0.75153675  0.86623549  0.50623821  1
  O  O267  1  0.12981571  0.49647709  0.23558114  1
  O  O268  1  0.13008615  0.49247939  0.74361742  1
  O  O269  1  0.13504391  0.99124703  0.24711036  1
  O  O270  1  0.13354936  0.99274501  0.73982203  1
  O  O271  1  0.62464686  0.50236447  0.23860884  1
  O  O272  1  0.63454014  0.49335034  0.74277571  1
  O  O273  1  0.63350842  1.00363716  0.24521509  1
  O  O274  1  0.63584753  1.00355151  0.75140668  1
  O  O275  1  0.36918443  0.00581740  0.25928025  1
  O  O276  1  0.35741175  -0.00131149  0.74621468  1
  O  O277  1  0.36887957  0.50816107  0.25468785  1
  O  O278  1  0.37239574  0.50209660  0.75784738  1
  O  O279  1  0.85900280  0.00001357  0.26058489  1
  O  O280  1  0.86711582  0.00988118  0.74535871  1
  O  O281  1  0.87627655  0.50723985  0.25900384  1
  O  O282  1  0.86304231  0.49552915  0.75042872  1
  O  O283  1  0.10871602  0.37988313  0.37719021  1
  O  O284  1  0.11920399  0.37024708  0.86686172  1
  O  O285  1  0.10780733  0.88259515  0.35789177  1
  O  O286  1  0.11660093  0.85778563  0.86622711  1
  O  O287  1  0.63213041  0.37209358  0.36949951  1
  O  O288  1  0.62888574  0.36496223  0.87135162  1
  O  O289  1  0.62066504  0.86097219  0.37573062  1
  O  O290  1  0.61927661  0.86796339  0.87435851  1
  O  O291  1  0.38637412  0.11947892  0.13962858  1
  O  O292  1  0.37843434  0.13664463  0.63565487  1
  O  O293  1  0.38257702  0.63256585  0.12977936  1
  O  O294  1  0.38508216  0.62618252  0.63485697  1
  O  O295  1  0.86862638  0.14183334  0.12612816  1
  O  O296  1  0.88518635  0.12651220  0.63107194  1
  O  O297  1  0.88637545  0.62507121  0.12984689  1
  O  O298  1  0.87117326  0.63747233  0.62164360  1
  O  O299  1  0.24375938  0.25961369  0.10832818  1
  O  O300  1  0.25611295  0.25312665  0.62266411  1
  O  O301  1  0.25594653  0.75562150  0.11725962  1
  O  O302  1  0.25743685  0.75604329  0.62511207  1
  O  O303  1  0.75441127  0.25729396  0.12136353  1
  O  O304  1  0.75942027  0.25456891  0.62146165  1
  O  O305  1  0.73974010  0.76710422  0.13007239  1
  O  O306  1  0.75717481  0.75321093  0.61769257  1
  O  O307  1  0.25893650  0.24367898  0.39861367  1
  O  O308  1  0.23673870  0.25203517  0.88453662  1
  O  O309  1  0.24073709  0.78188664  0.38586226  1
  O  O310  1  0.24397233  0.74590395  0.88026765  1
  O  O311  1  0.75314876  0.24378581  0.38375531  1
  O  O312  1  0.74723322  0.24327289  0.88406311  1
  O  O313  1  0.74731192  0.75251143  0.38562191  1
  O  O314  1  0.73683397  0.74374959  0.86721799  1
  O  O315  1  -0.00605139  0.12765134  0.01795897  1
  O  O316  1  -0.00426205  0.11897688  0.50522350  1
  O  O317  1  -0.00642298  0.61409197  0.00539489  1
  O  O318  1  -0.00397060  0.61361150  0.49609981  1
  O  O319  1  0.49446540  0.11916167  0.01109968  1
  O  O320  1  0.50867852  0.11819847  0.50333418  1
  O  O321  1  0.50869706  0.61628009  0.00760698  1
  O  O322  1  0.49303465  0.60929394  0.51502087  1
  O  O323  1  0.49723673  0.38601714  0.50823523  1
  O  O324  1  0.49965070  0.38768714  1.00082707  1
  O  O325  1  0.49117498  0.88060542  0.50350690  1
  O  O326  1  0.49508061  0.88218773  0.99640118  1
  O  O327  1  0.99241759  0.37955592  0.49513659  1
  O  O328  1  0.99399360  0.38433100  0.99722892  1
  O  O329  1  0.99414893  0.87066975  0.48435722  1
  O  O330  1  0.99015940  0.85382275  0.97039169  1
  O  O331  1  0.49130799  0.50230565  0.38391001  1
  O  O332  1  0.49566949  0.50107351  0.88282893  1
  O  O333  1  0.49235271  0.99960619  0.38817255  1
  O  O334  1  0.50388211  0.99367717  0.88493494  1
  O  O335  1  0.99199339  0.49126081  0.38666733  1
  O  O336  1  1.00036646  0.49573179  0.88301093  1
  O  O337  1  0.99297622  0.99913737  0.37521546  1
  O  O338  1  1.00367934  0.98213839  0.86791429  1
  O  O339  1  -0.00267089  0.01801718  0.13175778  1
  O  O340  1  0.01073235  0.00093998  0.62956963  1
  O  O341  1  0.00567753  0.50522560  0.11845793  1
  O  O342  1  0.00889691  0.49624061  0.61028234  1
  O  O343  1  0.50674712  0.01087274  0.12049433  1
  O  O344  1  0.49447042  0.00233703  0.61215607  1
  O  O345  1  0.50590429  0.50777127  0.11862318  1
  O  O346  1  0.50861773  0.50314917  0.62313688  1
  O  O347  1  0.25073198  0.39067772  0.23602919  1
  O  O348  1  0.24499719  0.37861055  0.74461633  1
  O  O349  1  0.24388654  0.88297852  0.24197467  1
  O  O350  1  0.24902830  0.87916601  0.73771038  1
  O  O351  1  0.75052236  0.38153033  0.23810146  1
  O  O352  1  0.74865645  0.38036762  0.74641293  1
  O  O353  1  0.74130077  0.88614447  0.24172005  1
  O  O354  1  0.74610344  0.88542366  0.74239187  1
  O  O355  1  0.25885267  0.11148759  0.24234435  1
  O  O356  1  0.24531285  0.10846650  0.74528523  1
  O  O357  1  0.26030981  0.61531052  0.23561532  1
  O  O358  1  0.25868184  0.61685287  0.75921836  1
  O  O359  1  0.74173836  0.12226318  0.26346967  1
  O  O360  1  0.75829059  0.11933851  0.75557370  1
  O  O361  1  0.76440745  0.62045494  0.24064130  1
  O  O362  1  0.74249279  0.61594826  0.76141379  1
  O  O363  1  0.37657621  0.11078645  0.36725984  1
  O  O364  1  0.37773902  0.11528751  0.86816045  1
  O  O365  1  0.37921353  0.61947670  0.36111043  1
  O  O366  1  0.37284965  0.61577714  0.87236595  1
  O  O367  1  0.86312632  0.11829111  0.37826023  1
  O  O368  1  0.86737891  0.13352362  0.86472683  1
  O  O369  1  0.88239933  0.61663166  0.36323681  1
  O  O370  1  0.86030621  0.62458353  0.88225818  1
  O  O371  1  0.13182359  0.38216188  0.12448276  1
  O  O372  1  0.13239767  0.37945100  0.63108767  1
  O  O373  1  0.13737733  0.86265631  0.13869362  1
  O  O374  1  0.13189933  0.87880450  0.62561244  1
  O  O375  1  0.63311648  0.38435840  0.12873306  1
  O  O376  1  0.63493155  0.38128535  0.63256041  1
  O  O377  1  0.63109528  0.88935848  0.12798821  1
  O  O378  1  0.63932130  0.86634126  0.62697735  1
  O  O379  1  0.16546448  0.26140618  0.27228730  1
  O  O380  1  0.12111102  0.25253575  0.75968112  1
  O  O381  1  0.11486044  0.75771068  0.25370214  1
  O  O382  1  0.11458026  0.74639982  0.75415655  1
  O  O383  1  0.60555116  0.25183643  0.25394051  1
  O  O384  1  0.62273331  0.25573670  0.75835825  1
  O  O385  1  0.62840348  0.75026447  0.26903016  1
  O  O386  1  0.61692932  0.75085457  0.75925149  1
  O  O387  1  0.37957070  0.23960912  0.25586709  1
  O  O388  1  0.38470027  0.25156104  0.74880070  1
  O  O389  1  0.36761607  0.74319609  0.23759969  1
  O  O390  1  0.38180409  0.74409248  0.74559110  1
  O  O391  1  0.87109384  0.25759068  0.23730332  1
  O  O392  1  0.88249583  0.24172407  0.74415162  1
  O  O393  1  0.87877324  0.74420801  0.24360867  1
  O  O394  1  0.87814259  0.74642850  0.73406237  1
  O  O395  1  0.38412957  0.49009365  0.48953699  1
  O  O396  1  0.38439310  0.50305207  0.99293092  1
  O  O397  1  0.38094542  0.99523783  0.49533776  1
  O  O398  1  0.38591895  0.99229358  1.00271859  1
  O  O399  1  0.88558347  0.49392806  0.49733732  1
  O  O400  1  0.88171834  0.48966780  0.99938440  1
  O  O401  1  0.86848360  0.99566751  0.48538317  1
  O  O402  1  0.88655477  0.98672781  1.00194982  1
  O  O403  1  0.10426449  -0.03637286  0.00967304  1
  O  O404  1  0.12502030  -0.00974173  0.50511519  1
  O  O405  1  0.11608496  0.49734161  0.00984304  1
  O  O406  1  0.11277649  0.50073863  0.50624118  1
  O  O407  1  0.61121334  0.00060341  0.00999716  1
  O  O408  1  0.61714101  0.00804303  0.49559690  1
  O  O409  1  0.61915028  0.50624304  0.00965788  1
  O  O410  1  0.62058206  0.49613501  0.51395808  1
  O  O411  1  0.36051960  0.38257749  0.11860299  1
  O  O412  1  0.36745692  0.36202479  0.62896876  1
  O  O413  1  0.36830888  0.86794238  0.12139037  1
  O  O414  1  0.37099871  0.86636446  0.62134984  1
  O  O415  1  0.87011001  0.36964517  0.11909516  1
  O  O416  1  0.87450942  0.37010778  0.61889675  1
  O  O417  1  0.85436614  0.87513114  0.13123191  1
  O  O418  1  0.86181312  0.86540155  0.62247925  1
  O  O419  1  0.10811763  0.11237206  0.37926842  1
  O  O420  1  0.12012274  0.13546866  0.87266501  1
  O  O421  1  0.12620753  0.62005554  0.36202560  1
  O  O422  1  0.13354746  0.63591997  0.87299006  1
  O  O423  1  0.63237623  0.13186956  0.38750432  1
  O  O424  1  0.63730801  0.13986804  0.87376823  1
  O  O425  1  0.62468992  0.63616788  0.37435859  1
  O  O426  1  0.63043513  0.63229581  0.88402161  1
