# generated using pymatgen
data_V85Zn86O256
_symmetry_space_group_name_H-M   'P 1'
_cell_length_a   16.93036036
_cell_length_b   16.95336387
_cell_length_c   16.94927036
_cell_angle_alpha   89.98387431
_cell_angle_beta   89.97818288
_cell_angle_gamma   90.05192566
_symmetry_Int_Tables_number   1
_chemical_formula_structural   V85Zn86O256
_chemical_formula_sum   'V85 Zn86 O256'
_cell_volume   4864.88821538
_cell_formula_units_Z   1
loop_
 _symmetry_equiv_pos_site_id
 _symmetry_equiv_pos_as_xyz
  1  'x, y, z'
loop_
 _atom_site_type_symbol
 _atom_site_label
 _atom_site_symmetry_multiplicity
 _atom_site_fract_x
 _atom_site_fract_y
 _atom_site_fract_z
 _atom_site_occupancy
  V  V0  1  0.74778487  0.49781249  0.74966912  1
  V  V1  1  0.87531114  0.49939608  0.87411604  1
  V  V2  1  -0.00152339  0.11636786  0.63316710  1
  V  V3  1  0.50246312  0.12530618  0.12442844  1
  V  V4  1  0.62437012  0.74819797  0.87694871  1
  V  V5  1  0.88057094  0.25324402  0.12957455  1
  V  V6  1  0.75314759  0.13007003  0.37223040  1
  V  V7  1  0.87487545  0.24489005  0.63401746  1
  V  V8  1  0.50438408  0.37798287  0.37220864  1
  V  V9  1  0.87264192  0.49885678  0.35824231  1
  V  V10  1  0.24656862  0.00314464  0.74237349  1
  V  V11  1  0.75853138  0.00421763  0.24984147  1
  V  V12  1  -0.00429170  0.10595325  0.12532562  1
  V  V13  1  0.62905222  0.25158665  0.37536210  1
  V  V14  1  0.12582170  0.11375738  0.51066133  1
  V  V15  1  0.49997136  0.74274150  0.74134782  1
  V  V16  1  0.75693661  0.25297414  0.49759161  1
  V  V17  1  0.18987082  0.32624517  0.18341055  1
  V  V18  1  0.11594154  0.11179370  -0.00102599  1
  V  V19  1  -0.01520736  0.49187370  0.49736376  1
  V  V20  1  0.75655548  0.62595506  0.36221323  1
  V  V21  1  0.00608433  0.37581529  0.86852305  1
  V  V22  1  0.12429506  0.62405003  0.49743114  1
  V  V23  1  0.24611342  0.88000023  0.12344539  1
  V  V24  1  0.11934515  0.62583887  0.00199866  1
  V  V25  1  -0.00209322  0.62664975  0.62395119  1
  V  V26  1  0.00912326  0.25202446  0.74406945  1
  V  V27  1  0.74830049  0.62374251  0.87691775  1
  V  V28  1  0.24431493  0.12490704  0.37873923  1
  V  V29  1  -0.00510458  0.87424767  0.37976326  1
  V  V30  1  0.24367393  0.25308305  0.49517596  1
  V  V31  1  0.50185668  -0.00068006  0.00084390  1
  V  V32  1  0.86697763  0.37359559  -0.00004101  1
  V  V33  1  0.37462741  -0.00026287  0.87334122  1
  V  V34  1  0.74904280  0.23834235  -0.00338927  1
  V  V35  1  0.49913070  0.50518991  0.50363503  1
  V  V36  1  0.12513222  0.75334713  0.37310842  1
  V  V37  1  0.50388752  0.25314749  0.24885747  1
  V  V38  1  0.37671464  0.12247145  0.25334479  1
  V  V39  1  0.49677704  0.88088280  0.37713817  1
  V  V40  1  0.50116851  0.87235377  0.87383029  1
  V  V41  1  0.50284739  0.36706981  0.87112494  1
  V  V42  1  0.24599320  0.49845894  0.75016944  1
  V  V43  1  0.25095857  0.87174437  0.62280231  1
  V  V44  1  0.62527296  0.74924390  0.37337507  1
  V  V45  1  -0.00218968  0.50192497  0.00536916  1
  V  V46  1  -0.00075645  0.88039060  0.87810428  1
  V  V47  1  0.75144608  0.01801815  0.74641990  1
  V  V48  1  0.63747001  0.49692997  0.12746560  1
  V  V49  1  0.87348403  -0.00302125  0.38865030  1
  V  V50  1  0.12185427  0.49698945  0.62719503  1
  V  V51  1  0.37515734  0.50142569  0.87483041  1
  V  V52  1  0.64741005  0.37796146  0.24535512  1
  V  V53  1  0.61844500  -0.00186486  0.61914418  1
  V  V54  1  0.87182784  0.76367352  0.62230838  1
  V  V55  1  0.75404103  0.75887772  0.50260883  1
  V  V56  1  -0.00330330  0.73943942  0.24628657  1
  V  V57  1  0.62480504  0.62582003  0.50021016  1
  V  V58  1  0.37716464  0.37468930  0.50027183  1
  V  V59  1  0.25216485  0.62686045  0.36392120  1
  V  V60  1  0.62313892  0.87607086  0.24689023  1
  V  V61  1  0.38343361  0.13320878  0.74854986  1
  V  V62  1  0.12327552  0.87847306  0.74501689  1
  V  V63  1  0.24835962  -0.00310757  0.25063259  1
  V  V64  1  0.49789824  0.50100346  0.00862130  1
  V  V65  1  0.36724754  0.37386807  0.00443990  1
  V  V66  1  0.24683273  0.12760708  0.87576333  1
  V  V67  1  0.24986497  0.74817603  -0.00160185  1
  V  V68  1  0.75270255  0.87468520  0.12527917  1
  V  V69  1  0.75655423  0.37675606  0.61984280  1
  V  V70  1  0.12608213  0.50317673  0.13199052  1
  V  V71  1  0.00025749  0.75060007  0.75020023  1
  V  V72  1  0.49747925  0.73663597  0.24662243  1
  V  V73  1  0.63681693  0.87382528  0.74823857  1
  V  V74  1  0.87913714  0.87769843  0.00216968  1
  V  V75  1  0.62026901  0.62476872  0.00715411  1
  V  V76  1  0.86785408  0.01004772  0.87585387  1
  V  V77  1  0.37715306  0.50628940  0.36524025  1
  V  V78  1  0.24525837  0.37402144  0.62689502  1
  V  V79  1  0.87785460  0.73923897  0.12679442  1
  V  V80  1  0.62315105  0.50266614  0.62445587  1
  V  V81  1  0.37360109  0.25352619  0.12619779  1
  V  V82  1  0.37503273  0.87293461  0.00160508  1
  V  V83  1  0.37733903  0.73468300  0.12702818  1
  V  V84  1  0.87397801  0.62634542  0.74952701  1
  Zn  Zn85  1  0.24896190  0.62501863  0.87290219  1
  Zn  Zn86  1  0.92582989  0.16521505  0.28637786  1
  Zn  Zn87  1  0.25444621  0.49983584  0.24281899  1
  Zn  Zn88  1  0.62748085  0.12299984  -0.00332345  1
  Zn  Zn89  1  0.38586409  0.87710248  0.50953272  1
  Zn  Zn90  1  0.50168325  0.13286394  0.61656162  1
  Zn  Zn91  1  0.12434725  0.74968754  0.87487016  1
  Zn  Zn92  1  0.62856730  0.00274372  0.12507901  1
  Zn  Zn93  1  0.38201460  0.25650424  0.63088477  1
  Zn  Zn94  1  0.61577788  0.37036210  0.74190040  1
  Zn  Zn95  1  0.06308080  0.31651582  0.32778493  1
  Zn  Zn96  1  0.37730296  0.74134223  0.61798296  1
  Zn  Zn97  1  0.12354729  0.25213944  0.87481939  1
  Zn  Zn98  1  0.00002562  -0.00879828  0.50999787  1
  Zn  Zn99  1  0.25415155  0.74919574  0.49994316  1
  Zn  Zn100  1  0.61926386  0.12062430  0.49587795  1
  Zn  Zn101  1  0.24187538  0.25070548  0.00270168  1
  Zn  Zn102  1  0.38410354  0.00908760  0.38993160  1
  Zn  Zn103  1  0.37790206  0.62054805  0.73932725  1
  Zn  Zn104  1  0.63317417  0.23768422  0.86162719  1
  Zn  Zn105  1  0.12148177  0.87856521  0.24422077  1
  Zn  Zn106  1  0.75053239  0.75009205  0.00150716  1
  Zn  Zn107  1  0.17381733  0.16050070  0.19185857  1
  Zn  Zn108  1  0.18691666  0.18912421  0.68443541  1
  Zn  Zn109  1  0.18367596  0.68927839  0.18401092  1
  Zn  Zn110  1  0.18773321  0.68604220  0.68786757  1
  Zn  Zn111  1  0.69543860  0.19213053  0.18465099  1
  Zn  Zn112  1  0.68106746  0.18976004  0.68378367  1
  Zn  Zn113  1  0.68567367  0.68931354  0.18401456  1
  Zn  Zn114  1  0.68727515  0.68717745  0.68590235  1
  Zn  Zn115  1  0.31872558  0.30967426  0.31899501  1
  Zn  Zn116  1  0.31024307  0.31556627  0.81453677  1
  Zn  Zn117  1  0.31574655  0.80987945  0.30999150  1
  Zn  Zn118  1  0.31392148  0.81189522  0.80993471  1
  Zn  Zn119  1  0.89816049  0.32400819  0.31605285  1
  Zn  Zn120  1  0.81081094  0.31257049  0.81142244  1
  Zn  Zn121  1  0.81420473  0.81264260  0.31269683  1
  Zn  Zn122  1  0.81401611  0.81130200  0.81583081  1
  Zn  Zn123  1  0.18822969  0.44287454  0.43249344  1
  Zn  Zn124  1  0.18553011  0.43897835  0.94021178  1
  Zn  Zn125  1  0.19127099  0.93810729  0.43592171  1
  Zn  Zn126  1  0.18781291  0.93686090  0.93208115  1
  Zn  Zn127  1  0.69689193  0.43766716  0.43308420  1
  Zn  Zn128  1  0.68588251  0.43542664  0.93960336  1
  Zn  Zn129  1  0.68700753  0.93678042  0.43427947  1
  Zn  Zn130  1  0.68964862  0.93834074  0.93703349  1
  Zn  Zn131  1  0.31251837  0.06390299  0.06178587  1
  Zn  Zn132  1  0.31889176  0.05931736  0.56352317  1
  Zn  Zn133  1  0.30569014  0.56008030  0.06188830  1
  Zn  Zn134  1  0.31135466  0.56526678  0.56029717  1
  Zn  Zn135  1  0.81759271  0.06200050  0.06247102  1
  Zn  Zn136  1  0.80773613  0.06531766  0.56515622  1
  Zn  Zn137  1  0.81142396  0.56215751  0.06179669  1
  Zn  Zn138  1  0.80742322  0.57312199  0.56338909  1
  Zn  Zn139  1  0.44123224  0.43797367  0.18594270  1
  Zn  Zn140  1  0.43533284  0.43991600  0.68698764  1
  Zn  Zn141  1  0.43441247  0.93457970  0.18788222  1
  Zn  Zn142  1  0.43752304  0.93496769  0.69009203  1
  Zn  Zn143  1  0.94366531  0.43464155  0.18638371  1
  Zn  Zn144  1  0.93631725  0.43543517  0.68540447  1
  Zn  Zn145  1  0.93613508  0.93155833  0.19502850  1
  Zn  Zn146  1  0.93253513  0.93947591  0.69368666  1
  Zn  Zn147  1  0.06652699  0.05699253  0.31781180  1
  Zn  Zn148  1  0.05937137  0.06195404  0.81141174  1
  Zn  Zn149  1  0.05760617  0.55922709  0.31382817  1
  Zn  Zn150  1  0.06334873  0.56300824  0.81416237  1
  Zn  Zn151  1  0.56814709  0.06276275  0.31097629  1
  Zn  Zn152  1  0.56584438  0.06185258  0.81319259  1
  Zn  Zn153  1  0.56911563  0.55997571  0.31292076  1
  Zn  Zn154  1  0.56177846  0.55908842  0.81666960  1
  Zn  Zn155  1  0.44084592  0.18964272  0.44214279  1
  Zn  Zn156  1  0.43530829  0.18722867  0.93883103  1
  Zn  Zn157  1  0.43762147  0.69185974  0.43755940  1
  Zn  Zn158  1  0.43758646  0.68466302  0.93639785  1
  Zn  Zn159  1  0.93964766  0.18736020  0.45349531  1
  Zn  Zn160  1  0.94089292  0.18961736  0.93738855  1
  Zn  Zn161  1  0.93626813  0.68689103  0.43717881  1
  Zn  Zn162  1  0.93737227  0.69025816  0.93849964  1
  Zn  Zn163  1  0.05432359  0.30668017  0.05370911  1
  Zn  Zn164  1  0.08105716  0.33006815  0.51704664  1
  Zn  Zn165  1  0.06204916  0.81483664  0.06264886  1
  Zn  Zn166  1  0.06461440  0.81163912  0.56257966  1
  Zn  Zn167  1  0.56373393  0.31573974  0.06131203  1
  Zn  Zn168  1  0.56492585  0.31095244  0.56288159  1
  Zn  Zn169  1  0.56101505  0.81068372  0.06526587  1
  Zn  Zn170  1  0.56974635  0.81605453  0.56265203  1
  O  O171  1  0.11029873  0.12119073  0.10948985  1
  O  O172  1  0.11515936  0.12304996  0.62196470  1
  O  O173  1  0.12695341  0.61808861  0.11154198  1
  O  O174  1  0.11981035  0.61797356  0.61627584  1
  O  O175  1  0.61304488  0.12508381  0.12287817  1
  O  O176  1  0.62409669  0.10947114  0.62454823  1
  O  O177  1  0.62810015  0.61776647  0.11378851  1
  O  O178  1  0.63081434  0.61183257  0.61571856  1
  O  O179  1  0.38195263  0.38451880  0.38237059  1
  O  O180  1  0.38178531  0.38364051  0.88135450  1
  O  O181  1  0.39197523  0.87507560  0.36953548  1
  O  O182  1  0.38003499  0.87966713  0.88124880  1
  O  O183  1  0.85265574  0.40277522  0.38272692  1
  O  O184  1  0.88178855  0.38272589  0.88010648  1
  O  O185  1  0.88277097  0.88283105  0.37361269  1
  O  O186  1  0.88015816  0.87887134  0.88357404  1
  O  O187  1  0.25780731  0.00630462  0.36781877  1
  O  O188  1  0.25556815  0.01002537  0.86759998  1
  O  O189  1  0.25844073  0.50791354  0.36964216  1
  O  O190  1  0.25541327  0.49740461  0.86667588  1
  O  O191  1  0.75519112  0.00675559  0.37033201  1
  O  O192  1  0.75939515  -0.00273946  0.86510904  1
  O  O193  1  0.75842872  0.51850891  0.37815117  1
  O  O194  1  0.75359188  0.50339086  0.86933802  1
  O  O195  1  0.23740262  0.49705411  0.12686552  1
  O  O196  1  0.24060890  0.49490974  0.62887090  1
  O  O197  1  0.25948775  0.99148240  0.13443300  1
  O  O198  1  0.25221762  0.99255393  0.63857645  1
  O  O199  1  0.73720825  0.49923577  0.12031380  1
  O  O200  1  0.74495492  0.49594150  0.62854099  1
  O  O201  1  0.75156590  0.99485404  0.13271808  1
  O  O202  1  0.74386419  1.00219096  0.64079006  1
  O  O203  1  -0.01119898  0.37451962  0.26614815  1
  O  O204  1  -0.00482732  0.36805947  0.75748208  1
  O  O205  1  0.00432514  0.86806887  0.26293134  1
  O  O206  1  0.00621011  0.87048097  0.75476438  1
  O  O207  1  0.50159238  0.36775427  0.25698333  1
  O  O208  1  0.49722886  0.38370343  0.76726594  1
  O  O209  1  0.50806277  0.86882022  0.25409068  1
  O  O210  1  0.50924353  0.86550413  0.75785896  1
  O  O211  1  0.49474341  0.12973495  0.24485046  1
  O  O212  1  0.48386098  0.11848743  0.75011188  1
  O  O213  1  0.50799572  0.63768933  0.25501124  1
  O  O214  1  0.50311889  0.63956211  0.75653288  1
  O  O215  1  1.01239431  0.11679451  0.23193929  1
  O  O216  1  1.00241864  0.13481948  0.74288146  1
  O  O217  1  1.00090384  0.64096252  0.25350390  1
  O  O218  1  0.99554372  0.63103054  0.74559288  1
  O  O219  1  0.36758167  0.25509894  0.00875223  1
  O  O220  1  0.36771557  0.26492258  0.49799046  1
  O  O221  1  0.36892658  0.75312720  0.00438335  1
  O  O222  1  0.37225404  0.76022446  0.50021850  1
  O  O223  1  0.86874039  0.25544855  0.00305550  1
  O  O224  1  0.86243662  0.24857677  0.51324856  1
  O  O225  1  0.87473827  0.76118811  0.00705360  1
  O  O226  1  0.86675177  0.74315168  0.51023046  1
  O  O227  1  0.14109967  0.23223769  0.51203659  1
  O  O228  1  0.12499447  0.23704344  0.99459211  1
  O  O229  1  0.12646654  0.74103453  0.49037495  1
  O  O230  1  0.13098539  0.74303548  0.99977182  1
  O  O231  1  0.63727930  0.25295378  0.48910321  1
  O  O232  1  0.64297591  0.25285423  1.00463833  1
  O  O233  1  0.62990252  0.74239940  0.49494627  1
  O  O234  1  0.62425405  0.74107937  0.99697415  1
  O  O235  1  0.49634436  0.24294219  0.12906389  1
  O  O236  1  0.49475209  0.24927111  0.62189683  1
  O  O237  1  0.48945069  0.75294285  0.13380600  1
  O  O238  1  0.50411379  0.75548971  0.63953401  1
  O  O239  1  0.98499537  0.23941341  0.11880202  1
  O  O240  1  0.99024343  0.24308664  0.63215138  1
  O  O241  1  0.99460903  0.75678896  0.13881324  1
  O  O242  1  0.99396444  0.74479189  0.63010299  1
  O  O243  1  -0.02522944  0.24261748  0.36199156  1
  O  O244  1  -0.00269639  0.25882820  0.86415983  1
  O  O245  1  0.00441737  0.75413911  0.36708731  1
  O  O246  1  -0.00203094  0.76202028  0.86729033  1
  O  O247  1  0.50885432  0.25761946  0.36847809  1
  O  O248  1  0.49639762  0.26610428  0.88227915  1
  O  O249  1  0.50725350  0.75845903  0.36502168  1
  O  O250  1  0.50665719  0.75454859  0.86994681  1
  O  O251  1  0.24770814  0.12982340  0.49687179  1
  O  O252  1  0.24108425  0.12562492  0.99275511  1
  O  O253  1  0.23568555  0.62209694  0.48876451  1
  O  O254  1  0.24185554  0.63328909  0.99619183  1
  O  O255  1  0.74450135  0.13244551  0.49035370  1
  O  O256  1  0.74976434  0.13472836  1.00093771  1
  O  O257  1  0.73904754  0.63373316  0.49093956  1
  O  O258  1  0.74109565  0.62604125  0.99227382  1
  O  O259  1  0.26279276  0.37173210  -0.00661404  1
  O  O260  1  0.25911470  0.37054016  0.50514511  1
  O  O261  1  0.25414228  0.86963010  0.00400221  1
  O  O262  1  0.24168405  0.87406647  0.51713619  1
  O  O263  1  0.76315296  0.37158014  -0.00245813  1
  O  O264  1  0.74576280  0.36704442  0.50895867  1
  O  O265  1  0.75638940  0.87292364  0.00875771  1
  O  O266  1  0.74475176  0.85775214  0.49225296  1
  O  O267  1  0.12137707  0.50439232  0.23601265  1
  O  O268  1  0.12819538  0.50272291  0.73561069  1
  O  O269  1  0.14255006  0.99766194  0.25352429  1
  O  O270  1  0.13447194  0.99025628  0.75772833  1
  O  O271  1  0.62249878  0.48665557  0.24246064  1
  O  O272  1  0.62870123  0.49858565  0.74093142  1
  O  O273  1  0.63645652  0.99152301  0.24741735  1
  O  O274  1  0.63647235  0.99301931  0.74718296  1
  O  O275  1  0.37081973  0.01238017  0.25154808  1
  O  O276  1  0.36692645  0.00681173  0.75659587  1
  O  O277  1  0.37771468  0.49829866  0.26171108  1
  O  O278  1  0.36695717  0.50125812  0.75854294  1
  O  O279  1  0.86269894  -0.00436789  0.26014515  1
  O  O280  1  0.85854583  -0.00424085  0.76109053  1
  O  O281  1  0.87830101  0.50362175  0.25946045  1
  O  O282  1  0.86871128  0.50699184  0.75401924  1
  O  O283  1  0.12523809  0.35503981  0.41112453  1
  O  O284  1  0.10997431  0.37485402  0.88056490  1
  O  O285  1  0.12292865  0.86311406  0.37292778  1
  O  O286  1  0.11611554  0.87319322  0.86648343  1
  O  O287  1  0.62530922  0.37301908  0.36321998  1
  O  O288  1  0.60841785  0.37575373  0.87809063  1
  O  O289  1  0.61955169  0.87040300  0.36282982  1
  O  O290  1  0.62071664  0.86801341  0.87034735  1
  O  O291  1  0.38330929  0.13129163  0.13251125  1
  O  O292  1  0.37223115  0.12662747  0.64146684  1
  O  O293  1  0.37060312  0.63551173  0.11925729  1
  O  O294  1  0.37493366  0.62729138  0.62556084  1
  O  O295  1  0.88942644  0.13080170  0.12000826  1
  O  O296  1  0.88342762  0.13395855  0.62143181  1
  O  O297  1  0.87316367  0.64007915  0.11650552  1
  O  O298  1  0.88064438  0.63179069  0.63352082  1
  O  O299  1  0.24730739  0.25454861  0.13137430  1
  O  O300  1  0.25636773  0.26014464  0.61932462  1
  O  O301  1  0.25611707  0.75496212  0.11458126  1
  O  O302  1  0.25051580  0.75806870  0.62493921  1
  O  O303  1  0.76710333  0.24418093  0.10981794  1
  O  O304  1  0.75436431  0.25703975  0.61792169  1
  O  O305  1  0.75950458  0.75800719  0.12554223  1
  O  O306  1  0.75886707  0.74462455  0.61592287  1
  O  O307  1  0.25625078  0.23958664  0.38572146  1
  O  O308  1  0.24684306  0.23724621  0.87341309  1
  O  O309  1  0.24234025  0.74508368  0.37458871  1
  O  O310  1  0.25004095  0.75076771  0.88715519  1
  O  O311  1  0.75002908  0.24067241  0.38108816  1
  O  O312  1  0.75221247  0.25516161  0.89190319  1
  O  O313  1  0.74645604  0.74194889  0.37916378  1
  O  O314  1  0.74195901  0.74201759  0.87733849  1
  O  O315  1  0.00866062  0.12163311  0.00547814  1
  O  O316  1  0.01049451  0.12046388  0.51270194  1
  O  O317  1  0.00601184  0.61466904  -0.00672933  1
  O  O318  1  0.00928837  0.62149256  0.50400028  1
  O  O319  1  0.49441178  0.11608057  0.01047291  1
  O  O320  1  0.50522824  0.12278725  0.50046287  1
  O  O321  1  0.50879456  0.61406590  -0.00539682  1
  O  O322  1  0.51465759  0.61876887  0.49082547  1
  O  O323  1  0.49538929  0.38416122  0.49240321  1
  O  O324  1  0.48987880  0.38128490  0.99311182  1
  O  O325  1  0.50769919  0.86941030  0.47992125  1
  O  O326  1  0.49536146  0.88074208  0.99616338  1
  O  O327  1  0.98618358  0.39310198  0.50745634  1
  O  O328  1  0.98910243  0.38184522  0.99004646  1
  O  O329  1  1.00761083  0.87479465  0.48598755  1
  O  O330  1  0.99283546  0.87329296  0.99069407  1
  O  O331  1  0.49559616  0.49821634  0.38351294  1
  O  O332  1  0.49243382  0.49246103  0.88587340  1
  O  O333  1  0.50203462  0.98462626  0.36481896  1
  O  O334  1  0.49470458  0.99160014  0.88226507  1
  O  O335  1  0.98335682  0.50865418  0.38679277  1
  O  O336  1  0.99449765  0.49404849  0.88079102  1
  O  O337  1  0.99045335  0.99252292  0.37735268  1
  O  O338  1  0.98385542  0.98718356  0.86397056  1
  O  O339  1  -0.01152817  0.00707144  0.12274646  1
  O  O340  1  -0.00798670  0.01091594  0.62765648  1
  O  O341  1  0.00649933  0.49519737  0.11087741  1
  O  O342  1  0.00380710  0.50571846  0.61755816  1
  O  O343  1  0.49908822  0.00673578  0.11873318  1
  O  O344  1  0.51640870  -0.00045316  0.63421446  1
  O  O345  1  0.50839817  0.49632192  0.11265464  1
  O  O346  1  0.50700309  0.49556163  0.61159810  1
  O  O347  1  0.24968804  0.37666299  0.25038939  1
  O  O348  1  0.25286308  0.38686164  0.74085466  1
  O  O349  1  0.25268651  0.88150013  0.24197614  1
  O  O350  1  0.24297497  0.88064445  0.74502219  1
  O  O351  1  0.74243948  0.37485464  0.24905771  1
  O  O352  1  0.74970699  0.38680442  0.74231176  1
  O  O353  1  0.74330291  0.88025548  0.24507153  1
  O  O354  1  0.73857183  0.87426804  0.75523217  1
  O  O355  1  0.25650642  0.11876584  0.25795650  1
  O  O356  1  0.25313095  0.11844320  0.75616967  1
  O  O357  1  0.24403965  0.62448777  0.26085466  1
  O  O358  1  0.24923169  0.61125855  0.75279987  1
  O  O359  1  0.74563002  0.11663382  0.25929234  1
  O  O360  1  0.74864775  0.11570172  0.75050225  1
  O  O361  1  0.74525447  0.63146876  0.26376495  1
  O  O362  1  0.75215816  0.61743271  0.75672368  1
  O  O363  1  0.36767996  0.12656092  0.36747949  1
  O  O364  1  0.36750030  0.12071564  0.86722761  1
  O  O365  1  0.36483344  0.61730549  0.38250148  1
  O  O366  1  0.37261963  0.61015685  0.87464424  1
  O  O367  1  0.86794602  0.11531930  0.37585886  1
  O  O368  1  0.88024967  0.10771502  0.88175215  1
  O  O369  1  0.86254242  0.62048636  0.37636765  1
  O  O370  1  0.86885384  0.62000391  0.87043034  1
  O  O371  1  0.12577075  0.37855479  0.12051552  1
  O  O372  1  0.13665952  0.38369300  0.61220461  1
  O  O373  1  0.14121529  0.87069493  0.12514503  1
  O  O374  1  0.12982230  0.87104677  0.63896335  1
  O  O375  1  0.62274408  0.38089857  0.13792168  1
  O  O376  1  0.63452153  0.38909792  0.62205567  1
  O  O377  1  0.63121684  0.87544167  0.13432552  1
  O  O378  1  0.62481291  0.88612899  0.63549344  1
  O  O379  1  0.13402845  0.26190617  0.24005951  1
  O  O380  1  0.11322306  0.25101497  0.75118898  1
  O  O381  1  0.11470687  0.75233737  0.25519288  1
  O  O382  1  0.11739385  0.75571359  0.75338937  1
  O  O383  1  0.62571153  0.26120363  0.25337865  1
  O  O384  1  0.63263122  0.26052375  0.75205088  1
  O  O385  1  0.61931629  0.75841409  0.25235891  1
  O  O386  1  0.61833451  0.75444797  0.75451300  1
  O  O387  1  0.38068958  0.23998387  0.24594903  1
  O  O388  1  0.36964910  0.23600948  0.75313075  1
  O  O389  1  0.38449773  0.75032834  0.23939636  1
  O  O390  1  0.39119019  0.74656462  0.75324566  1
  O  O391  1  0.86270325  0.24696509  0.23194256  1
  O  O392  1  0.87955707  0.25384195  0.73911484  1
  O  O393  1  0.88768741  0.75486670  0.24240164  1
  O  O394  1  0.88008134  0.74522510  0.74441174  1
  O  O395  1  0.38183379  0.49244876  0.49219086  1
  O  O396  1  0.37921248  0.49348145  0.99624086  1
  O  O397  1  0.37310053  0.98829788  0.49977020  1
  O  O398  1  0.38423174  0.99516075  0.99508322  1
  O  O399  1  0.88512214  0.51355891  0.50208132  1
  O  O400  1  0.88065094  0.49410680  0.99581496  1
  O  O401  1  0.87359311  1.00112096  0.49142952  1
  O  O402  1  0.86718283  0.98811272  0.98680273  1
  O  O403  1  0.12775413  0.01297732  -0.00638618  1
  O  O404  1  0.12484686  0.01031647  0.49774903  1
  O  O405  1  0.11758847  0.50630133  0.00701004  1
  O  O406  1  0.11249383  0.50708294  0.50576176  1
  O  O407  1  0.61282166  -0.00216844  0.00392926  1
  O  O408  1  0.63346311  -0.00396136  0.51665942  1
  O  O409  1  0.61768153  0.50391309  0.00677480  1
  O  O410  1  0.61938577  0.50613927  0.50290700  1
  O  O411  1  0.37967982  0.36757242  0.11681490  1
  O  O412  1  0.36442312  0.38000201  0.61645096  1
  O  O413  1  0.36578783  0.86713233  0.11775658  1
  O  O414  1  0.36536667  0.86756555  0.63038621  1
  O  O415  1  0.88236284  0.36101700  0.11450329  1
  O  O416  1  0.86165903  0.36898246  0.62754815  1
  O  O417  1  0.87170770  0.86991408  0.11811474  1
  O  O418  1  0.87895387  0.86268828  0.62792756  1
  O  O419  1  0.13842858  0.12241013  0.38321630  1
  O  O420  1  0.12907529  0.12470134  0.88287153  1
  O  O421  1  0.12790367  0.63299687  0.37910447  1
  O  O422  1  0.12711427  0.62677729  0.88701538  1
  O  O423  1  0.63453661  0.13330181  0.37316731  1
  O  O424  1  0.61193539  0.12981663  0.88578444  1
  O  O425  1  0.63572026  0.62980002  0.38022941  1
  O  O426  1  0.62890902  0.62740785  0.88546082  1
