# generated using pymatgen
data_V85Zn86O256
_symmetry_space_group_name_H-M   'P 1'
_cell_length_a   16.94013698
_cell_length_b   16.95082297
_cell_length_c   16.94409155
_cell_angle_alpha   89.98778729
_cell_angle_beta   90.10027975
_cell_angle_gamma   89.99490400
_symmetry_Int_Tables_number   1
_chemical_formula_structural   V85Zn86O256
_chemical_formula_sum   'V85 Zn86 O256'
_cell_volume   4865.47581815
_cell_formula_units_Z   1
loop_
 _symmetry_equiv_pos_site_id
 _symmetry_equiv_pos_as_xyz
  1  'x, y, z'
loop_
 _atom_site_type_symbol
 _atom_site_label
 _atom_site_symmetry_multiplicity
 _atom_site_fract_x
 _atom_site_fract_y
 _atom_site_fract_z
 _atom_site_occupancy
  V  V0  1  0.87021897  0.25078459  0.11350049  1
  V  V1  1  0.88299900  -0.00240022  0.87642834  1
  V  V2  1  0.74244108  -0.00923652  0.23856529  1
  V  V3  1  0.62031575  0.49959293  0.12537086  1
  V  V4  1  0.62292033  0.74826058  0.87336532  1
  V  V5  1  0.13116452  -0.01031332  0.62925861  1
  V  V6  1  0.75551247  0.75573370  0.00597145  1
  V  V7  1  0.25023437  0.25361313  0.00047351  1
  V  V8  1  0.00664775  0.11900770  0.12285623  1
  V  V9  1  0.74134377  0.24376910  0.49715667  1
  V  V10  1  0.87244210  0.62210202  0.24427421  1
  V  V11  1  0.49906944  0.86704373  0.37684867  1
  V  V12  1  0.12958951  0.12576160  0.49941110  1
  V  V13  1  0.87322513  0.12460855  0.74979157  1
  V  V14  1  0.50032246  0.24547459  0.75093274  1
  V  V15  1  0.87384982  -0.00125304  0.37422623  1
  V  V16  1  0.61765191  0.24387648  0.36846389  1
  V  V17  1  0.49564873  0.37428529  0.37319239  1
  V  V18  1  0.37709133  0.63278873  0.74791289  1
  V  V19  1  -0.01051978  0.50756092  -0.00858122  1
  V  V20  1  0.50527902  0.13011493  0.12512429  1
  V  V21  1  0.05678707  0.56946782  0.17246738  1
  V  V22  1  0.25048720  0.62701720  0.87695977  1
  V  V23  1  0.13120488  0.63244037  0.50574530  1
  V  V24  1  0.12761083  0.75608154  0.87900013  1
  V  V25  1  0.62793444  0.13001685  0.00158564  1
  V  V26  1  0.55775923  -0.04495998  0.05884593  1
  V  V27  1  0.24600033  0.12526199  0.36014713  1
  V  V28  1  0.14430842  0.59417730  0.02326305  1
  V  V29  1  0.74601068  0.49539513  0.25100115  1
  V  V30  1  0.37415543  0.37597705  0.00013442  1
  V  V31  1  -0.01033409  0.38128501  0.87027020  1
  V  V32  1  0.37739016  0.00227643  0.37845480  1
  V  V33  1  0.73887800  0.38146387  0.61906386  1
  V  V34  1  0.77097273  0.62066002  0.87673095  1
  V  V35  1  0.37534867  0.37593270  0.50143672  1
  V  V36  1  0.74194226  0.11976371  0.37575790  1
  V  V37  1  0.62403133  0.62368257  -0.00223265  1
  V  V38  1  0.12093375  0.25170567  0.87392710  1
  V  V39  1  -0.00010403  0.62511281  0.63216659  1
  V  V40  1  0.12905660  0.88948884  0.24788592  1
  V  V41  1  0.12196071  0.11482888  0.00151322  1
  V  V42  1  0.37609292  0.25144853  0.13132099  1
  V  V43  1  0.87427397  0.12503985  0.24897435  1
  V  V44  1  0.00140183  0.87367261  0.37456493  1
  V  V45  1  0.50596789  0.50493753  0.51172520  1
  V  V46  1  0.50092857  0.12249983  0.61101266  1
  V  V47  1  0.50217893  0.37671955  0.87452376  1
  V  V48  1  0.12516030  0.50045154  0.62723014  1
  V  V49  1  0.13273839  0.75463204  0.37924634  1
  V  V50  1  0.87606167  0.87352862  0.49867593  1
  V  V51  1  0.74870729  0.62042158  0.38183295  1
  V  V52  1  0.88009629  0.75095018  0.63143962  1
  V  V53  1  0.12003649  0.26529887  0.37539655  1
  V  V54  1  0.88065938  0.36994079  0.49532659  1
  V  V55  1  0.25248130  0.50172262  0.75122206  1
  V  V56  1  0.63414243  0.25283925  0.87696697  1
  V  V57  1  0.35638950  0.75126739  0.62074042  1
  V  V58  1  0.00147753  0.00029842  0.50019361  1
  V  V59  1  0.24956913  0.61842880  0.37548150  1
  V  V60  1  0.75000544  0.87694540  0.62390746  1
  V  V61  1  0.74862541  0.74569476  0.49770085  1
  V  V62  1  0.37250633  0.62950149  0.25416590  1
  V  V63  1  0.24688785  0.89420670  0.12990318  1
  V  V64  1  0.37385108  0.88128331  0.00346819  1
  V  V65  1  0.25003740  0.75234289  0.00742890  1
  V  V66  1  0.88347679  0.88074981  0.00929847  1
  V  V67  1  0.00085457  0.12422004  0.62403099  1
  V  V68  1  0.87131540  0.24669514  0.62113982  1
  V  V69  1  0.61665622  0.87882878  0.74559754  1
  V  V70  1  0.24886211  -0.01676415  0.74966696  1
  V  V71  1  0.37718558  0.12212850  0.24864184  1
  V  V72  1  0.62243304  0.00509071  0.61108929  1
  V  V73  1  0.25124267  0.37172527  0.62844987  1
  V  V74  1  0.00490127  0.75774712  0.75471664  1
  V  V75  1  0.25146613  0.12408762  0.87160789  1
  V  V76  1  0.36408127  0.88096332  0.50638484  1
  V  V77  1  0.54712690  0.69495011  0.68922744  1
  V  V78  1  0.75049153  -0.00072458  0.74914819  1
  V  V79  1  0.38471827  0.00126025  0.87547905  1
  V  V80  1  -0.00261904  0.26210791  0.25489360  1
  V  V81  1  0.00352736  0.75145356  0.24455456  1
  V  V82  1  0.61163677  0.37208061  0.24814325  1
  V  V83  1  0.87733643  0.49348854  0.37759047  1
  V  V84  1  0.50195607  0.62898325  0.14109633  1
  Zn  Zn85  1  0.61416596  0.87228989  0.23948380  1
  Zn  Zn86  1  0.62154599  0.38363174  0.74214629  1
  Zn  Zn87  1  0.49753589  0.50346046  0.00004791  1
  Zn  Zn88  1  0.12205332  0.37581811  0.74993319  1
  Zn  Zn89  1  0.37785206  0.50437365  0.87674500  1
  Zn  Zn90  1  0.38009545  0.75738482  0.13508652  1
  Zn  Zn91  1  0.37465493  0.24767067  0.62629352  1
  Zn  Zn92  1  -0.00216339  0.25287709  0.74832301  1
  Zn  Zn93  1  0.50192293  0.87556417  0.87297228  1
  Zn  Zn94  1  0.75348527  0.12739242  0.88272068  1
  Zn  Zn95  1  0.19838306  0.43200582  0.16283573  1
  Zn  Zn96  1  0.37095541  0.50003868  0.37521197  1
  Zn  Zn97  1  0.87377419  0.75184653  0.12872943  1
  Zn  Zn98  1  0.75411313  0.50448014  0.75397097  1
  Zn  Zn99  1  0.86297510  0.37941362  -0.00963149  1
  Zn  Zn100  1  0.00765149  0.88125838  0.87872265  1
  Zn  Zn101  1  0.62322001  0.62353679  0.51187647  1
  Zn  Zn102  1  0.61727920  0.74305603  0.36745760  1
  Zn  Zn103  1  0.37634144  0.12190128  0.74698129  1
  Zn  Zn104  1  0.74033496  0.36461038  0.11744731  1
  Zn  Zn105  1  -0.00002866  0.49659600  0.50222273  1
  Zn  Zn106  1  0.25048281  0.25131005  0.49745240  1
  Zn  Zn107  1  0.16407906  0.24177372  0.16520875  1
  Zn  Zn108  1  0.18666702  0.18497823  0.68951373  1
  Zn  Zn109  1  0.19768634  0.69948029  0.19694659  1
  Zn  Zn110  1  0.18629046  0.69156148  0.69328119  1
  Zn  Zn111  1  0.68665412  0.18388771  0.19073834  1
  Zn  Zn112  1  0.68345342  0.18831740  0.68811952  1
  Zn  Zn113  1  0.68706893  0.69041414  0.19103496  1
  Zn  Zn114  1  0.71003626  0.68820311  0.69172816  1
  Zn  Zn115  1  0.29990788  0.31680785  0.30800241  1
  Zn  Zn116  1  0.31536210  0.31143445  0.81327519  1
  Zn  Zn117  1  0.31208885  0.81285173  0.31454994  1
  Zn  Zn118  1  0.31842677  0.81072693  0.81532443  1
  Zn  Zn119  1  0.80521936  0.31144210  0.30881737  1
  Zn  Zn120  1  0.81027956  0.31309550  0.80486680  1
  Zn  Zn121  1  0.80998861  0.80942540  0.31118369  1
  Zn  Zn122  1  0.81332219  0.81221343  0.81632996  1
  Zn  Zn123  1  0.18764524  0.43984968  0.44421696  1
  Zn  Zn124  1  0.18818456  0.43336750  0.93308057  1
  Zn  Zn125  1  0.19131900  0.94289597  0.43531182  1
  Zn  Zn126  1  0.19257240  0.93948374  0.93768285  1
  Zn  Zn127  1  0.68453802  0.43466869  0.44008403  1
  Zn  Zn128  1  0.69029268  0.43959033  0.93646737  1
  Zn  Zn129  1  0.68705530  0.93518827  0.43434424  1
  Zn  Zn130  1  0.69843793  0.93409017  0.93151087  1
  Zn  Zn131  1  0.31320993  0.06735457  0.05976886  1
  Zn  Zn132  1  0.31117178  0.06333563  0.56273192  1
  Zn  Zn133  1  0.31624249  0.55979500  0.07018165  1
  Zn  Zn134  1  0.31473104  0.56292617  0.56249250  1
  Zn  Zn135  1  0.81373266  0.06268527  0.06198450  1
  Zn  Zn136  1  0.81008632  0.06164303  0.56029818  1
  Zn  Zn137  1  0.80632439  0.56043795  0.06343318  1
  Zn  Zn138  1  0.82421029  0.54984242  0.58595627  1
  Zn  Zn139  1  0.39481585  0.42401568  0.20629671  1
  Zn  Zn140  1  0.43690767  0.43921511  0.69007832  1
  Zn  Zn141  1  0.42925363  0.93907867  0.19751204  1
  Zn  Zn142  1  0.43581968  0.93993583  0.68372591  1
  Zn  Zn143  1  0.93082740  0.43320842  0.18612517  1
  Zn  Zn144  1  0.92977252  0.43785199  0.68902363  1
  Zn  Zn145  1  0.93933863  0.94004308  0.18818337  1
  Zn  Zn146  1  0.94194992  0.93662434  0.68890156  1
  Zn  Zn147  1  0.05995559  0.06917338  0.31232012  1
  Zn  Zn148  1  0.06382233  0.06351777  0.81004355  1
  Zn  Zn149  1  0.06502895  0.55699628  0.33282687  1
  Zn  Zn150  1  0.06294043  0.56695929  0.81512098  1
  Zn  Zn151  1  0.55838215  0.05637127  0.30990004  1
  Zn  Zn152  1  0.56530479  0.06544419  0.81062705  1
  Zn  Zn153  1  0.55927053  0.55770213  0.31817142  1
  Zn  Zn154  1  0.57220214  0.55345301  0.81303727  1
  Zn  Zn155  1  0.43377448  0.19195876  0.43601442  1
  Zn  Zn156  1  0.44313852  0.18581830  0.94075574  1
  Zn  Zn157  1  0.43414207  0.68899192  0.44529679  1
  Zn  Zn158  1  0.43920179  0.69208695  0.93987294  1
  Zn  Zn159  1  0.93605043  0.18603699  0.43514900  1
  Zn  Zn160  1  0.94023722  0.18593695  0.93590037  1
  Zn  Zn161  1  0.94015112  0.68488487  0.43922691  1
  Zn  Zn162  1  0.94980845  0.68990539  0.95071619  1
  Zn  Zn163  1  0.05384375  0.32003572  0.05694827  1
  Zn  Zn164  1  0.06245318  0.31059258  0.56424667  1
  Zn  Zn165  1  0.06628865  0.81167466  0.06446470  1
  Zn  Zn166  1  0.06531510  0.81339983  0.56279899  1
  Zn  Zn167  1  0.55911090  0.31093980  0.05956237  1
  Zn  Zn168  1  0.55901627  0.30493457  0.55657716  1
  Zn  Zn169  1  0.56244442  0.79429005  0.06029009  1
  Zn  Zn170  1  0.56215538  0.82067954  0.54906000  1
  O  O171  1  0.11229410  0.13979426  0.11734043  1
  O  O172  1  0.12053963  0.12157086  0.61611557  1
  O  O173  1  0.11711927  0.64216800  0.12726726  1
  O  O174  1  0.12296570  0.62130634  0.62256826  1
  O  O175  1  0.61532848  0.13002753  0.11961603  1
  O  O176  1  0.61226300  0.11823548  0.62770218  1
  O  O177  1  0.62075377  0.62110088  0.12058093  1
  O  O178  1  0.61674978  0.64274758  0.63423298  1
  O  O179  1  0.37913507  0.37429650  0.38324422  1
  O  O180  1  0.38285810  0.37614094  0.88411230  1
  O  O181  1  0.37762607  0.88224082  0.38250636  1
  O  O182  1  0.38097954  0.88133667  0.88423930  1
  O  O183  1  0.86316965  0.38154014  0.38247092  1
  O  O184  1  0.88516428  0.36915670  0.87116645  1
  O  O185  1  0.88172837  0.87886811  0.37850323  1
  O  O186  1  0.87937655  0.88249944  0.88338092  1
  O  O187  1  0.26241179  0.01371654  0.37968171  1
  O  O188  1  0.25870071  0.00704230  0.86838162  1
  O  O189  1  0.24801116  0.51381947  0.38051131  1
  O  O190  1  0.25398763  0.50962203  0.86976542  1
  O  O191  1  0.75515875  0.00453934  0.36926928  1
  O  O192  1  0.76313718  0.00341397  0.86528152  1
  O  O193  1  0.75588359  0.50361134  0.37283416  1
  O  O194  1  0.75578927  0.51666238  0.87740343  1
  O  O195  1  0.21082585  0.52758625  0.09482648  1
  O  O196  1  0.24521498  0.49161494  0.62992899  1
  O  O197  1  0.25107446  0.99334942  0.12152010  1
  O  O198  1  0.24303056  1.00711542  0.63779502  1
  O  O199  1  0.73444350  0.50152040  0.13386546  1
  O  O200  1  0.73182784  0.47837104  0.59787315  1
  O  O201  1  0.75222087  1.00593845  0.14107075  1
  O  O202  1  0.74389870  0.99560877  0.62994937  1
  O  O203  1  -0.00833329  0.36077780  0.25200809  1
  O  O204  1  -0.00044148  0.37545442  0.75348324  1
  O  O205  1  0.00512748  0.86876247  0.25622541  1
  O  O206  1  -0.00014951  0.86223929  0.75537134  1
  O  O207  1  0.50336299  0.37981027  0.25764217  1
  O  O208  1  0.49902664  0.36879123  0.75953059  1
  O  O209  1  0.49646110  0.88161499  0.26947479  1
  O  O210  1  0.51284563  0.87950403  0.74876300  1
  O  O211  1  0.49082704  0.12122023  0.23870285  1
  O  O212  1  0.49816350  0.13267374  0.74357139  1
  O  O213  1  0.50101327  0.62759563  0.24532770  1
  O  O214  1  0.49613595  0.62841090  0.75166172  1
  O  O215  1  0.99087920  0.13192873  0.24196954  1
  O  O216  1  0.98819414  0.12533487  0.74323806  1
  O  O217  1  0.99825416  0.62441927  0.24696360  1
  O  O218  1  1.00542871  0.63577775  0.73830676  1
  O  O219  1  0.36875577  0.25440486  0.00315590  1
  O  O220  1  0.37206713  0.26361709  0.50417176  1
  O  O221  1  0.36986161  0.76546900  0.00091324  1
  O  O222  1  0.37382785  0.75914838  0.51515523  1
  O  O223  1  0.87719119  0.24795870  0.01182115  1
  O  O224  1  0.86353905  0.25168715  0.49921964  1
  O  O225  1  0.87299665  0.76067933  0.00432889  1
  O  O226  1  0.87274559  0.75751790  0.50521177  1
  O  O227  1  0.12352500  0.24140334  0.49313545  1
  O  O228  1  0.13159130  0.24524943  0.98741328  1
  O  O229  1  0.12140473  0.74414119  0.49247122  1
  O  O230  1  0.13626136  0.74097407  0.99825933  1
  O  O231  1  0.63415598  0.25042833  0.48435292  1
  O  O232  1  0.62072171  0.24198204  0.98989101  1
  O  O233  1  0.63505833  0.74570076  0.49482305  1
  O  O234  1  0.63662764  0.74478311  0.99091617  1
  O  O235  1  0.48937575  0.23977833  0.12007651  1
  O  O236  1  0.50077310  0.23873859  0.63194577  1
  O  O237  1  0.49531905  0.73650941  0.12525509  1
  O  O238  1  0.49532741  0.75391887  0.62529341  1
  O  O239  1  0.98635456  0.24460654  0.13652068  1
  O  O240  1  0.99160102  0.24167422  0.62540670  1
  O  O241  1  0.99672567  0.75443301  0.14096041  1
  O  O242  1  0.99870316  0.74780136  0.63378745  1
  O  O243  1  0.00343667  0.24548819  0.36371361  1
  O  O244  1  0.00643172  0.25761983  0.87267725  1
  O  O245  1  0.00837643  0.75213441  0.36613822  1
  O  O246  1  0.01101630  0.74766934  0.87081770  1
  O  O247  1  0.50621800  0.26200227  0.37940630  1
  O  O248  1  0.50710282  0.25581980  0.86878448  1
  O  O249  1  0.49776236  0.76235066  0.38015641  1
  O  O250  1  0.51764353  0.75581904  0.88173090  1
  O  O251  1  0.24114217  0.13001752  0.49397487  1
  O  O252  1  0.24411806  0.13148944  0.98827076  1
  O  O253  1  0.23804291  0.62318515  0.49691142  1
  O  O254  1  0.25215357  0.63434591  0.99461687  1
  O  O255  1  0.75363816  0.12896986  0.48430781  1
  O  O256  1  0.73396783  0.11818982  1.00070543  1
  O  O257  1  0.74905484  0.62974026  0.49817390  1
  O  O258  1  0.74180831  0.63077486  0.99269517  1
  O  O259  1  0.25990020  0.36523881  -0.00735340  1
  O  O260  1  0.25747787  0.37506691  0.51061677  1
  O  O261  1  0.25670567  0.87066165  0.00817864  1
  O  O262  1  0.26499360  0.87429967  0.49342393  1
  O  O263  1  0.75179544  0.37868417  0.00579267  1
  O  O264  1  0.75355844  0.36053621  0.50190187  1
  O  O265  1  0.76614371  0.86624743  -0.00480444  1
  O  O266  1  0.75507303  0.86643786  0.50411594  1
  O  O267  1  0.11289627  0.51275046  0.23534540  1
  O  O268  1  0.13222749  0.50295263  0.74042169  1
  O  O269  1  0.12024079  0.98824066  0.25868970  1
  O  O270  1  0.13527486  1.00538169  0.74154958  1
  O  O271  1  0.62476884  0.49140160  0.24505751  1
  O  O272  1  0.63957407  0.49559905  0.74846915  1
  O  O273  1  0.63790387  0.99144755  0.25349452  1
  O  O274  1  0.63197966  0.99365262  0.74356729  1
  O  O275  1  0.36958882  0.01543156  0.25918084  1
  O  O276  1  0.36700987  0.00062557  0.75696545  1
  O  O277  1  0.38805340  0.52277205  0.26091707  1
  O  O278  1  0.37116226  0.51641396  0.74973914  1
  O  O279  1  0.86992846  0.01028011  0.25393979  1
  O  O280  1  0.87111811  0.00480378  0.75401063  1
  O  O281  1  0.86962649  0.50294111  0.25787744  1
  O  O282  1  0.85150473  0.51395338  0.69642824  1
  O  O283  1  0.12657156  0.36512013  0.38232234  1
  O  O284  1  0.11314362  0.36768686  0.87136547  1
  O  O285  1  0.12135106  0.87030493  0.37261338  1
  O  O286  1  0.12561200  0.86126215  0.88691207  1
  O  O287  1  0.61653056  0.36758618  0.36693675  1
  O  O288  1  0.61795985  0.36886588  0.87343114  1
  O  O289  1  0.60556594  0.87626722  0.38158888  1
  O  O290  1  0.62828131  0.86722144  0.86301289  1
  O  O291  1  0.38239000  0.12971897  0.12971123  1
  O  O292  1  0.38668716  0.12650728  0.62571662  1
  O  O293  1  0.38465676  0.62588434  0.13534385  1
  O  O294  1  0.37041541  0.64100452  0.63032730  1
  O  O295  1  0.88257136  0.13261477  0.12951304  1
  O  O296  1  0.87909511  0.12714216  0.62935691  1
  O  O297  1  0.86992098  0.62388867  0.14093942  1
  O  O298  1  0.88976488  0.64335471  0.61058680  1
  O  O299  1  0.26289568  0.23854870  0.10657945  1
  O  O300  1  0.24891666  0.26187494  0.62642712  1
  O  O301  1  0.25598766  0.75698773  0.11519808  1
  O  O302  1  0.25799461  0.75448115  0.62843622  1
  O  O303  1  0.76736223  0.24497532  0.13435828  1
  O  O304  1  0.75196031  0.24644303  0.61187247  1
  O  O305  1  0.75365543  0.74328645  0.10976318  1
  O  O306  1  0.76160003  0.75510743  0.61529825  1
  O  O307  1  0.23777495  0.24581107  0.37482621  1
  O  O308  1  0.24503994  0.24366396  0.88057606  1
  O  O309  1  0.23661735  0.74221331  0.37314995  1
  O  O310  1  0.24779850  0.74611130  0.88604393  1
  O  O311  1  0.74061257  0.23941640  0.37718266  1
  O  O312  1  0.73746895  0.24811023  0.86701579  1
  O  O313  1  0.75688688  0.74042754  0.38849487  1
  O  O314  1  0.74332954  0.74324618  0.88376547  1
  O  O315  1  0.00690720  0.13052398  0.01300537  1
  O  O316  1  0.00777871  0.11895091  0.50264738  1
  O  O317  1  0.01933817  0.61363323  0.00478381  1
  O  O318  1  0.01336011  0.62512766  0.51165511  1
  O  O319  1  0.51168634  0.12044006  0.01034407  1
  O  O320  1  0.49835283  0.13170852  0.51239385  1
  O  O321  1  0.51289007  0.62754123  0.00552105  1
  O  O322  1  0.50131464  0.60984809  0.49704311  1
  O  O323  1  0.49311849  0.38011591  0.49530379  1
  O  O324  1  0.49454503  0.37580423  0.98703284  1
  O  O325  1  0.48332607  0.87682908  0.48690650  1
  O  O326  1  0.49847415  0.88469473  1.00367728  1
  O  O327  1  0.98417490  0.37253969  0.50528516  1
  O  O328  1  0.99094666  0.38607054  0.98847174  1
  O  O329  1  0.99642424  0.88080495  0.49393172  1
  O  O330  1  0.98790755  0.86976478  0.99841425  1
  O  O331  1  0.49768569  0.48578525  0.38601225  1
  O  O332  1  0.49786663  0.49111430  0.87749735  1
  O  O333  1  0.48329433  0.99696867  0.37549538  1
  O  O334  1  0.48821654  0.99952257  0.86899281  1
  O  O335  1  0.98346629  0.50096186  0.38330236  1
  O  O336  1  0.99759150  0.49489911  0.87769845  1
  O  O337  1  0.99313684  0.99672538  0.38090818  1
  O  O338  1  0.98794910  0.99994149  0.86895948  1
  O  O339  1  -0.00085527  0.02009031  0.13084445  1
  O  O340  1  0.00748760  0.00558621  0.61983767  1
  O  O341  1  0.00031891  0.50101140  0.11898206  1
  O  O342  1  0.00922564  0.50901860  0.62510272  1
  O  O343  1  0.49669547  0.00683423  0.12387802  1
  O  O344  1  0.50697714  0.01406819  0.62743554  1
  O  O345  1  0.51259294  0.51202230  0.12232134  1
  O  O346  1  0.49807993  0.49465315  0.61059441  1
  O  O347  1  0.28257414  0.39362004  0.22971577  1
  O  O348  1  0.24977149  0.38177250  0.74484988  1
  O  O349  1  0.24178144  0.87203243  0.24175592  1
  O  O350  1  0.25138831  0.88417763  0.75770174  1
  O  O351  1  0.73349329  0.37946641  0.24507354  1
  O  O352  1  0.75077462  0.37432443  0.72774801  1
  O  O353  1  0.75659186  0.88976862  0.25063444  1
  O  O354  1  0.74089714  0.87647863  0.74194233  1
  O  O355  1  0.25566102  0.13164940  0.25994126  1
  O  O356  1  0.25338902  0.12379882  0.76296358  1
  O  O357  1  0.25722350  0.62652120  0.26194565  1
  O  O358  1  0.25836194  0.62423289  0.75838935  1
  O  O359  1  0.75552922  0.11587873  0.25903896  1
  O  O360  1  0.76089183  0.11964055  0.74809353  1
  O  O361  1  0.75749733  0.61704701  0.26005433  1
  O  O362  1  0.75756812  0.63121130  0.77310311  1
  O  O363  1  0.36952711  0.12372113  0.36865751  1
  O  O364  1  0.36852972  0.11795788  0.87737132  1
  O  O365  1  0.36421379  0.62830392  0.37519588  1
  O  O366  1  0.36767413  0.63067620  0.86853779  1
  O  O367  1  0.86723695  0.11897262  0.36612588  1
  O  O368  1  0.87396226  0.11948458  0.86746099  1
  O  O369  1  0.86611610  0.61632675  0.37093389  1
  O  O370  1  0.86836382  0.63258971  0.88809659  1
  O  O371  1  0.13236282  0.34727343  0.12922543  1
  O  O372  1  0.13123874  0.38325350  0.62659947  1
  O  O373  1  0.13410749  0.87281155  0.13520452  1
  O  O374  1  0.12422253  0.89057103  0.62089605  1
  O  O375  1  0.61799045  0.38120068  0.13162754  1
  O  O376  1  0.63697234  0.35791542  0.62265625  1
  O  O377  1  0.61070609  0.88760706  0.11519267  1
  O  O378  1  0.62901823  0.88155888  0.62761462  1
  O  O379  1  0.10505153  0.24318301  0.26265795  1
  O  O380  1  0.12258920  0.24987490  0.76244172  1
  O  O381  1  0.11856265  0.75913300  0.26037949  1
  O  O382  1  0.11825050  0.74640921  0.76545073  1
  O  O383  1  0.62556199  0.25756488  0.25946741  1
  O  O384  1  0.61411421  0.25313936  0.75772419  1
  O  O385  1  0.64153138  0.76444995  0.25843121  1
  O  O386  1  0.61993200  0.75271059  0.74965578  1
  O  O387  1  0.36859883  0.24097778  0.23630500  1
  O  O388  1  0.38793175  0.24764602  0.74909712  1
  O  O389  1  0.37240952  0.73791787  0.25160188  1
  O  O390  1  0.37570315  0.74293432  0.73914100  1
  O  O391  1  0.88036554  0.23982334  0.24975326  1
  O  O392  1  0.87461899  0.23949088  0.74083919  1
  O  O393  1  0.88365376  0.73892912  0.25291371  1
  O  O394  1  0.88203566  0.75564796  0.73885476  1
  O  O395  1  0.38228522  0.49075986  0.49857612  1
  O  O396  1  0.37736250  0.49070789  1.00001438  1
  O  O397  1  0.37113820  0.98878634  0.49711407  1
  O  O398  1  0.36881327  0.98947850  0.99102649  1
  O  O399  1  0.87400173  0.48788498  0.49503053  1
  O  O400  1  0.88621873  0.50259522  1.00578795  1
  O  O401  1  0.87958401  0.99318830  0.49485556  1
  O  O402  1  0.87165342  0.98870933  0.99295375  1
  O  O403  1  0.12879914  0.01556356  -0.00494364  1
  O  O404  1  0.12295773  0.00939488  0.50550080  1
  O  O405  1  0.11152272  0.50137415  -0.01357677  1
  O  O406  1  0.12242885  0.50783769  0.51328035  1
  O  O407  1  0.62296914  0.00198995  -0.00535039  1
  O  O408  1  0.63168092  -0.00077752  0.51225116  1
  O  O409  1  0.62355158  0.50946187  0.00722403  1
  O  O410  1  0.60998413  0.50160424  0.49725876  1
  O  O411  1  0.38907675  0.36335060  0.10798202  1
  O  O412  1  0.36710515  0.37397611  0.62055829  1
  O  O413  1  0.36814904  0.87763325  0.12070423  1
  O  O414  1  0.37646520  0.86807948  0.61468168  1
  O  O415  1  0.87164506  0.35859589  0.12387203  1
  O  O416  1  0.86067464  0.36269885  0.61250512  1
  O  O417  1  0.87846036  0.87640816  0.11309666  1
  O  O418  1  0.87230254  0.86930877  0.61900867  1
  O  O419  1  0.13058893  0.12975409  0.38280029  1
  O  O420  1  0.13001803  0.13154706  0.88059708  1
  O  O421  1  0.13009016  0.63304876  0.38556127  1
  O  O422  1  0.14065020  0.63021481  0.88312049  1
  O  O423  1  0.62978472  0.13058785  0.36597930  1
  O  O424  1  0.62556791  0.13388851  0.88254368  1
  O  O425  1  0.63966958  0.62275104  0.37609467  1
  O  O426  1  0.62881732  0.63182741  0.88340051  1
