# generated using pymatgen
data_V85Zn86O256
_symmetry_space_group_name_H-M   'P 1'
_cell_length_a   16.91159623
_cell_length_b   16.92129444
_cell_length_c   16.92168117
_cell_angle_alpha   90.07441990
_cell_angle_beta   90.02691825
_cell_angle_gamma   90.03249299
_symmetry_Int_Tables_number   1
_chemical_formula_structural   V85Zn86O256
_chemical_formula_sum   'V85 Zn86 O256'
_cell_volume   4842.40609381
_cell_formula_units_Z   1
loop_
 _symmetry_equiv_pos_site_id
 _symmetry_equiv_pos_as_xyz
  1  'x, y, z'
loop_
 _atom_site_type_symbol
 _atom_site_label
 _atom_site_symmetry_multiplicity
 _atom_site_fract_x
 _atom_site_fract_y
 _atom_site_fract_z
 _atom_site_occupancy
  V  V0  1  0.75680883  0.00348954  0.74783876  1
  V  V1  1  0.50019738  0.86819043  0.37331803  1
  V  V2  1  0.62147985  0.25020590  0.87423967  1
  V  V3  1  0.12282209  0.00251756  0.12855894  1
  V  V4  1  0.24698764  0.75004590  0.50051037  1
  V  V5  1  0.38247006  0.75321758  0.12437991  1
  V  V6  1  0.12021790  0.37727467  0.74376963  1
  V  V7  1  -0.00443189  0.74851349  0.23164165  1
  V  V8  1  0.00095606  0.25423601  0.25559946  1
  V  V9  1  0.25048884  0.37423680  0.61763928  1
  V  V10  1  0.12300393  0.12304308  -0.00114430  1
  V  V11  1  0.38166649  0.12999820  0.25135520  1
  V  V12  1  0.62021508  0.49570882  0.61704511  1
  V  V13  1  0.24895376  0.62539243  0.87501480  1
  V  V14  1  0.73794583  -0.00039297  0.24585431  1
  V  V15  1  0.49654751  0.87616169  0.87515420  1
  V  V16  1  0.12708416  0.37962255  0.23311946  1
  V  V17  1  0.12678183  0.75089412  0.87534586  1
  V  V18  1  0.00054917  0.74962526  0.74982874  1
  V  V19  1  0.62509374  0.87526838  0.74941619  1
  V  V20  1  0.87641144  0.00100795  0.37262784  1
  V  V21  1  0.38257775  0.62988222  0.24992274  1
  V  V22  1  -0.00159417  0.12142221  0.12242553  1
  V  V23  1  0.75657922  0.49408370  0.25594354  1
  V  V24  1  0.74804955  0.87432569  0.62449924  1
  V  V25  1  0.38114648  0.00634523  0.87073095  1
  V  V26  1  0.50153745  0.49654702  -0.00083883  1
  V  V27  1  0.25062470  0.00718729  0.74981112  1
  V  V28  1  0.87248882  0.49968490  0.88128150  1
  V  V29  1  0.63392064  0.62180891  -0.00562472  1
  V  V30  1  0.61619100  0.36839135  0.24875796  1
  V  V31  1  0.12622945  0.26334959  0.37912569  1
  V  V32  1  0.74539129  0.74765265  0.49744214  1
  V  V33  1  0.87468478  0.74704962  0.62425945  1
  V  V34  1  0.74946714  0.37322739  0.12207429  1
  V  V35  1  0.00234805  0.50095546  0.01153108  1
  V  V36  1  0.74696797  0.50226762  0.75411361  1
  V  V37  1  0.87667267  0.25314311  0.12255348  1
  V  V38  1  0.49800093  0.61842436  0.62093837  1
  V  V39  1  0.00124858  0.87837125  0.88137275  1
  V  V40  1  0.43573790  0.93770146  0.04325043  1
  V  V41  1  0.74806521  0.12499470  0.37506188  1
  V  V42  1  0.37361591  0.49741071  0.87333235  1
  V  V43  1  -0.00282686  0.23779399  0.74972173  1
  V  V44  1  -0.00091669  0.00590913  0.50819549  1
  V  V45  1  0.75214464  0.25011092  -0.00023267  1
  V  V46  1  -0.00429319  0.37606706  0.87647756  1
  V  V47  1  0.25422845  0.13109801  0.87535965  1
  V  V48  1  0.11973064  0.74869040  0.37389428  1
  V  V49  1  0.87873519  0.00169357  0.88260913  1
  V  V50  1  0.37492152  0.74914592  0.62648072  1
  V  V51  1  0.87189151  0.62388897  0.75552296  1
  V  V52  1  0.12396067  0.62404002  0.01491708  1
  V  V53  1  0.62442116  0.74563179  0.35915010  1
  V  V54  1  0.75866850  0.61691209  0.37524480  1
  V  V55  1  0.25314038  0.88433866  0.12183750  1
  V  V56  1  0.24397412  0.50006668  0.74536079  1
  V  V57  1  0.49276534  0.23767654  0.74519079  1
  V  V58  1  0.24577667  0.87724955  0.62629217  1
  V  V59  1  0.00131964  0.61171089  0.62632044  1
  V  V60  1  0.87570190  0.87435268  0.49863699  1
  V  V61  1  0.13058914  0.87924533  0.25135131  1
  V  V62  1  0.12302285  0.61743467  0.50258823  1
  V  V63  1  0.75351244  0.37460507  0.62599568  1
  V  V64  1  0.87812374  0.23890789  0.62830860  1
  V  V65  1  0.61239923  0.24556709  0.37293326  1
  V  V66  1  0.75605822  0.12622329  0.87177233  1
  V  V67  1  0.76040093  0.74878323  -0.00220574  1
  V  V68  1  -0.00425820  0.49861667  0.48059537  1
  V  V69  1  0.50960895  0.63085296  0.12720921  1
  V  V70  1  0.74996148  0.87723666  0.12212106  1
  V  V71  1  0.24622525  0.13156464  0.37207698  1
  V  V72  1  0.87731548  0.37708985  0.48864538  1
  V  V73  1  0.25875681  0.75518933  -0.00157489  1
  V  V74  1  0.62931404  0.74563398  0.87305943  1
  V  V75  1  0.61988791  0.11293351  0.00563176  1
  V  V76  1  0.24944999  0.49879046  0.23610725  1
  V  V77  1  0.37912410  0.26031557  0.12703282  1
  V  V78  1  0.12448646  0.13245360  0.50496209  1
  V  V79  1  0.49681474  0.00136132  0.50619211  1
  V  V80  1  0.38243688  0.49802487  0.37995318  1
  V  V81  1  0.36505173  -0.00036289  0.37438318  1
  V  V82  1  0.25058138  0.62348267  0.37272757  1
  V  V83  1  0.37139425  0.23723078  0.62148495  1
  V  V84  1  0.62116205  0.12491672  0.50867354  1
  Zn  Zn85  1  0.88270102  0.87537018  0.00801490  1
  Zn  Zn86  1  0.37307536  0.87514161  0.49905204  1
  Zn  Zn87  1  0.11948241  0.00830566  0.62829975  1
  Zn  Zn88  1  0.38393623  0.37640968  0.50622134  1
  Zn  Zn89  1  0.50049932  0.74848784  0.74875538  1
  Zn  Zn90  1  0.61847500  0.00295251  0.62930907  1
  Zn  Zn91  1  0.74971101  0.24897501  0.50069727  1
  Zn  Zn92  1  0.12345954  0.87766791  0.75070988  1
  Zn  Zn93  1  0.37545510  0.62386156  0.74985288  1
  Zn  Zn94  1  0.12487125  0.25232420  0.87623518  1
  Zn  Zn95  1  0.88712818  0.61680775  0.24071747  1
  Zn  Zn96  1  0.62071877  0.37307889  0.74846333  1
  Zn  Zn97  1  0.50218768  0.11881773  0.12550923  1
  Zn  Zn98  1  0.24356984  0.25833610  0.01326422  1
  Zn  Zn99  1  0.87467370  0.12487325  0.24914520  1
  Zn  Zn100  1  0.50172262  0.37567652  0.37985618  1
  Zn  Zn101  1  0.00039909  0.87649953  0.37330255  1
  Zn  Zn102  1  0.61999090  0.61934606  0.49641522  1
  Zn  Zn103  1  0.36150503  0.38063745  0.00603565  1
  Zn  Zn104  1  0.61911354  0.87187422  0.24102722  1
  Zn  Zn105  1  0.62657314  0.49797049  0.12588738  1
  Zn  Zn106  1  0.49708325  0.37196621  0.87407047  1
  Zn  Zn107  1  0.19207873  0.18930224  0.19239602  1
  Zn  Zn108  1  0.18738450  0.19175743  0.68966873  1
  Zn  Zn109  1  0.19400265  0.69391487  0.18907314  1
  Zn  Zn110  1  0.18541970  0.68637591  0.68740339  1
  Zn  Zn111  1  0.68460387  0.18490955  0.18714725  1
  Zn  Zn112  1  0.68814482  0.18892775  0.68926756  1
  Zn  Zn113  1  0.72374661  0.67279108  0.17195240  1
  Zn  Zn114  1  0.68549541  0.68371764  0.68646517  1
  Zn  Zn115  1  0.30947322  0.31336454  0.31006388  1
  Zn  Zn116  1  0.31318896  0.31460208  0.80953260  1
  Zn  Zn117  1  0.31108719  0.81149212  0.31095487  1
  Zn  Zn118  1  0.31478033  0.81764317  0.81091818  1
  Zn  Zn119  1  0.80790126  0.30701824  0.30976256  1
  Zn  Zn120  1  0.81429350  0.31456440  0.81099186  1
  Zn  Zn121  1  0.81169414  0.81293197  0.31006584  1
  Zn  Zn122  1  0.81387844  0.81506062  0.81446325  1
  Zn  Zn123  1  0.19090762  0.44135169  0.43328048  1
  Zn  Zn124  1  0.18267542  0.43645173  0.93821169  1
  Zn  Zn125  1  0.18505620  0.94026481  0.44073153  1
  Zn  Zn126  1  0.18868146  0.94180094  0.93896534  1
  Zn  Zn127  1  0.68779341  0.43138579  0.43758479  1
  Zn  Zn128  1  0.68895370  0.43432037  0.93753963  1
  Zn  Zn129  1  0.68398198  0.93653483  0.43570579  1
  Zn  Zn130  1  0.68963615  0.93507030  0.93503616  1
  Zn  Zn131  1  0.30695287  0.07304974  0.06639602  1
  Zn  Zn132  1  0.30594504  0.06366845  0.55718925  1
  Zn  Zn133  1  0.31693492  0.56799644  0.06034167  1
  Zn  Zn134  1  0.31002582  0.56145291  0.56326184  1
  Zn  Zn135  1  0.81008066  0.06316344  0.06261825  1
  Zn  Zn136  1  0.80924401  0.06135889  0.56005362  1
  Zn  Zn137  1  0.81709760  0.56073091  0.06562986  1
  Zn  Zn138  1  0.81239237  0.55906779  0.56293517  1
  Zn  Zn139  1  0.44057399  0.44426697  0.19051081  1
  Zn  Zn140  1  0.43726066  0.43117837  0.69127955  1
  Zn  Zn141  1  0.43580903  0.94268947  0.20687353  1
  Zn  Zn142  1  0.43390762  0.93679469  0.68948405  1
  Zn  Zn143  1  0.93690097  0.43154641  0.19099705  1
  Zn  Zn144  1  0.93504422  0.43467798  0.68732010  1
  Zn  Zn145  1  0.93715127  0.93506238  0.18834222  1
  Zn  Zn146  1  0.93574889  0.93681119  0.69089810  1
  Zn  Zn147  1  0.06208199  0.06597631  0.31268066  1
  Zn  Zn148  1  0.06516725  0.06085380  0.81353283  1
  Zn  Zn149  1  0.06487971  0.56423786  0.30459399  1
  Zn  Zn150  1  0.06308369  0.56200280  0.81718083  1
  Zn  Zn151  1  0.55744181  0.05931939  0.32106719  1
  Zn  Zn152  1  0.56671647  0.06280034  0.81615605  1
  Zn  Zn153  1  0.56983206  0.56150000  0.30855081  1
  Zn  Zn154  1  0.56049504  0.56280484  0.80812701  1
  Zn  Zn155  1  0.43498012  0.18705099  0.44358347  1
  Zn  Zn156  1  0.43718550  0.18939344  0.94297906  1
  Zn  Zn157  1  0.43851148  0.68673065  0.44043076  1
  Zn  Zn158  1  0.44196370  0.68450178  0.93723035  1
  Zn  Zn159  1  0.93858851  0.18942955  0.43922021  1
  Zn  Zn160  1  0.93733136  0.18780544  0.93840596  1
  Zn  Zn161  1  0.93620251  0.68573863  0.43401641  1
  Zn  Zn162  1  0.94192789  0.68352208  0.93775547  1
  Zn  Zn163  1  0.05974064  0.31201073  0.05877913  1
  Zn  Zn164  1  0.05827130  0.31511995  0.56364105  1
  Zn  Zn165  1  0.06926175  0.81400764  0.05934139  1
  Zn  Zn166  1  0.06015912  0.81178959  0.56196827  1
  Zn  Zn167  1  0.55863079  0.30649858  0.06352545  1
  Zn  Zn168  1  0.55796710  0.31179443  0.56095043  1
  Zn  Zn169  1  0.57666072  0.80844954  0.06499070  1
  Zn  Zn170  1  0.56105823  0.81212272  0.55966565  1
  O  O171  1  0.12097812  0.12003515  0.12312396  1
  O  O172  1  0.13207230  0.12840582  0.60946914  1
  O  O173  1  0.13293675  0.63198684  0.11386635  1
  O  O174  1  0.11386801  0.63065311  0.61401418  1
  O  O175  1  0.62313337  0.12421677  0.11148407  1
  O  O176  1  0.63059336  0.12313677  0.61247638  1
  O  O177  1  0.62416838  0.62327512  0.11526587  1
  O  O178  1  0.61732640  0.61435409  0.62305553  1
  O  O179  1  0.37432757  0.38962317  0.37163742  1
  O  O180  1  0.37546303  0.38766708  0.87682262  1
  O  O181  1  0.37842965  0.88095308  0.37465442  1
  O  O182  1  0.38891041  0.88151039  0.87535183  1
  O  O183  1  0.86931913  0.36461068  0.39038234  1
  O  O184  1  0.88608827  0.38458269  0.87031265  1
  O  O185  1  0.87423481  0.88383577  0.38128433  1
  O  O186  1  0.88361650  0.88335641  0.87772525  1
  O  O187  1  0.26022154  0.00567757  0.38085505  1
  O  O188  1  0.25680737  0.00824909  0.86891897  1
  O  O189  1  0.25939326  0.50770029  0.36448136  1
  O  O190  1  0.25488128  0.50535148  0.86670015  1
  O  O191  1  0.75547109  0.00775821  0.37100052  1
  O  O192  1  0.75648536  0.00682434  0.86794016  1
  O  O193  1  0.74694991  0.50474917  0.37026136  1
  O  O194  1  0.75996916  0.49339986  0.86771451  1
  O  O195  1  0.25880205  0.50646074  0.13699542  1
  O  O196  1  0.25394137  0.49343455  0.63852708  1
  O  O197  1  0.24489555  0.99051974  0.12213061  1
  O  O198  1  0.24939857  0.99331664  0.63205252  1
  O  O199  1  0.74771474  0.48567701  0.13040918  1
  O  O200  1  0.74471531  0.49272089  0.63271084  1
  O  O201  1  0.75269911  0.99374307  0.13495940  1
  O  O202  1  0.74912348  0.99344582  0.63184079  1
  O  O203  1  0.01416152  0.36849728  0.24794133  1
  O  O204  1  0.00430855  0.37041696  0.75433629  1
  O  O205  1  0.01352829  0.86689813  0.25072849  1
  O  O206  1  0.00036668  0.86657084  0.75898097  1
  O  O207  1  0.51328321  0.37969155  0.25549961  1
  O  O208  1  0.50324929  0.36098619  0.75503004  1
  O  O209  1  0.50313227  0.87514352  0.26587772  1
  O  O210  1  0.50670100  0.87245888  0.75734665  1
  O  O211  1  0.48598213  0.11746506  0.25057905  1
  O  O212  1  0.50542812  0.13845789  0.75309179  1
  O  O213  1  0.49563173  0.62098569  0.23933735  1
  O  O214  1  0.49673281  0.62928900  0.73733816  1
  O  O215  1  1.00020369  0.13419232  0.23826515  1
  O  O216  1  1.00393139  0.13830880  0.75478631  1
  O  O217  1  1.00221437  0.64195799  0.24826688  1
  O  O218  1  0.99467580  0.62790939  0.74314386  1
  O  O219  1  0.37425398  0.25490610  0.01493201  1
  O  O220  1  0.37619372  0.25259658  0.51693090  1
  O  O221  1  0.36548821  0.74256006  0.00581784  1
  O  O222  1  0.36558100  0.74991003  0.51022762  1
  O  O223  1  0.86135201  0.24555208  0.00659147  1
  O  O224  1  0.87684714  0.25984455  0.51103149  1
  O  O225  1  0.86333261  0.74985607  -0.01089725  1
  O  O226  1  0.86499690  0.75264885  0.50227390  1
  O  O227  1  0.11398148  0.24521490  0.49041570  1
  O  O228  1  0.12405300  0.23777114  0.99769476  1
  O  O229  1  0.12689419  0.74132316  0.49244951  1
  O  O230  1  0.13671431  0.74388299  0.99435491  1
  O  O231  1  0.62704717  0.24074016  0.49313118  1
  O  O232  1  0.63419312  0.24271513  0.99399431  1
  O  O233  1  0.63754180  0.74805161  0.49605639  1
  O  O234  1  0.63419790  0.74097453  0.99020889  1
  O  O235  1  0.48529741  0.24070733  0.12441363  1
  O  O236  1  0.48773263  0.24995346  0.63649678  1
  O  O237  1  0.49866565  0.73902628  0.11702164  1
  O  O238  1  0.49015668  0.74500208  0.62470816  1
  O  O239  1  0.99265047  0.24594752  0.13104015  1
  O  O240  1  0.98560975  0.25498908  0.63380679  1
  O  O241  1  1.00242827  0.75547226  0.13274897  1
  O  O242  1  0.99239761  0.74144113  0.62942916  1
  O  O243  1  0.00721769  0.24428377  0.36101534  1
  O  O244  1  -0.00327545  0.25898061  0.86851640  1
  O  O245  1  0.01210024  0.75251281  0.37485253  1
  O  O246  1  0.00633953  0.75548933  0.86953427  1
  O  O247  1  0.50976951  0.24636650  0.37531787  1
  O  O248  1  0.50580807  0.24905803  0.86843119  1
  O  O249  1  0.51055531  0.75571756  0.38193855  1
  O  O250  1  0.50911534  0.75721598  0.87388163  1
  O  O251  1  0.23802359  0.12199984  0.48450524  1
  O  O252  1  0.24159390  0.13197806  0.99235475  1
  O  O253  1  0.23965646  0.62862565  0.49591659  1
  O  O254  1  0.24451837  0.63216458  0.99376062  1
  O  O255  1  0.74093930  0.12450511  0.49096527  1
  O  O256  1  0.74171592  0.13165196  0.99362885  1
  O  O257  1  0.75048967  0.63068170  0.49330489  1
  O  O258  1  0.74005586  0.63106851  0.99889938  1
  O  O259  1  0.24827657  0.37015911  -0.00433687  1
  O  O260  1  0.24943340  0.38405035  0.51539229  1
  O  O261  1  0.24665064  0.86672350  0.00780040  1
  O  O262  1  0.24943142  0.86873485  0.50817783  1
  O  O263  1  0.74479783  0.36543645  0.01300499  1
  O  O264  1  0.76070521  0.37135593  0.50753170  1
  O  O265  1  0.75277521  0.86931892  0.00556151  1
  O  O266  1  0.75459210  0.86781625  0.50357524  1
  O  O267  1  0.13185487  0.48829040  0.25061146  1
  O  O268  1  0.13192818  0.49251184  0.75371033  1
  O  O269  1  0.12281390  0.99339088  0.24008775  1
  O  O270  1  0.13324468  0.99727518  0.74555974  1
  O  O271  1  0.63565084  0.48556423  0.24827697  1
  O  O272  1  0.63294488  0.49689340  0.74314542  1
  O  O273  1  0.63547865  0.99717882  0.25968843  1
  O  O274  1  0.63518898  0.99289747  0.75032845  1
  O  O275  1  0.37014323  0.01463113  0.26269802  1
  O  O276  1  0.36723440  -0.00189202  0.76217161  1
  O  O277  1  0.36964585  0.51133646  0.25651650  1
  O  O278  1  0.36644932  0.50090176  0.75816185  1
  O  O279  1  0.86941275  0.00053670  0.26241288  1
  O  O280  1  0.86267043  -0.00408239  0.75912634  1
  O  O281  1  0.86216627  0.49684337  0.24850988  1
  O  O282  1  0.86876909  0.50566012  0.75696475  1
  O  O283  1  0.12850770  0.36585503  0.37074171  1
  O  O284  1  0.11159442  0.37509327  0.86302545  1
  O  O285  1  0.12694939  0.86891647  0.36711462  1
  O  O286  1  0.11957187  0.87033744  0.87522925  1
  O  O287  1  0.62751686  0.36167718  0.36756922  1
  O  O288  1  0.62587407  0.35949046  0.87502454  1
  O  O289  1  0.61767666  0.86391255  0.37369973  1
  O  O290  1  0.61561835  0.86986415  0.86969472  1
  O  O291  1  0.37794422  0.12690339  0.13963328  1
  O  O292  1  0.36511998  0.13803264  0.62366562  1
  O  O293  1  0.38732144  0.63134621  0.13144814  1
  O  O294  1  0.37915950  0.63094827  0.62585665  1
  O  O295  1  0.88152571  0.13301002  0.12558430  1
  O  O296  1  0.87007486  0.14033373  0.61878115  1
  O  O297  1  0.83395348  0.63705000  0.14328941  1
  O  O298  1  0.88077093  0.62737415  0.63431292  1
  O  O299  1  0.27120289  0.24125045  0.12798100  1
  O  O300  1  0.26356002  0.26027164  0.63619382  1
  O  O301  1  0.26033880  0.76336555  0.11820839  1
  O  O302  1  0.25445067  0.75579685  0.62155459  1
  O  O303  1  0.75619668  0.25119436  0.11858418  1
  O  O304  1  0.76001543  0.25711377  0.62580759  1
  O  O305  1  0.74246874  0.76673100  0.10949009  1
  O  O306  1  0.75466592  0.75168757  0.61713878  1
  O  O307  1  0.23958417  0.24490006  0.37330639  1
  O  O308  1  0.24922331  0.23769510  0.86871997  1
  O  O309  1  0.23970420  0.74450365  0.37905679  1
  O  O310  1  0.24910847  0.74829349  0.88120152  1
  O  O311  1  0.74377604  0.23523895  0.37616474  1
  O  O312  1  0.74713480  0.24477663  0.87996458  1
  O  O313  1  0.74419072  0.74301611  0.38036147  1
  O  O314  1  0.73727274  0.75815875  0.88129898  1
  O  O315  1  0.00650663  0.12975862  0.01321134  1
  O  O316  1  0.00936478  0.11666677  0.49400618  1
  O  O317  1  0.00913015  0.61357819  -0.00123694  1
  O  O318  1  0.00200777  0.61799532  0.50561955  1
  O  O319  1  0.51614849  0.12571618  -0.00063105  1
  O  O320  1  0.50840122  0.11381700  0.49486141  1
  O  O321  1  0.51150291  0.61580575  0.00493637  1
  O  O322  1  0.50161499  0.62621201  0.51508018  1
  O  O323  1  0.49777912  0.37588567  0.49353424  1
  O  O324  1  0.50097606  0.38841620  0.99903974  1
  O  O325  1  0.49634454  0.88008693  0.48985360  1
  O  O326  1  0.50331130  0.87298899  0.99493025  1
  O  O327  1  0.98692472  0.38474147  0.50278006  1
  O  O328  1  1.00573640  0.38869320  0.99031122  1
  O  O329  1  0.99280010  0.88199266  0.49669810  1
  O  O330  1  1.00015835  0.87025243  0.98672188  1
  O  O331  1  0.48479095  0.50444780  0.36846377  1
  O  O332  1  0.49187118  0.50025667  0.88074423  1
  O  O333  1  0.48805626  0.99087055  0.38534772  1
  O  O334  1  0.49247102  0.99322996  0.87286584  1
  O  O335  1  0.99734594  0.50851050  0.38150432  1
  O  O336  1  0.99095665  0.49450210  0.88015861  1
  O  O337  1  0.99156670  0.99948721  0.38139863  1
  O  O338  1  0.99113193  0.99129745  0.86810667  1
  O  O339  1  0.00807554  0.00895833  0.12962650  1
  O  O340  1  -0.00232777  -0.00398114  0.61299203  1
  O  O341  1  -0.00983531  0.49592694  0.11010433  1
  O  O342  1  -0.00556418  0.50983278  0.61891079  1
  O  O343  1  0.48652043  -0.00534001  0.11460200  1
  O  O344  1  0.49839046  -0.00827699  0.61138361  1
  O  O345  1  0.50380732  0.51117808  0.11679177  1
  O  O346  1  0.50896432  0.50457737  0.63325518  1
  O  O347  1  0.23690802  0.38387920  0.25096209  1
  O  O348  1  0.24022593  0.38203963  0.74517652  1
  O  O349  1  0.23860315  0.86887937  0.23916933  1
  O  O350  1  0.24851938  0.88657499  0.74400700  1
  O  O351  1  0.74298584  0.37523465  0.24144186  1
  O  O352  1  0.74924761  0.38496893  0.74298883  1
  O  O353  1  0.74832390  0.88150788  0.24012818  1
  O  O354  1  0.74493952  0.88143880  0.74503410  1
  O  O355  1  0.26006640  0.12598570  0.26399542  1
  O  O356  1  0.24376108  0.11409973  0.75769877  1
  O  O357  1  0.25774632  0.62110862  0.25452191  1
  O  O358  1  0.24910669  0.61755720  0.75609418  1
  O  O359  1  0.75153745  0.11644837  0.25611594  1
  O  O360  1  0.74454013  0.11656787  0.75989784  1
  O  O361  1  0.73632574  0.60663728  0.26470487  1
  O  O362  1  0.75792170  0.61208091  0.74494355  1
  O  O363  1  0.36920122  0.12236213  0.36981591  1
  O  O364  1  0.36798979  0.11729610  0.88163090  1
  O  O365  1  0.37235864  0.62035313  0.36830874  1
  O  O366  1  0.36869850  0.61522024  0.87416197  1
  O  O367  1  0.86627062  0.11912753  0.37519339  1
  O  O368  1  0.86392457  0.11974363  0.87862435  1
  O  O369  1  0.86143897  0.63016102  0.36516418  1
  O  O370  1  0.88042584  0.61698853  0.86192302  1
  O  O371  1  0.12528977  0.37134537  0.13476521  1
  O  O372  1  0.13131293  0.36909226  0.63633753  1
  O  O373  1  0.13329108  0.88341779  0.12910896  1
  O  O374  1  0.13624364  0.87417610  0.62577163  1
  O  O375  1  0.63075963  0.36987987  0.13227379  1
  O  O376  1  0.63712760  0.37721101  0.62535912  1
  O  O377  1  0.63961326  0.88090733  0.12563436  1
  O  O378  1  0.63068763  0.87531098  0.63160778  1
  O  O379  1  0.12075575  0.26120816  0.25416633  1
  O  O380  1  0.11445194  0.25805735  0.75331432  1
  O  O381  1  0.11838787  0.75680136  0.25572967  1
  O  O382  1  0.11959115  0.75198084  0.75801243  1
  O  O383  1  0.62985397  0.25549355  0.25938050  1
  O  O384  1  0.61622858  0.24988651  0.75682708  1
  O  O385  1  0.63452979  0.74882532  0.25901639  1
  O  O386  1  0.62634965  0.75633794  0.75621659  1
  O  O387  1  0.37468765  0.23865013  0.24586845  1
  O  O388  1  0.38601834  0.25021739  0.74335035  1
  O  O389  1  0.37171979  0.73776694  0.24273713  1
  O  O390  1  0.37361938  0.74847251  0.73754148  1
  O  O391  1  0.88358053  0.24790233  0.24306930  1
  O  O392  1  0.88060890  0.25324781  0.73722282  1
  O  O393  1  0.89566581  0.75699692  0.25438501  1
  O  O394  1  0.87749210  0.74103554  0.74671815  1
  O  O395  1  0.36821078  0.50183105  0.48274300  1
  O  O396  1  0.38396154  0.50092186  0.99317033  1
  O  O397  1  0.37958288  0.99905264  0.49338835  1
  O  O398  1  0.36956663  1.00067534  0.99167478  1
  O  O399  1  0.87963839  0.48634106  0.50076884  1
  O  O400  1  0.88456299  0.50812337  0.98884812  1
  O  O401  1  0.87950322  0.99702796  0.49087226  1
  O  O402  1  0.87053831  0.99914914  0.98624932  1
  O  O403  1  0.12958707  0.01291417  0.01310025  1
  O  O404  1  0.11490946  0.00911792  0.50222916  1
  O  O405  1  0.11115318  0.51001265  -0.00462934  1
  O  O406  1  0.11601606  0.51125255  0.49271771  1
  O  O407  1  0.63033223  0.01517338  -0.00801065  1
  O  O408  1  0.61576396  0.00640031  0.50017678  1
  O  O409  1  0.62059663  0.50596335  -0.00137333  1
  O  O410  1  0.63213399  0.49914628  0.51372224  1
  O  O411  1  0.38205886  0.36387991  0.13053996  1
  O  O412  1  0.36539149  0.36853801  0.62565543  1
  O  O413  1  0.37550565  0.87861588  0.11931328  1
  O  O414  1  0.36287065  0.86738518  0.62392093  1
  O  O415  1  0.86646289  0.36044989  0.12846879  1
  O  O416  1  0.86495304  0.36993015  0.61901593  1
  O  O417  1  0.86015257  0.88066009  0.12262088  1
  O  O418  1  0.86834968  0.86709586  0.61961827  1
  O  O419  1  0.13057805  0.13534951  0.37768923  1
  O  O420  1  0.13244708  0.12367017  0.88489268  1
  O  O421  1  0.12934649  0.63223679  0.37980936  1
  O  O422  1  0.13156603  0.63330652  0.88160925  1
  O  O423  1  0.63005103  0.12806651  0.38217692  1
  O  O424  1  0.63516451  0.13434414  0.88262541  1
  O  O425  1  0.63106763  0.63097230  0.37955324  1
  O  O426  1  0.61972193  0.63443919  0.88008588  1
