# generated using pymatgen
data_V85Zn86O256
_symmetry_space_group_name_H-M   'P 1'
_cell_length_a   16.95927560
_cell_length_b   16.95509116
_cell_length_c   16.97277903
_cell_angle_alpha   89.94549892
_cell_angle_beta   90.12551181
_cell_angle_gamma   90.01431373
_symmetry_Int_Tables_number   1
_chemical_formula_structural   V85Zn86O256
_chemical_formula_sum   'V85 Zn86 O256'
_cell_volume   4880.44173081
_cell_formula_units_Z   1
loop_
 _symmetry_equiv_pos_site_id
 _symmetry_equiv_pos_as_xyz
  1  'x, y, z'
loop_
 _atom_site_type_symbol
 _atom_site_label
 _atom_site_symmetry_multiplicity
 _atom_site_fract_x
 _atom_site_fract_y
 _atom_site_fract_z
 _atom_site_occupancy
  V  V0  1  0.74988075  0.12464990  0.87320693  1
  V  V1  1  0.50279892  0.49954445  0.50129620  1
  V  V2  1  0.24974010  0.36986961  0.12084728  1
  V  V3  1  0.12416329  0.50004607  0.11807239  1
  V  V4  1  -0.00119333  0.61650725  0.61542591  1
  V  V5  1  0.74903799  0.62301999  0.87280662  1
  V  V6  1  0.50548126  0.87946059  0.87869844  1
  V  V7  1  0.50447576  0.75293173  0.25299687  1
  V  V8  1  0.74799905  0.87373434  0.61997208  1
  V  V9  1  0.87012804  0.25483286  0.62337853  1
  V  V10  1  0.62797405  0.23360442  0.37781212  1
  V  V11  1  0.61297938  0.12267204  0.00208694  1
  V  V12  1  0.24590436  0.00367853  0.25776579  1
  V  V13  1  0.12516528  0.86543944  0.25886074  1
  V  V14  1  0.48812083  -0.00624043  0.50587049  1
  V  V15  1  0.87729470  0.87291126  0.50092379  1
  V  V16  1  0.49577547  0.62456639  0.11918999  1
  V  V17  1  0.74795055  0.24904873  -0.00019570  1
  V  V18  1  -0.00164195  0.01170551  0.50139692  1
  V  V19  1  0.14000902  0.12752691  0.50117272  1
  V  V20  1  0.37186084  0.37214984  -0.00450429  1
  V  V21  1  0.37535806  0.62345100  0.24996983  1
  V  V22  1  0.50083420  0.13134411  0.62013798  1
  V  V23  1  0.36732840  0.74790021  0.12202452  1
  V  V24  1  0.74947858  0.37220842  0.12814825  1
  V  V25  1  0.87695509  0.12429512  0.74461008  1
  V  V26  1  0.12221231  -0.00034528  0.12851686  1
  V  V27  1  0.87001839  0.49634755  0.86965679  1
  V  V28  1  0.37428900  0.50022761  0.37579622  1
  V  V29  1  0.13879709  0.24439226  0.37851354  1
  V  V30  1  0.87020737  0.75041059  0.62143995  1
  V  V31  1  0.49656807  0.73981990  0.74826554  1
  V  V32  1  0.49891040  0.24264267  0.24671230  1
  V  V33  1  -0.00683067  0.75604904  0.24804198  1
  V  V34  1  0.24315986  0.00228142  0.75388376  1
  V  V35  1  0.12456823  0.37457892  0.25138691  1
  V  V36  1  0.00096960  0.24722817  0.25740845  1
  V  V37  1  0.25310494  0.50857446  0.74388026  1
  V  V38  1  0.87246975  0.37834831  0.50006344  1
  V  V39  1  0.12934162  0.64263212  -0.00629159  1
  V  V40  1  0.37289214  0.51141834  0.87110867  1
  V  V41  1  0.87658138  0.37347952  -0.00016360  1
  V  V42  1  0.62672645  0.63314485  0.49906922  1
  V  V43  1  0.00182234  0.24638290  0.74301475  1
  V  V44  1  0.12552012  0.37914612  0.74565605  1
  V  V45  1  0.16620716  0.81595730  0.80867850  1
  V  V46  1  -0.00104610  0.74985564  0.74957894  1
  V  V47  1  0.49609681  0.25928612  0.74451685  1
  V  V48  1  0.86256196  0.00462754  0.37570832  1
  V  V49  1  0.50396761  0.49894933  -0.00104196  1
  V  V50  1  0.13184716  0.25105502  0.87846843  1
  V  V51  1  0.62603181  0.87596904  0.74975902  1
  V  V52  1  0.87457574  0.62600511  0.23946494  1
  V  V53  1  0.74557894  0.23858810  0.49905937  1
  V  V54  1  0.62433595  0.00560078  0.62033568  1
  V  V55  1  0.24933676  0.75452693  0.49189124  1
  V  V56  1  0.38046521  0.00341092  0.87746616  1
  V  V57  1  -0.00177210  0.12407194  0.12634572  1
  V  V58  1  0.00051627  0.87453535  0.86992587  1
  V  V59  1  0.64036240  0.49754359  0.62324442  1
  V  V60  1  0.24154272  0.62637709  0.37335909  1
  V  V61  1  0.25461003  0.87308942  0.62341861  1
  V  V62  1  0.49503334  0.87275197  0.37967196  1
  V  V63  1  0.87175186  0.84989242  -0.00184004  1
  V  V64  1  0.37488100  0.13182074  0.74684120  1
  V  V65  1  0.67758303  0.67830792  0.05005165  1
  V  V66  1  0.25277657  0.36430643  0.61896735  1
  V  V67  1  0.36759525  0.12737378  0.26438600  1
  V  V68  1  0.37472603  0.24375908  0.12050212  1
  V  V69  1  0.24704322  0.87466635  0.12211052  1
  V  V70  1  0.11956321  -0.00144938  0.62830125  1
  V  V71  1  0.50233030  0.37302662  0.37544734  1
  V  V72  1  0.00099567  0.37511644  0.87378841  1
  V  V73  1  0.87639579  0.24927738  0.12715730  1
  V  V74  1  0.63070678  0.74440567  0.87277396  1
  V  V75  1  0.37184239  0.36224427  0.50086571  1
  V  V76  1  0.86926860  0.61962290  0.74733097  1
  V  V77  1  0.37650262  0.87262134  0.00075429  1
  V  V78  1  0.75146662  0.63102763  0.37788563  1
  V  V79  1  0.62568592  0.37142315  0.25147545  1
  V  V80  1  0.64254551  0.37841792  0.74486270  1
  V  V81  1  0.88173806  0.50157011  0.37543341  1
  V  V82  1  -0.00869140  0.00157442  0.00012263  1
  V  V83  1  0.86334156  0.12506726  0.25706799  1
  V  V84  1  0.13389257  0.12755609  0.00139803  1
  Zn  Zn85  1  0.00682286  0.38124519  0.38653728  1
  Zn  Zn86  1  0.24641248  0.63767494  0.87143636  1
  Zn  Zn87  1  0.25412834  0.13083282  0.88008938  1
  Zn  Zn88  1  0.69409314  0.94822264  0.22954134  1
  Zn  Zn89  1  0.24988295  0.50070138  0.24758689  1
  Zn  Zn90  1  0.49934127  0.37824566  0.86978535  1
  Zn  Zn91  1  0.87266347  -0.00198395  0.87322268  1
  Zn  Zn92  1  0.62970029  0.76161742  0.38062532  1
  Zn  Zn93  1  0.49594163  0.61822693  0.62727284  1
  Zn  Zn94  1  -0.00084462  0.62859217  0.12069113  1
  Zn  Zn95  1  0.62276081  0.25384917  0.87151991  1
  Zn  Zn96  1  0.36487200  -0.00259379  0.38579363  1
  Zn  Zn97  1  0.75054658  0.00114266  0.74809486  1
  Zn  Zn98  1  0.74749400  0.50370830  0.24953341  1
  Zn  Zn99  1  0.00334864  0.87271987  0.37923464  1
  Zn  Zn100  1  0.12284071  0.49584455  0.60806773  1
  Zn  Zn101  1  0.57705800  -0.00714922  0.11085576  1
  Zn  Zn102  1  0.00190365  0.50161461  -0.00172872  1
  Zn  Zn103  1  0.37124824  0.73771474  0.62464698  1
  Zn  Zn104  1  0.62439065  0.49799253  0.12321397  1
  Zn  Zn105  1  0.74535565  0.86999064  0.10842930  1
  Zn  Zn106  1  0.11859971  0.62435168  0.48962264  1
  Zn  Zn107  1  0.18898568  0.18718791  0.18676546  1
  Zn  Zn108  1  0.18520907  0.18456037  0.68642222  1
  Zn  Zn109  1  0.18521465  0.68616413  0.18609907  1
  Zn  Zn110  1  0.18700080  0.68297605  0.67624739  1
  Zn  Zn111  1  0.65882577  0.14158024  0.20989867  1
  Zn  Zn112  1  0.68683033  0.19179457  0.68478120  1
  Zn  Zn113  1  0.71424826  0.73430721  0.22337865  1
  Zn  Zn114  1  0.68617726  0.68556073  0.68473250  1
  Zn  Zn115  1  0.31201417  0.31514095  0.31145554  1
  Zn  Zn116  1  0.31189341  0.31780846  0.80912384  1
  Zn  Zn117  1  0.31568080  0.81316272  0.31227527  1
  Zn  Zn118  1  0.32809191  0.81703290  0.80689732  1
  Zn  Zn119  1  0.81167254  0.31100695  0.31819532  1
  Zn  Zn120  1  0.81392682  0.30864879  0.81294169  1
  Zn  Zn121  1  0.81902405  0.81712868  0.31640242  1
  Zn  Zn122  1  0.81235481  0.81231769  0.81070710  1
  Zn  Zn123  1  0.18629938  0.44144637  0.43831619  1
  Zn  Zn124  1  0.19145715  0.43923495  0.93426997  1
  Zn  Zn125  1  0.18530939  0.93682778  0.44168812  1
  Zn  Zn126  1  0.19064307  0.94646516  0.94596572  1
  Zn  Zn127  1  0.69513307  0.43726241  0.43612284  1
  Zn  Zn128  1  0.68709718  0.43604313  0.93377067  1
  Zn  Zn129  1  0.68127221  0.93851237  0.44199993  1
  Zn  Zn130  1  0.68912688  0.94138105  0.93902668  1
  Zn  Zn131  1  0.36010723  0.04079910  0.08573567  1
  Zn  Zn132  1  0.31179642  0.06383360  0.57071321  1
  Zn  Zn133  1  0.30794198  0.55989555  0.05593536  1
  Zn  Zn134  1  0.31192411  0.56239522  0.56047061  1
  Zn  Zn135  1  0.80256228  0.06222880  0.06671551  1
  Zn  Zn136  1  0.81258077  0.06385694  0.56469079  1
  Zn  Zn137  1  0.81628180  0.55289801  0.06240513  1
  Zn  Zn138  1  0.81372370  0.56345668  0.55596717  1
  Zn  Zn139  1  0.43796975  0.43419517  0.18674653  1
  Zn  Zn140  1  0.43346845  0.44203588  0.68233093  1
  Zn  Zn141  1  0.43402833  0.93454424  0.19961687  1
  Zn  Zn142  1  0.43724105  0.93804471  0.69338451  1
  Zn  Zn143  1  0.93985004  0.43975474  0.18998870  1
  Zn  Zn144  1  0.93339071  0.43510277  0.68643811  1
  Zn  Zn145  1  0.89441805  0.95347099  0.16914457  1
  Zn  Zn146  1  0.93891986  0.93885067  0.68773009  1
  Zn  Zn147  1  0.05839756  0.06032146  0.31780452  1
  Zn  Zn148  1  0.06107308  0.06408367  0.81509350  1
  Zn  Zn149  1  0.06019764  0.56242175  0.30584038  1
  Zn  Zn150  1  0.06150039  0.56297149  0.81133865  1
  Zn  Zn151  1  0.55265094  0.05588531  0.31615050  1
  Zn  Zn152  1  0.56412915  0.06593851  0.80919157  1
  Zn  Zn153  1  0.56562152  0.56309583  0.31071690  1
  Zn  Zn154  1  0.56734873  0.55698512  0.81308484  1
  Zn  Zn155  1  0.44207084  0.18539656  0.43798901  1
  Zn  Zn156  1  0.43711477  0.19487785  0.93050817  1
  Zn  Zn157  1  0.43216736  0.68757245  0.44238920  1
  Zn  Zn158  1  0.43909150  0.68944852  0.93708170  1
  Zn  Zn159  1  0.93909312  0.18889515  0.43917258  1
  Zn  Zn160  1  0.93973592  0.18720951  0.93396233  1
  Zn  Zn161  1  0.93691245  0.69283638  0.43089458  1
  Zn  Zn162  1  0.94778561  0.68076313  0.92996404  1
  Zn  Zn163  1  0.06192655  0.31112247  0.06258910  1
  Zn  Zn164  1  0.06038191  0.30962019  0.56194798  1
  Zn  Zn165  1  0.05520761  0.81512676  0.06679880  1
  Zn  Zn166  1  0.06622467  0.81249760  0.56246677  1
  Zn  Zn167  1  0.56054939  0.30814021  0.06214296  1
  Zn  Zn168  1  0.56605476  0.31436467  0.56358843  1
  Zn  Zn169  1  0.55813718  0.81900139  0.06852023  1
  Zn  Zn170  1  0.55928811  0.81452372  0.56338646  1
  O  O171  1  0.11746283  0.12043832  0.12018145  1
  O  O172  1  0.12909847  0.11459183  0.61266628  1
  O  O173  1  0.12744567  0.61583403  0.11265959  1
  O  O174  1  0.10559088  0.62080975  0.62520985  1
  O  O175  1  0.62388312  0.13554227  0.10191831  1
  O  O176  1  0.61415349  0.11644699  0.63420971  1
  O  O177  1  0.61801480  0.62290816  0.11512806  1
  O  O178  1  0.62104428  0.61632591  0.61641569  1
  O  O179  1  0.37909846  0.38241161  0.37941257  1
  O  O180  1  0.37491470  0.38377481  0.88238840  1
  O  O181  1  0.38730266  0.87976656  0.37164952  1
  O  O182  1  0.38445586  0.88155601  0.88150939  1
  O  O183  1  0.87722294  0.38460403  0.37984313  1
  O  O184  1  0.87958058  0.37968405  0.87697811  1
  O  O185  1  0.87722860  0.88602201  0.38548446  1
  O  O186  1  0.88378027  0.87580508  0.88064511  1
  O  O187  1  0.24765249  -0.00798821  0.36231007  1
  O  O188  1  0.25464165  0.00223174  0.86508377  1
  O  O189  1  0.25975490  0.50674382  0.37081165  1
  O  O190  1  0.25762398  0.50012700  0.86286180  1
  O  O191  1  0.76215295  -0.00481388  0.37866145  1
  O  O192  1  0.75286066  0.01079528  0.86984238  1
  O  O193  1  0.75984400  0.51124844  0.37035209  1
  O  O194  1  0.76290643  0.50414674  0.87878696  1
  O  O195  1  0.24499166  0.48783352  0.12628185  1
  O  O196  1  0.24552510  0.49189353  0.63049377  1
  O  O197  1  0.24884466  0.98995946  0.13780087  1
  O  O198  1  0.24549723  0.99373556  0.63848747  1
  O  O199  1  0.74626080  0.48383521  0.12505004  1
  O  O200  1  0.73953501  0.50364338  0.62044346  1
  O  O201  1  0.77890646  0.98262807  0.14143598  1
  O  O202  1  0.74126897  0.99460504  0.62610622  1
  O  O203  1  0.01263178  0.36671076  0.24909199  1
  O  O204  1  0.00832778  0.36939724  0.75276183  1
  O  O205  1  0.00740348  0.86400213  0.24857983  1
  O  O206  1  -0.00255636  0.86893512  0.76109225  1
  O  O207  1  0.50671913  0.36472495  0.25504887  1
  O  O208  1  0.49786110  0.36649529  0.74399408  1
  O  O209  1  0.49698717  0.86344969  0.26062905  1
  O  O210  1  0.50520867  0.86595408  0.76134446  1
  O  O211  1  0.48626838  0.13725589  0.25628251  1
  O  O212  1  0.49393964  0.13630204  0.74356333  1
  O  O213  1  0.49339672  0.62544053  0.23772165  1
  O  O214  1  0.51001454  0.63787366  0.75051222  1
  O  O215  1  0.99427469  0.13241228  0.24727991  1
  O  O216  1  0.99006057  0.13527471  0.75724409  1
  O  O217  1  0.99173366  0.63477462  0.24741975  1
  O  O218  1  0.98982632  0.63171052  0.74178693  1
  O  O219  1  0.37924034  0.25820111  0.00778547  1
  O  O220  1  0.37954679  0.26346577  0.49366373  1
  O  O221  1  0.37766842  0.76256357  0.00599653  1
  O  O222  1  0.35616501  0.74759118  0.50482053  1
  O  O223  1  0.86978792  0.25391112  0.00434476  1
  O  O224  1  0.86588530  0.25119774  0.50589164  1
  O  O225  1  0.87773039  0.75171428  -0.01180888  1
  O  O226  1  0.87886352  0.76411898  0.50628798  1
  O  O227  1  0.12095537  0.23501371  0.49504004  1
  O  O228  1  0.11831522  0.24147184  0.98981207  1
  O  O229  1  0.14099021  0.74316291  0.50515874  1
  O  O230  1  0.12168601  0.74088217  1.00339567  1
  O  O231  1  0.63809446  0.25630847  0.49334504  1
  O  O232  1  0.63353691  0.24766238  0.99272167  1
  O  O233  1  0.61821715  0.73654852  0.50030255  1
  O  O234  1  0.61797839  0.74190918  0.99289668  1
  O  O235  1  0.48793608  0.25555841  0.13574230  1
  O  O236  1  0.50500755  0.24218522  0.63046423  1
  O  O237  1  0.48915858  0.74332961  0.13043872  1
  O  O238  1  0.50112084  0.75150211  0.64101374  1
  O  O239  1  0.99625520  0.24525274  0.13687859  1
  O  O240  1  0.99246666  0.25146110  0.63752535  1
  O  O241  1  1.00434671  0.74517023  0.14127036  1
  O  O242  1  0.98983667  0.74639288  0.63267056  1
  O  O243  1  0.00688628  0.25138175  0.36522536  1
  O  O244  1  0.00813623  0.25675168  0.86405874  1
  O  O245  1  -0.00021151  0.75435852  0.35818142  1
  O  O246  1  0.00119124  0.75565549  0.85822270  1
  O  O247  1  0.50831094  0.25648427  0.37048612  1
  O  O248  1  0.50346793  0.25723505  0.86013285  1
  O  O249  1  0.49577993  0.75527675  0.37011022  1
  O  O250  1  0.51025088  0.75381535  0.86627042  1
  O  O251  1  0.23882066  0.12042281  0.50121820  1
  O  O252  1  0.23355409  0.11713599  0.99955705  1
  O  O253  1  0.24770962  0.63293113  0.48825096  1
  O  O254  1  0.23463365  0.62395151  0.99415031  1
  O  O255  1  0.75182643  0.13914170  0.50186493  1
  O  O256  1  0.74764473  0.13303968  0.99249485  1
  O  O257  1  0.74020678  0.62349967  0.49067709  1
  O  O258  1  0.74415729  0.61939996  0.99672114  1
  O  O259  1  0.26263516  0.37923076  0.00644989  1
  O  O260  1  0.25611925  0.37755795  0.51094652  1
  O  O261  1  0.25609896  0.87907931  0.01452986  1
  O  O262  1  0.24679394  0.86466275  0.50753819  1
  O  O263  1  0.75470549  0.36801838  0.00439352  1
  O  O264  1  0.76498556  0.36359932  0.49410631  1
  O  O265  1  0.76860638  0.87454520  -0.00886043  1
  O  O266  1  0.75797967  0.88056957  0.51319982  1
  O  O267  1  0.12544760  0.49105604  0.23764469  1
  O  O268  1  0.12876506  0.48792895  0.74773459  1
  O  O269  1  0.12736253  0.99473689  0.24496260  1
  O  O270  1  0.13203485  1.00970401  0.74244831  1
  O  O271  1  0.62655715  0.48666673  0.24560998  1
  O  O272  1  0.62104299  0.48663413  0.73865405  1
  O  O273  1  0.61889937  1.02955861  0.22713031  1
  O  O274  1  0.62436002  0.99217475  0.73957528  1
  O  O275  1  0.36322362  0.01143773  0.25682909  1
  O  O276  1  0.36699188  0.00623775  0.76148548  1
  O  O277  1  0.37657003  0.50237465  0.26074864  1
  O  O278  1  0.36538463  0.49584172  0.75850748  1
  O  O279  1  0.88278133  0.00991710  0.26882553  1
  O  O280  1  0.87390449  0.01078730  0.75049772  1
  O  O281  1  0.87117554  0.50832868  0.25564091  1
  O  O282  1  0.87712104  0.50753249  0.75647384  1
  O  O283  1  0.12450602  0.36775400  0.36714238  1
  O  O284  1  0.12190826  0.36981114  0.86689761  1
  O  O285  1  0.12324683  0.87991948  0.36171892  1
  O  O286  1  0.11846706  0.87898585  0.87919884  1
  O  O287  1  0.62445934  0.36819014  0.36329041  1
  O  O288  1  0.62173346  0.37796789  0.85715166  1
  O  O289  1  0.60816290  0.87603928  0.37973558  1
  O  O290  1  0.62147191  0.86897470  0.87250625  1
  O  O291  1  0.36341299  0.14189320  0.13804881  1
  O  O292  1  0.38340166  0.12090482  0.64032258  1
  O  O293  1  0.37768849  0.62935823  0.12637493  1
  O  O294  1  0.38311231  0.62303399  0.62094938  1
  O  O295  1  0.88022527  0.13211338  0.13360572  1
  O  O296  1  0.87022516  0.13626454  0.63724471  1
  O  O297  1  0.87549088  0.61819788  0.13604157  1
  O  O298  1  0.88024216  0.63156822  0.62779368  1
  O  O299  1  0.25496603  0.26330758  0.12790277  1
  O  O300  1  0.24653473  0.26589354  0.63080058  1
  O  O301  1  0.26134920  0.75587802  0.13017957  1
  O  O302  1  0.25092747  0.75712448  0.61828424  1
  O  O303  1  0.75777087  0.26015131  0.11220069  1
  O  O304  1  0.75638571  0.24990598  0.61201936  1
  O  O305  1  0.73374552  0.73933052  0.10769672  1
  O  O306  1  0.76235672  0.75676073  0.62821572  1
  O  O307  1  0.23756714  0.25146971  0.37062117  1
  O  O308  1  0.23561194  0.25073794  0.86818396  1
  O  O309  1  0.25387431  0.74400552  0.38349896  1
  O  O310  1  0.24065931  0.75717610  0.85561327  1
  O  O311  1  0.74180980  0.24968117  0.38719210  1
  O  O312  1  0.74973598  0.24529261  0.88564182  1
  O  O313  1  0.74713576  0.73790926  0.36923625  1
  O  O314  1  0.73725610  0.74494682  0.87014617  1
  O  O315  1  0.00522222  0.11854408  0.00418649  1
  O  O316  1  0.00388716  0.11452039  0.50152670  1
  O  O317  1  0.01414333  0.62132545  0.00134899  1
  O  O318  1  -0.00455449  0.63480071  0.51359092  1
  O  O319  1  0.51500690  0.13231884  -0.01296617  1
  O  O320  1  0.49468807  0.11793966  0.51548966  1
  O  O321  1  0.49217981  0.61700210  0.01167710  1
  O  O322  1  0.50880242  0.61395560  0.49595819  1
  O  O323  1  0.49510293  0.38058727  0.49410713  1
  O  O324  1  0.48830018  0.38098072  0.99958038  1
  O  O325  1  0.49626648  0.88262939  0.49711975  1
  O  O326  1  0.49285352  0.87098916  0.98600817  1
  O  O327  1  0.98123490  0.36300749  0.49855525  1
  O  O328  1  0.99322717  0.37302307  0.99145864  1
  O  O329  1  0.99253535  0.88326708  0.50189928  1
  O  O330  1  0.99108960  0.87896067  0.98902243  1
  O  O331  1  0.49627161  0.49365713  0.38202425  1
  O  O332  1  0.49159878  0.50014427  0.88079190  1
  O  O333  1  0.49396258  0.99364710  0.38956266  1
  O  O334  1  0.49292480  0.99171095  0.86635488  1
  O  O335  1  0.98642232  0.49876687  0.36695480  1
  O  O336  1  0.98965344  0.49251124  0.87355489  1
  O  O337  1  0.99134125  0.99552099  0.38774928  1
  O  O338  1  0.99844386  0.99139331  0.88161430  1
  O  O339  1  -0.00215941  0.00513863  0.11853299  1
  O  O340  1  0.00925544  -0.00461410  0.61715752  1
  O  O341  1  0.01012657  0.50253193  0.12212114  1
  O  O342  1  -0.00526724  0.51465586  0.62743572  1
  O  O343  1  0.46507377  -0.00001775  0.11566076  1
  O  O344  1  0.50374333  0.00449297  0.62364662  1
  O  O345  1  0.49932106  0.50694751  0.11803940  1
  O  O346  1  0.50789418  0.49632525  0.61050270  1
  O  O347  1  0.23829823  0.37621139  0.24223285  1
  O  O348  1  0.24340564  0.38295450  0.73844874  1
  O  O349  1  0.24228954  0.87680782  0.24167270  1
  O  O350  1  0.23915114  0.87925090  0.75081217  1
  O  O351  1  0.74311656  0.37041160  0.24238423  1
  O  O352  1  0.74074708  0.37210430  0.74998431  1
  O  O353  1  0.74557341  0.84894186  0.23630286  1
  O  O354  1  0.74554431  0.87698555  0.73855058  1
  O  O355  1  0.25348388  0.11556614  0.24903110  1
  O  O356  1  0.25753044  0.11897604  0.75195471  1
  O  O357  1  0.25810289  0.62368392  0.25484001  1
  O  O358  1  0.23910025  0.61165356  0.75081706  1
  O  O359  1  0.76496985  0.13576539  0.24953678  1
  O  O360  1  0.75614146  0.12866232  0.75726844  1
  O  O361  1  0.75946275  0.62864414  0.25554731  1
  O  O362  1  0.76316623  0.62972753  0.75306274  1
  O  O363  1  0.37290921  0.12527575  0.36726646  1
  O  O364  1  0.37394751  0.11949604  0.86734870  1
  O  O365  1  0.36863953  0.61661468  0.37025587  1
  O  O366  1  0.36853749  0.61533920  0.88111041  1
  O  O367  1  0.87807734  0.11382973  0.37218245  1
  O  O368  1  0.86496298  0.12840782  0.86429735  1
  O  O369  1  0.86929785  0.61978056  0.36950757  1
  O  O370  1  0.87164898  0.61648999  0.86567195  1
  O  O371  1  0.13126811  0.37793177  0.12926625  1
  O  O372  1  0.13190213  0.37590071  0.62904169  1
  O  O373  1  0.13068591  0.88165471  0.13013412  1
  O  O374  1  0.13600260  0.89032224  0.62073883  1
  O  O375  1  0.63165591  0.36872230  0.13612966  1
  O  O376  1  0.62583824  0.38262020  0.63598506  1
  O  O377  1  0.62864368  0.88851495  0.11949185  1
  O  O378  1  0.63248134  0.87949226  0.62895060  1
  O  O379  1  0.11925454  0.25347414  0.25674640  1
  O  O380  1  0.11858618  0.25768776  0.75353083  1
  O  O381  1  0.11806126  0.75859258  0.24569943  1
  O  O382  1  0.11554821  0.75221152  0.74042816  1
  O  O383  1  0.61620368  0.24679270  0.25658781  1
  O  O384  1  0.61871981  0.26511745  0.74743948  1
  O  O385  1  0.60572976  0.73765104  0.25789433  1
  O  O386  1  0.61886782  0.75604491  0.75565893  1
  O  O387  1  0.37949709  0.24654115  0.24609209  1
  O  O388  1  0.38154829  0.24255271  0.75476412  1
  O  O389  1  0.38268099  0.74243358  0.24142365  1
  O  O390  1  0.39286514  0.74588710  0.74951556  1
  O  O391  1  0.88393457  0.24594592  0.24969682  1
  O  O392  1  0.88123420  0.24680960  0.74229245  1
  O  O393  1  0.88544965  0.74296128  0.25090899  1
  O  O394  1  0.88130623  0.74345662  0.74183023  1
  O  O395  1  0.38291649  0.49306442  0.48853932  1
  O  O396  1  0.38221802  0.49296780  0.99253796  1
  O  O397  1  0.38319654  1.00334143  0.50464252  1
  O  O398  1  0.36556950  0.98875426  0.98290997  1
  O  O399  1  0.87216500  0.49100854  0.48997739  1
  O  O400  1  0.87993480  0.49048903  0.99041372  1
  O  O401  1  0.87976605  0.99592148  0.49548847  1
  O  O402  1  0.88608347  1.00468804  0.99644794  1
  O  O403  1  0.11187769  0.00631262  0.00852767  1
  O  O404  1  0.11871035  0.00957337  0.50540426  1
  O  O405  1  0.12470596  0.49556945  0.01012928  1
  O  O406  1  0.12064333  0.50928926  0.49566599  1
  O  O407  1  0.62753475  0.01730000  0.00055776  1
  O  O408  1  0.61169266  -0.00307787  0.51557446  1
  O  O409  1  0.60814853  0.48968337  0.00081443  1
  O  O410  1  0.62014216  0.50222246  0.50391063  1
  O  O411  1  0.36726949  0.36741895  0.11972488  1
  O  O412  1  0.36137328  0.37865284  0.61527213  1
  O  O413  1  0.36708731  0.86586296  0.11948982  1
  O  O414  1  0.35719501  0.87348837  0.64004519  1
  O  O415  1  0.86930332  0.36971183  0.12258243  1
  O  O416  1  0.87568057  0.36270893  0.61898903  1
  O  O417  1  0.88092272  0.86234087  0.10023320  1
  O  O418  1  0.86915485  0.86977310  0.62046587  1
  O  O419  1  0.12106837  0.13009702  0.39029443  1
  O  O420  1  0.12513286  0.13416934  0.88355628  1
  O  O421  1  0.13888905  0.62168312  0.36585947  1
  O  O422  1  0.12465842  0.62230137  0.88897605  1
  O  O423  1  0.61751670  0.13455122  0.37544995  1
  O  O424  1  0.63677935  0.12937671  0.87846925  1
  O  O425  1  0.63379985  0.62304663  0.38323275  1
  O  O426  1  0.63512310  0.63047759  0.87028574  1
