# generated using pymatgen
data_V85Zn86O256
_symmetry_space_group_name_H-M   'P 1'
_cell_length_a   16.94425724
_cell_length_b   16.94502334
_cell_length_c   16.94982778
_cell_angle_alpha   90.10229305
_cell_angle_beta   89.91356283
_cell_angle_gamma   90.00994869
_symmetry_Int_Tables_number   1
_chemical_formula_structural   V85Zn86O256
_chemical_formula_sum   'V85 Zn86 O256'
_cell_volume   4866.63533089
_cell_formula_units_Z   1
loop_
 _symmetry_equiv_pos_site_id
 _symmetry_equiv_pos_as_xyz
  1  'x, y, z'
loop_
 _atom_site_type_symbol
 _atom_site_label
 _atom_site_symmetry_multiplicity
 _atom_site_fract_x
 _atom_site_fract_y
 _atom_site_fract_z
 _atom_site_occupancy
  V  V0  1  0.24824305  0.37420123  0.61677884  1
  V  V1  1  0.37714646  0.62159984  0.74584976  1
  V  V2  1  0.87425401  0.49832476  0.87575185  1
  V  V3  1  0.75374200  -0.00087407  0.75151840  1
  V  V4  1  0.62570827  0.49831116  0.62236798  1
  V  V5  1  0.12625343  0.63750237  -0.00264338  1
  V  V6  1  0.25353298  0.13430173  0.87537975  1
  V  V7  1  0.88003916  0.73778829  0.12674140  1
  V  V8  1  0.63983188  0.63048384  0.49334640  1
  V  V9  1  0.25381634  0.87755691  0.12098236  1
  V  V10  1  0.50652306  0.49278702  0.49107136  1
  V  V11  1  0.37287586  0.50169181  0.87782943  1
  V  V12  1  0.74256989  0.23665623  0.48509450  1
  V  V13  1  0.62379344  0.24929286  0.87797709  1
  V  V14  1  0.87806091  0.00132559  0.87593322  1
  V  V15  1  0.87511254  0.12939431  0.25823207  1
  V  V16  1  0.49653182  0.75039290  0.25018859  1
  V  V17  1  0.87739670  0.87639233  0.00106153  1
  V  V18  1  0.61842951  0.87361330  0.24855259  1
  V  V19  1  0.75849413  0.87081709  0.62435633  1
  V  V20  1  0.24625252  0.49940836  0.25130466  1
  V  V21  1  0.75248502  0.52089610  0.25329158  1
  V  V22  1  0.24909999  0.37175700  0.12187331  1
  V  V23  1  0.37277905  0.75409829  0.11320017  1
  V  V24  1  0.26025743  0.00773173  0.74676458  1
  V  V25  1  0.00500522  0.74410105  0.74975777  1
  V  V26  1  0.12611548  0.25774817  0.36275511  1
  V  V27  1  0.61697893  0.00432541  0.12372100  1
  V  V28  1  0.74929381  0.24933990  0.00375332  1
  V  V29  1  0.75184993  0.74860196  -0.00178968  1
  V  V30  1  -0.00230017  0.12506581  0.13139229  1
  V  V31  1  0.88070250  0.74281156  0.62211206  1
  V  V32  1  0.37841246  0.75460475  0.61786285  1
  V  V33  1  0.25890301  0.01292466  0.25075281  1
  V  V34  1  0.75071649  0.62449672  0.87260897  1
  V  V35  1  0.12207651  0.00889139  0.62609378  1
  V  V36  1  0.11414265  0.62281193  0.50469107  1
  V  V37  1  0.37411938  0.00270093  0.88242134  1
  V  V38  1  0.87910675  0.12641485  0.73801566  1
  V  V39  1  0.62006198  0.49823134  0.12451617  1
  V  V40  1  0.75302335  0.35247040  0.62763344  1
  V  V41  1  0.25490423  0.73942992  0.49559223  1
  V  V42  1  0.55645783  0.04638483  0.45457321  1
  V  V43  1  0.75286843  0.12461099  0.87827590  1
  V  V44  1  0.61722399  0.37447615  0.26826422  1
  V  V45  1  0.12670025  0.13891699  0.00148903  1
  V  V46  1  0.75555950  0.49997655  0.74624986  1
  V  V47  1  0.25302071  0.87720897  0.61538149  1
  V  V48  1  0.74623944  0.37569701  0.13001216  1
  V  V49  1  0.87609063  0.25292851  0.13433681  1
  V  V50  1  0.00104933  0.73884038  0.24553534  1
  V  V51  1  -0.00098834  0.24446372  0.73994028  1
  V  V52  1  0.62706591  0.87118203  0.75134937  1
  V  V53  1  0.12309528  0.37299492  0.74835930  1
  V  V54  1  0.13106413  0.74276647  0.37285833  1
  V  V55  1  0.49936957  0.37547172  0.88001636  1
  V  V56  1  0.50148620  0.74834000  0.74876363  1
  V  V57  1  0.74977159  0.00105468  0.24943125  1
  V  V58  1  0.61494548  0.12494988  0.00385611  1
  V  V59  1  0.36619062  0.62847234  0.25387055  1
  V  V60  1  0.37738274  0.37357413  0.49299393  1
  V  V61  1  0.87469618  0.37535618  0.00320327  1
  V  V62  1  0.37313656  0.50288055  0.37455464  1
  V  V63  1  0.11172433  0.50487635  0.62259400  1
  V  V64  1  0.00279002  0.00142449  0.00032334  1
  V  V65  1  0.49110579  0.86800837  0.38821524  1
  V  V66  1  -0.00190336  0.00286430  0.50235420  1
  V  V67  1  0.13007014  0.12505950  0.48833332  1
  V  V68  1  0.00226246  0.50693704  0.01008142  1
  V  V69  1  0.12982731  0.87261838  0.75038329  1
  V  V70  1  0.62496915  0.37495911  0.75296217  1
  V  V71  1  0.87459673  -0.00280356  0.37922639  1
  V  V72  1  0.49465817  0.24632023  0.26174515  1
  V  V73  1  0.49624329  0.62468725  0.12400051  1
  V  V74  1  0.75061251  0.87612934  0.12202069  1
  V  V75  1  0.49474379  0.87465865  0.88061630  1
  V  V76  1  0.12690695  0.00204795  0.12788499  1
  V  V77  1  0.00819247  0.87072653  0.87540657  1
  V  V78  1  0.61968454  0.00169144  0.62669797  1
  V  V79  1  0.38212730  0.24261255  0.12253419  1
  V  V80  1  0.50280465  0.62104128  0.62209351  1
  V  V81  1  0.24963833  0.50002263  0.74886415  1
  V  V82  1  0.00028409  0.37244476  0.87812596  1
  V  V83  1  0.00137612  0.87178251  0.37638239  1
  V  V84  1  0.36468479  0.00741779  0.38771360  1
  Zn  Zn85  1  0.12986997  0.25515725  0.88129391  1
  Zn  Zn86  1  0.88670499  0.49137716  0.37594907  1
  Zn  Zn87  1  0.48899330  0.12072976  0.63041867  1
  Zn  Zn88  1  0.12794616  0.50812081  0.12521274  1
  Zn  Zn89  1  0.36841488  0.37190041  -0.00042768  1
  Zn  Zn90  1  0.72973695  0.11657667  0.37664589  1
  Zn  Zn91  1  0.62349670  0.62532674  -0.00096698  1
  Zn  Zn92  1  0.49014958  0.23898863  0.75029357  1
  Zn  Zn93  1  0.24821736  0.76384823  -0.01542366  1
  Zn  Zn94  1  0.24616147  0.63655968  0.87087857  1
  Zn  Zn95  1  -0.03264836  0.33307622  0.31815634  1
  Zn  Zn96  1  0.62433236  0.74799706  0.87535211  1
  Zn  Zn97  1  0.64328237  0.74256053  0.37176657  1
  Zn  Zn98  1  0.37515323  0.24071905  0.62656262  1
  Zn  Zn99  1  0.09959221  0.39608813  0.25615209  1
  Zn  Zn100  1  0.49178332  -0.00268196  0.00682813  1
  Zn  Zn101  1  0.25215496  0.24546533  0.49303443  1
  Zn  Zn102  1  0.12859713  0.87661252  0.25193720  1
  Zn  Zn103  1  0.82667922  0.81977261  0.46105719  1
  Zn  Zn104  1  0.49633388  0.50256443  0.00121535  1
  Zn  Zn105  1  0.88238325  0.36604931  0.49208547  1
  Zn  Zn106  1  0.88714780  0.61804269  0.74511992  1
  Zn  Zn107  1  0.19131332  0.18990375  0.18636309  1
  Zn  Zn108  1  0.18739613  0.18866030  0.68566595  1
  Zn  Zn109  1  0.18589450  0.68827133  0.18181623  1
  Zn  Zn110  1  0.19027155  0.68907927  0.68634272  1
  Zn  Zn111  1  0.68100090  0.18977382  0.19385813  1
  Zn  Zn112  1  0.66912057  0.17764830  0.69721259  1
  Zn  Zn113  1  0.68323189  0.69119989  0.18154270  1
  Zn  Zn114  1  0.69246379  0.68575655  0.68335456  1
  Zn  Zn115  1  0.30866171  0.31166872  0.31167724  1
  Zn  Zn116  1  0.31190601  0.31418326  0.81130328  1
  Zn  Zn117  1  0.31125830  0.81759193  0.30885665  1
  Zn  Zn118  1  0.31550481  0.81549448  0.80687282  1
  Zn  Zn119  1  0.79583720  0.31179244  0.31614206  1
  Zn  Zn120  1  0.81408949  0.30932126  0.81094317  1
  Zn  Zn121  1  0.81373979  0.81121461  0.29834386  1
  Zn  Zn122  1  0.81939938  0.81024132  0.81048375  1
  Zn  Zn123  1  0.18598499  0.44128477  0.43381299  1
  Zn  Zn124  1  0.18584658  0.44166519  0.93928648  1
  Zn  Zn125  1  0.18761685  0.93368268  0.43714664  1
  Zn  Zn126  1  0.18827855  0.94439914  0.93767898  1
  Zn  Zn127  1  0.72248398  0.45053248  0.45228965  1
  Zn  Zn128  1  0.68625979  0.43951639  0.94169804  1
  Zn  Zn129  1  0.69341188  0.91377568  0.42650847  1
  Zn  Zn130  1  0.68546591  0.93734708  0.93710233  1
  Zn  Zn131  1  0.31051005  0.06802905  0.06088765  1
  Zn  Zn132  1  0.31443883  0.06540747  0.56192783  1
  Zn  Zn133  1  0.30628468  0.56616698  0.06153735  1
  Zn  Zn134  1  0.31213190  0.55933762  0.56187521  1
  Zn  Zn135  1  0.81046437  0.06355829  0.06501604  1
  Zn  Zn136  1  0.80710142  0.06022078  0.56093037  1
  Zn  Zn137  1  0.81054649  0.55973500  0.06425233  1
  Zn  Zn138  1  0.82083601  0.55892212  0.56076294  1
  Zn  Zn139  1  0.43384626  0.43360212  0.19066716  1
  Zn  Zn140  1  0.42541561  0.40707563  0.69758825  1
  Zn  Zn141  1  0.43187869  0.93787152  0.18911318  1
  Zn  Zn142  1  0.43731566  0.93658211  0.68970984  1
  Zn  Zn143  1  0.94409052  0.44847754  0.20129966  1
  Zn  Zn144  1  0.95647994  0.41254111  0.65060884  1
  Zn  Zn145  1  0.93924549  0.93499208  0.19110823  1
  Zn  Zn146  1  0.94013156  0.93497677  0.68763616  1
  Zn  Zn147  1  0.06269818  0.06200531  0.31207648  1
  Zn  Zn148  1  0.06669841  0.06327602  0.81361497  1
  Zn  Zn149  1  0.03471731  0.56612863  0.32704966  1
  Zn  Zn150  1  0.06536259  0.55871491  0.81839782  1
  Zn  Zn151  1  0.54512983  0.05683719  0.29155759  1
  Zn  Zn152  1  0.56177697  0.05985912  0.81583905  1
  Zn  Zn153  1  0.56290221  0.56137360  0.31235098  1
  Zn  Zn154  1  0.56404649  0.56044024  0.81235398  1
  Zn  Zn155  1  0.43482923  0.19000613  0.43812885  1
  Zn  Zn156  1  0.43390921  0.18898075  0.93900415  1
  Zn  Zn157  1  0.44282324  0.68214200  0.43848569  1
  Zn  Zn158  1  0.43497234  0.68630011  0.93461581  1
  Zn  Zn159  1  0.93702525  0.18936984  0.44547193  1
  Zn  Zn160  1  0.93863781  0.18950051  0.93892078  1
  Zn  Zn161  1  0.94104580  0.67811724  0.43791551  1
  Zn  Zn162  1  0.93854382  0.68671489  0.93568046  1
  Zn  Zn163  1  0.05059615  0.32339466  0.09115973  1
  Zn  Zn164  1  0.06039994  0.30723244  0.55409447  1
  Zn  Zn165  1  0.06632951  0.81513304  0.06581455  1
  Zn  Zn166  1  0.06339153  0.81472357  0.56163537  1
  Zn  Zn167  1  0.55800065  0.31263158  0.06462088  1
  Zn  Zn168  1  0.56266398  0.30625417  0.56229384  1
  Zn  Zn169  1  0.56263483  0.81094132  0.06183041  1
  Zn  Zn170  1  0.56814063  0.81149997  0.56367116  1
  O  O171  1  0.11741441  0.12259017  0.12165657  1
  O  O172  1  0.12766636  0.11266912  0.61735746  1
  O  O173  1  0.13001580  0.62363915  0.10545081  1
  O  O174  1  0.13740526  0.61747516  0.61309590  1
  O  O175  1  0.63199118  0.11515369  0.11716301  1
  O  O176  1  0.63375222  0.10144678  0.61905234  1
  O  O177  1  0.61329024  0.61847218  0.12407003  1
  O  O178  1  0.62285469  0.61745143  0.61628782  1
  O  O179  1  0.37031994  0.38411628  0.38646579  1
  O  O180  1  0.38251749  0.38319122  0.87913319  1
  O  O181  1  0.38854651  0.88409115  0.36840632  1
  O  O182  1  0.38571193  0.88647964  0.86738370  1
  O  O183  1  0.87311072  0.37166048  0.37204405  1
  O  O184  1  0.87999114  0.37831143  0.88244141  1
  O  O185  1  0.88417928  0.88082535  0.37493626  1
  O  O186  1  0.88365004  0.88217563  0.88100382  1
  O  O187  1  0.25742408  -0.00829542  0.36315601  1
  O  O188  1  0.25695798  0.00810788  0.86683720  1
  O  O189  1  0.26365611  0.49987338  0.36746668  1
  O  O190  1  0.25750826  0.49892129  0.86446310  1
  O  O191  1  0.75805435  -0.00401308  0.36909337  1
  O  O192  1  0.75721825  0.00282382  0.87088171  1
  O  O193  1  0.74740870  0.50236095  0.35258760  1
  O  O194  1  0.75323251  0.50586718  0.87040731  1
  O  O195  1  0.25440129  0.49244267  0.13412552  1
  O  O196  1  0.24347387  0.49190996  0.63187817  1
  O  O197  1  0.24999812  0.99813682  0.13458890  1
  O  O198  1  0.24365669  0.99361762  0.63069413  1
  O  O199  1  0.73784164  0.49459984  0.12925542  1
  O  O200  1  0.74081381  0.49591800  0.63334132  1
  O  O201  1  0.74000745  0.99398858  0.12885110  1
  O  O202  1  0.74579850  0.99029444  0.63496827  1
  O  O203  1  0.00170189  0.34770161  0.20593557  1
  O  O204  1  0.00696028  0.36831518  0.75485593  1
  O  O205  1  0.00566877  0.87243834  0.26292197  1
  O  O206  1  0.01012565  0.86909696  0.75763293  1
  O  O207  1  0.51223541  0.37342371  0.25097784  1
  O  O208  1  0.51720846  0.38640224  0.76420431  1
  O  O209  1  0.50384580  0.86934769  0.25258976  1
  O  O210  1  0.50938519  0.86907933  0.75731584  1
  O  O211  1  0.50353626  0.14692487  0.24424398  1
  O  O212  1  0.52934525  0.13231442  0.74046744  1
  O  O213  1  0.49322128  0.63052501  0.24012005  1
  O  O214  1  0.49781875  0.62795015  0.74230785  1
  O  O215  1  0.98933284  0.11915261  0.24177264  1
  O  O216  1  0.99159577  0.13267481  0.76013754  1
  O  O217  1  1.01318137  0.64215988  0.23685265  1
  O  O218  1  1.00625404  0.64088054  0.76173351  1
  O  O219  1  0.37989174  0.25477030  0.01580971  1
  O  O220  1  0.37072845  0.26009314  0.50225540  1
  O  O221  1  0.37299381  0.74719168  0.01078896  1
  O  O222  1  0.37162988  0.74333964  0.50971976  1
  O  O223  1  0.86755030  0.25568742  0.00833050  1
  O  O224  1  0.85378311  0.24922795  0.49734955  1
  O  O225  1  0.86813920  0.75627714  0.00373497  1
  O  O226  1  0.88936678  0.74532663  0.51412437  1
  O  O227  1  0.12674354  0.23615987  0.49646033  1
  O  O228  1  0.11650862  0.24024566  1.00467538  1
  O  O229  1  0.13325000  0.74092222  0.49611246  1
  O  O230  1  0.12346214  0.74143228  0.99928115  1
  O  O231  1  0.64436396  0.24743200  0.50945634  1
  O  O232  1  0.62825725  0.24293928  0.99870487  1
  O  O233  1  0.62231738  0.73363924  0.49866579  1
  O  O234  1  0.63992041  0.74893565  0.99896653  1
  O  O235  1  0.48669628  0.25772962  0.13345897  1
  O  O236  1  0.49738289  0.24492121  0.62887835  1
  O  O237  1  0.49279974  0.74512311  0.12943933  1
  O  O238  1  0.49535400  0.74501362  0.62798643  1
  O  O239  1  0.98721572  0.22847519  0.11036155  1
  O  O240  1  1.00763551  0.24503431  0.64125762  1
  O  O241  1  0.99327254  0.76244728  0.13801822  1
  O  O242  1  0.99055141  0.75896244  0.63583047  1
  O  O243  1  0.01666649  0.25038296  0.38318737  1
  O  O244  1  0.00159741  0.26379615  0.87285613  1
  O  O245  1  0.00649780  0.75567469  0.36401296  1
  O  O246  1  -0.00560820  0.76505544  0.86833032  1
  O  O247  1  0.49402731  0.25110066  0.36198585  1
  O  O248  1  0.50406141  0.25934695  0.87321749  1
  O  O249  1  0.49861914  0.75879469  0.36919057  1
  O  O250  1  0.50063796  0.75598459  0.86752929  1
  O  O251  1  0.23314153  0.12317465  0.50052543  1
  O  O252  1  0.23838764  0.12178999  0.98917614  1
  O  O253  1  0.24699799  0.63655308  0.50195497  1
  O  O254  1  0.23904723  0.63094336  0.99451103  1
  O  O255  1  0.74955572  0.13093425  0.49332083  1
  O  O256  1  0.74378049  0.13073350  0.99680148  1
  O  O257  1  0.73796984  0.62440332  0.50313669  1
  O  O258  1  0.75030055  0.63233330  0.99215115  1
  O  O259  1  0.24886218  0.38149756  0.01657573  1
  O  O260  1  0.25419977  0.37628075  0.50410599  1
  O  O261  1  0.24307409  0.87985679  0.01466565  1
  O  O262  1  0.24285106  0.86277757  0.51181283  1
  O  O263  1  0.75189602  0.37111109  0.01118678  1
  O  O264  1  0.74636966  0.35597989  0.51974017  1
  O  O265  1  0.75522945  0.86775482  0.00208084  1
  O  O266  1  0.75153601  0.88355051  0.52092707  1
  O  O267  1  0.14151494  0.51057413  0.25028500  1
  O  O268  1  0.13287382  0.49246705  0.74681126  1
  O  O269  1  0.13701728  1.00071302  0.24559639  1
  O  O270  1  0.13055526  0.99258109  0.74211837  1
  O  O271  1  0.62861373  0.49324120  0.24024493  1
  O  O272  1  0.63585734  0.49563212  0.74425654  1
  O  O273  1  0.62677828  0.99277661  0.24127929  1
  O  O274  1  0.63275167  0.98900346  0.74314171  1
  O  O275  1  0.36455481  -0.00000738  0.25937413  1
  O  O276  1  0.36376404  -0.00271386  0.75777338  1
  O  O277  1  0.37022932  0.50843874  0.25665311  1
  O  O278  1  0.36789478  0.49835179  0.75664714  1
  O  O279  1  0.87000714  0.00439186  0.25990963  1
  O  O280  1  0.87408986  0.00421001  0.75832703  1
  O  O281  1  0.85098619  0.50419595  0.23568687  1
  O  O282  1  0.86293973  0.50002976  0.75635281  1
  O  O283  1  0.12731710  0.36474421  0.36935204  1
  O  O284  1  0.11794071  0.37614025  0.86780930  1
  O  O285  1  0.12035422  0.86048413  0.37493515  1
  O  O286  1  0.11847079  0.88443874  0.86471118  1
  O  O287  1  0.63121031  0.38414626  0.36372055  1
  O  O288  1  0.61990009  0.37226854  0.87286847  1
  O  O289  1  0.60470368  0.88031130  0.36041611  1
  O  O290  1  0.62110416  0.87307871  0.86321006  1
  O  O291  1  0.36841918  0.14363171  0.12468696  1
  O  O292  1  0.37287285  0.12536061  0.63198614  1
  O  O293  1  0.38001452  0.63247835  0.13051335  1
  O  O294  1  0.38298534  0.62825323  0.62809388  1
  O  O295  1  0.87852820  0.12601034  0.13837173  1
  O  O296  1  0.87225493  0.11425170  0.63974038  1
  O  O297  1  0.87453471  0.63925651  0.11634973  1
  O  O298  1  0.87195018  0.63680494  0.62848877  1
  O  O299  1  0.26047564  0.26562813  0.13405849  1
  O  O300  1  0.24825363  0.26558508  0.62314516  1
  O  O301  1  0.25752216  0.76085109  0.12202149  1
  O  O302  1  0.25988696  0.75683054  0.61848476  1
  O  O303  1  0.75288744  0.25734162  0.12339425  1
  O  O304  1  0.74295309  0.25352865  0.64045635  1
  O  O305  1  0.75782374  0.75603462  0.11746993  1
  O  O306  1  0.76747059  0.75646248  0.63080178  1
  O  O307  1  0.23424546  0.25023569  0.37679682  1
  O  O308  1  0.25008128  0.23981861  0.87093731  1
  O  O309  1  0.24358409  0.75611383  0.38287376  1
  O  O310  1  0.25646479  0.75031702  0.87248884  1
  O  O311  1  0.73621246  0.23825803  0.38060140  1
  O  O312  1  0.74403815  0.24603397  0.88385390  1
  O  O313  1  0.74343074  0.79596070  0.38513399  1
  O  O314  1  0.75268381  0.74250755  0.88083177  1
  O  O315  1  0.00511934  0.11627478  0.00414733  1
  O  O316  1  0.01106310  0.11032932  0.49707611  1
  O  O317  1  0.01065965  0.61821057  -0.00815627  1
  O  O318  1  0.01751271  0.63215988  0.51619753  1
  O  O319  1  0.51226322  0.12139705  -0.00431929  1
  O  O320  1  0.50177494  0.11626328  0.50474253  1
  O  O321  1  0.50037040  0.62611625  0.01174568  1
  O  O322  1  0.50851218  0.61054629  0.50608511  1
  O  O323  1  0.49460592  0.38652340  0.50458949  1
  O  O324  1  0.50002316  0.38018135  0.98864080  1
  O  O325  1  0.50166028  0.86738537  0.48686783  1
  O  O326  1  0.50867646  0.87602855  0.98425872  1
  O  O327  1  0.98349314  0.38395311  0.54135713  1
  O  O328  1  0.99511293  0.38186649  0.99594229  1
  O  O329  1  1.00803863  0.88600592  0.48630040  1
  O  O330  1  0.99923400  0.88124578  0.99348379  1
  O  O331  1  0.49024707  0.50254912  0.38140484  1
  O  O332  1  0.49209095  0.49527819  0.87723446  1
  O  O333  1  0.49186714  0.99377387  0.38349734  1
  O  O334  1  0.49133083  0.99289259  0.87629090  1
  O  O335  1  0.99801799  0.45946147  0.31019967  1
  O  O336  1  0.99327508  0.48800034  0.87996768  1
  O  O337  1  0.99413486  0.99229392  0.37947527  1
  O  O338  1  0.99711384  0.99132502  0.87990368  1
  O  O339  1  0.00366275  0.00796191  0.12129896  1
  O  O340  1  0.00991527  -0.00966143  0.61458275  1
  O  O341  1  0.00029614  0.50088450  0.11210193  1
  O  O342  1  0.01511745  0.51228630  0.64539152  1
  O  O343  1  0.51140342  -0.00567317  0.12468078  1
  O  O344  1  0.51483699  -0.00482494  0.62901561  1
  O  O345  1  0.50264560  0.50755665  0.12546891  1
  O  O346  1  0.51610701  0.50002039  0.61975795  1
  O  O347  1  0.25217062  0.38735838  0.24108168  1
  O  O348  1  0.24036313  0.38380705  0.74364998  1
  O  O349  1  0.24876581  0.88475250  0.23745593  1
  O  O350  1  0.24437653  0.88404290  0.73920257  1
  O  O351  1  0.73415463  0.37569937  0.23885998  1
  O  O352  1  0.73984965  0.38107200  0.75091805  1
  O  O353  1  0.73948338  0.88192029  0.23951708  1
  O  O354  1  0.74529652  0.87753154  0.74652174  1
  O  O355  1  0.24962693  0.11136981  0.24758463  1
  O  O356  1  0.23852897  0.11546748  0.75994736  1
  O  O357  1  0.26197952  0.62111523  0.24235081  1
  O  O358  1  0.25624952  0.61317220  0.74734349  1
  O  O359  1  0.75357881  0.11740146  0.25550502  1
  O  O360  1  0.75603894  0.11792924  0.75967169  1
  O  O361  1  0.74212932  0.62094974  0.24742188  1
  O  O362  1  0.75119667  0.61634061  0.75709346  1
  O  O363  1  0.37681072  0.10650567  0.38217862  1
  O  O364  1  0.36627613  0.11874999  0.87596744  1
  O  O365  1  0.38080147  0.61892033  0.36347924  1
  O  O366  1  0.37501177  0.61616321  0.86379271  1
  O  O367  1  0.87855843  0.11623491  0.36597059  1
  O  O368  1  0.87019913  0.11722638  0.87494661  1
  O  O369  1  0.92937737  0.59538195  0.37004050  1
  O  O370  1  0.86537759  0.61831544  0.87170172  1
  O  O371  1  0.13989916  0.38434634  0.13143282  1
  O  O372  1  0.13021353  0.38417250  0.63108306  1
  O  O373  1  0.13186206  0.88615281  0.12903743  1
  O  O374  1  0.13350106  0.88406723  0.63028349  1
  O  O375  1  0.62911233  0.38376056  0.12535963  1
  O  O376  1  0.63319712  0.38030663  0.63568138  1
  O  O377  1  0.62786947  0.87946533  0.13273623  1
  O  O378  1  0.63355740  0.87668513  0.63565732  1
  O  O379  1  0.12503068  0.24512948  0.26280966  1
  O  O380  1  0.12119333  0.26087081  0.75398262  1
  O  O381  1  0.12055088  0.75190690  0.25669981  1
  O  O382  1  0.12135749  0.76441751  0.74146352  1
  O  O383  1  0.61219668  0.26600386  0.24709553  1
  O  O384  1  0.62729228  0.26248104  0.76369107  1
  O  O385  1  0.61805947  0.75837463  0.25213612  1
  O  O386  1  0.62109921  0.75524258  0.74948493  1
  O  O387  1  0.38755085  0.26223741  0.24145763  1
  O  O388  1  0.38861785  0.29406063  0.73339108  1
  O  O389  1  0.37801177  0.74385990  0.24290217  1
  O  O390  1  0.38238533  0.74279368  0.73587907  1
  O  O391  1  0.86674503  0.24011361  0.24869583  1
  O  O392  1  0.88562671  0.23782805  0.75711909  1
  O  O393  1  0.88952877  0.75111743  0.24134481  1
  O  O394  1  0.88743735  0.74524772  0.74209200  1
  O  O395  1  0.38492342  0.49915065  0.49106266  1
  O  O396  1  0.37364167  0.50243431  0.98702127  1
  O  O397  1  0.35907941  0.99012785  0.48606079  1
  O  O398  1  0.37442264  1.00286782  0.98787150  1
  O  O399  1  0.83733629  0.47990291  0.48520922  1
  O  O400  1  0.88030462  0.49509999  0.99508513  1
  O  O401  1  0.88201252  1.00474260  0.48807375  1
  O  O402  1  0.88174881  0.99601241  0.99675067  1
  O  O403  1  0.11891627  0.00968390  0.00893884  1
  O  O404  1  0.12109718  0.00762261  0.50347211  1
  O  O405  1  0.11573287  0.50804859  0.00184713  1
  O  O406  1  0.12831120  0.51399064  0.50541944  1
  O  O407  1  0.62466582  0.00712117  0.00771239  1
  O  O408  1  0.62251814  -0.01345932  0.50762078  1
  O  O409  1  0.62161158  0.50416048  0.01297180  1
  O  O410  1  0.62556163  0.50425507  0.50515395  1
  O  O411  1  0.36492118  0.37193451  0.12152702  1
  O  O412  1  0.36210322  0.38803477  0.60462807  1
  O  O413  1  0.36822975  0.86596988  0.12653254  1
  O  O414  1  0.36720189  0.86591684  0.62935165  1
  O  O415  1  0.86120917  0.37256497  0.12014207  1
  O  O416  1  0.85013536  0.37128487  0.64303164  1
  O  O417  1  0.86991966  0.87172757  0.11826400  1
  O  O418  1  0.86898805  0.86238540  0.63233666  1
  O  O419  1  0.12265446  0.12938948  0.38521357  1
  O  O420  1  0.13158336  0.12920001  0.88521853  1
  O  O421  1  0.11661756  0.63499668  0.38831734  1
  O  O422  1  0.13002651  0.61800452  0.89058545  1
  O  O423  1  0.61092335  0.09704382  0.38484712  1
  O  O424  1  0.63347950  0.12791388  0.88621358  1
  O  O425  1  0.62275196  0.62691003  0.38769805  1
  O  O426  1  0.63720746  0.62597447  0.87702770  1
