# generated using pymatgen
data_V85Zn86O256
_symmetry_space_group_name_H-M   'P 1'
_cell_length_a   16.96644195
_cell_length_b   16.94444773
_cell_length_c   16.95850149
_cell_angle_alpha   90.03539104
_cell_angle_beta   90.01149468
_cell_angle_gamma   90.04748098
_symmetry_Int_Tables_number   1
_chemical_formula_structural   V85Zn86O256
_chemical_formula_sum   'V85 Zn86 O256'
_cell_volume   4875.34582451
_cell_formula_units_Z   1
loop_
 _symmetry_equiv_pos_site_id
 _symmetry_equiv_pos_as_xyz
  1  'x, y, z'
loop_
 _atom_site_type_symbol
 _atom_site_label
 _atom_site_symmetry_multiplicity
 _atom_site_fract_x
 _atom_site_fract_y
 _atom_site_fract_z
 _atom_site_occupancy
  V  V0  1  0.50291993  0.12421981  0.11993457  1
  V  V1  1  0.74604310  0.37749492  0.13884051  1
  V  V2  1  0.36969010  0.63011615  0.25063051  1
  V  V3  1  0.12228899  0.63028828  -0.00662680  1
  V  V4  1  0.37437935  0.13193798  0.24805518  1
  V  V5  1  0.38045201  0.75371726  0.63251875  1
  V  V6  1  0.51145444  0.00004804  -0.00309404  1
  V  V7  1  0.24949265  0.87525726  0.62559346  1
  V  V8  1  0.23831619  0.37151476  0.11834133  1
  V  V9  1  0.13419943  0.12042985  0.00706087  1
  V  V10  1  0.86501516  0.36841442  0.50338446  1
  V  V11  1  0.00025089  0.75406360  0.25421103  1
  V  V12  1  0.00512752  0.00055323  0.01030149  1
  V  V13  1  0.74631386  0.87476012  0.62734470  1
  V  V14  1  0.13107994  0.49885870  0.63418797  1
  V  V15  1  0.88156625  0.24691196  0.12931939  1
  V  V16  1  0.63072379  0.75741570  0.37072410  1
  V  V17  1  0.42491646  0.30107083  0.07244722  1
  V  V18  1  0.74861417  -0.00301942  0.75130257  1
  V  V19  1  0.70877635  0.57238672  0.31860656  1
  V  V20  1  0.24994527  0.61535088  0.86972069  1
  V  V21  1  0.74635547  0.12603566  0.88181844  1
  V  V22  1  0.74708110  0.75073454  -0.00191316  1
  V  V23  1  0.12289911  0.75499312  0.37681978  1
  V  V24  1  0.62145727  0.75225655  0.86129512  1
  V  V25  1  0.25197239  0.74919041  0.49887445  1
  V  V26  1  0.24559813  0.88037928  0.12386255  1
  V  V27  1  0.12733845  0.87208162  0.75570072  1
  V  V28  1  0.11886744  0.24901483  0.35955930  1
  V  V29  1  0.00342873  0.87110288  0.87782746  1
  V  V30  1  0.50394861  0.63059984  0.62747344  1
  V  V31  1  0.87590834  0.00091877  0.87588107  1
  V  V32  1  0.75171253  0.12855432  0.37790026  1
  V  V33  1  0.63009338  0.25679972  0.37382230  1
  V  V34  1  0.49811067  0.50030589  0.50905152  1
  V  V35  1  0.37737903  0.87368122  -0.00239653  1
  V  V36  1  0.00406388  0.74997812  0.75407709  1
  V  V37  1  0.37175245  0.61455050  0.74817053  1
  V  V38  1  0.37683388  0.87706542  0.49802801  1
  V  V39  1  0.00235946  -0.00056953  0.49989958  1
  V  V40  1  0.50194747  0.25642971  0.25442061  1
  V  V41  1  0.00529615  0.62053397  0.12689915  1
  V  V42  1  0.88173835  0.13193126  0.75260980  1
  V  V43  1  0.24372554  0.49454387  0.24551980  1
  V  V44  1  0.37399086  0.36778794  0.50135712  1
  V  V45  1  0.62331884  -0.00216579  0.13550641  1
  V  V46  1  0.87697885  0.62362666  0.75092813  1
  V  V47  1  0.24732382  0.75208071  -0.00987494  1
  V  V48  1  0.00398723  0.13500611  0.62661557  1
  V  V49  1  0.87430038  0.62509312  0.25303212  1
  V  V50  1  0.50191567  0.75828390  0.24746974  1
  V  V51  1  0.86146501  0.25037285  0.62380356  1
  V  V52  1  0.00428326  0.49385173  0.50199190  1
  V  V53  1  0.88029318  0.87439206  0.49702582  1
  V  V54  1  0.37014893  0.49890972  0.37819949  1
  V  V55  1  0.62952056  0.37158795  0.74135939  1
  V  V56  1  0.37401215  0.75251053  0.12243423  1
  V  V57  1  0.87688208  0.75158768  0.62641278  1
  V  V58  1  0.37187093  0.00741383  0.37415035  1
  V  V59  1  0.75357527  0.49328155  0.74244858  1
  V  V60  1  0.87724013  -0.00101230  0.37430943  1
  V  V61  1  0.50730143  0.87196824  0.86022647  1
  V  V62  1  0.50270550  0.00777888  0.50041243  1
  V  V63  1  0.50406151  0.87841659  0.37170372  1
  V  V64  1  0.12010471  0.36396389  0.75073254  1
  V  V65  1  0.62645183  0.61368929  -0.00174649  1
  V  V66  1  0.62220660  0.00185578  0.62756200  1
  V  V67  1  0.87591475  0.50366101  0.37770601  1
  V  V68  1  0.74574319  0.87550347  0.13199273  1
  V  V69  1  0.61804366  0.25098599  0.87744174  1
  V  V70  1  0.12116643  0.88111847  0.24934117  1
  V  V71  1  0.24604536  0.00662110  0.25110293  1
  V  V72  1  0.38366785  0.12678326  0.73546015  1
  V  V73  1  0.25002156  0.00309682  0.74884273  1
  V  V74  1  0.75131326  0.74415629  0.49647281  1
  V  V75  1  0.37908708  0.00137773  0.87399979  1
  V  V76  1  0.87712277  0.49689528  0.87577728  1
  V  V77  1  0.62820054  0.13369912  0.50397367  1
  V  V78  1  0.00511114  0.49411046  0.00171434  1
  V  V79  1  0.25999847  0.37205622  0.63144082  1
  V  V80  1  0.49725660  0.25321900  0.73508772  1
  V  V81  1  0.49653045  0.61617091  0.11719387  1
  V  V82  1  0.87550588  0.87516123  0.00249876  1
  V  V83  1  0.24500856  0.24645183  0.49478147  1
  V  V84  1  0.00378554  0.62462102  0.62589529  1
  Zn  Zn85  1  0.86896059  0.37046771  -0.00105616  1
  Zn  Zn86  1  0.00181433  0.37058596  0.36082266  1
  Zn  Zn87  1  0.62760498  0.62302587  0.49763336  1
  Zn  Zn88  1  0.74492107  -0.00326541  0.25618421  1
  Zn  Zn89  1  0.74867108  0.24764562  0.00320740  1
  Zn  Zn90  1  0.00999918  0.12675445  0.13421444  1
  Zn  Zn91  1  0.25312487  0.25684782  -0.00535608  1
  Zn  Zn92  1  0.87427148  0.74935279  0.12558485  1
  Zn  Zn93  1  0.87883791  0.12948858  0.25403384  1
  Zn  Zn94  1  0.12745243  0.62318453  0.50072069  1
  Zn  Zn95  1  0.25109114  0.12773860  0.87350402  1
  Zn  Zn96  1  0.12001619  0.23955124  0.87274290  1
  Zn  Zn97  1  0.74988454  0.62408301  0.87361397  1
  Zn  Zn98  1  0.63108279  0.49765610  0.62150686  1
  Zn  Zn99  1  0.12253536  0.00242711  0.62594395  1
  Zn  Zn100  1  0.07613474  0.43652772  0.19243438  1
  Zn  Zn101  1  0.63405632  0.50298745  0.14253543  1
  Zn  Zn102  1  0.41518955  0.43403443  -0.04984778  1
  Zn  Zn103  1  0.24783271  0.62537386  0.37435414  1
  Zn  Zn104  1  0.50326782  0.37848678  0.37335596  1
  Zn  Zn105  1  -0.00363038  0.36477685  0.87157646  1
  Zn  Zn106  1  0.12891897  0.12264135  0.49699244  1
  Zn  Zn107  1  0.19165279  0.18997104  0.18141956  1
  Zn  Zn108  1  0.19308447  0.18893565  0.68231741  1
  Zn  Zn109  1  0.18539431  0.69016275  0.18365186  1
  Zn  Zn110  1  0.18897654  0.68917283  0.68796723  1
  Zn  Zn111  1  0.68909027  0.18663226  0.19158301  1
  Zn  Zn112  1  0.68815404  0.18192348  0.69205464  1
  Zn  Zn113  1  0.68062598  0.69478496  0.18030977  1
  Zn  Zn114  1  0.69161689  0.68257490  0.68586457  1
  Zn  Zn115  1  0.30734351  0.31404355  0.31261712  1
  Zn  Zn116  1  0.30843860  0.30846231  0.81537525  1
  Zn  Zn117  1  0.31106488  0.81805534  0.31323935  1
  Zn  Zn118  1  0.31598260  0.81140673  0.81385217  1
  Zn  Zn119  1  0.81742790  0.31200690  0.31520851  1
  Zn  Zn120  1  0.81156831  0.31079487  0.81255872  1
  Zn  Zn121  1  0.81457562  0.81418515  0.31332768  1
  Zn  Zn122  1  0.81296273  0.81319399  0.81377769  1
  Zn  Zn123  1  0.18529582  0.43153639  0.43655729  1
  Zn  Zn124  1  0.18717503  0.43958250  0.93674746  1
  Zn  Zn125  1  0.18637361  0.93765187  0.43418297  1
  Zn  Zn126  1  0.18741683  0.94197769  0.93527245  1
  Zn  Zn127  1  0.68616228  0.43294333  0.44425097  1
  Zn  Zn128  1  0.69277719  0.43175636  0.93217674  1
  Zn  Zn129  1  0.69022161  0.93724016  0.44059556  1
  Zn  Zn130  1  0.68747658  0.93530744  0.93892417  1
  Zn  Zn131  1  0.31800279  0.06101129  0.06472660  1
  Zn  Zn132  1  0.31238519  0.06313540  0.56192489  1
  Zn  Zn133  1  0.30497073  0.56047876  0.06308752  1
  Zn  Zn134  1  0.31237866  0.56111454  0.56627800  1
  Zn  Zn135  1  0.81257604  0.06170388  0.06383232  1
  Zn  Zn136  1  0.81268222  0.06508840  0.56239966  1
  Zn  Zn137  1  0.81437491  0.56094553  0.06326198  1
  Zn  Zn138  1  0.81694442  0.56218869  0.56252435  1
  Zn  Zn139  1  0.43466388  0.44293217  0.19076256  1
  Zn  Zn140  1  0.43863626  0.43860352  0.79038601  1
  Zn  Zn141  1  0.43432619  0.94035933  0.18627616  1
  Zn  Zn142  1  0.43897932  0.94002630  0.68471994  1
  Zn  Zn143  1  0.91208930  0.43932731  0.18793120  1
  Zn  Zn144  1  0.93965127  0.43403546  0.68511448  1
  Zn  Zn145  1  0.93564634  0.93843958  0.19095839  1
  Zn  Zn146  1  0.93739466  0.94108489  0.68715920  1
  Zn  Zn147  1  0.06264626  0.07086182  0.31599011  1
  Zn  Zn148  1  0.06258064  0.06154048  0.81705838  1
  Zn  Zn149  1  0.06101963  0.56772009  0.31981279  1
  Zn  Zn150  1  0.06486849  0.55858468  0.81498128  1
  Zn  Zn151  1  0.56196552  0.07027826  0.31330276  1
  Zn  Zn152  1  0.56435753  0.06494019  0.80944156  1
  Zn  Zn153  1  0.54438824  0.56956677  0.31553395  1
  Zn  Zn154  1  0.56722976  0.56444031  0.80722272  1
  Zn  Zn155  1  0.43819898  0.18825797  0.43759156  1
  Zn  Zn156  1  0.44329437  0.18157156  0.92922730  1
  Zn  Zn157  1  0.43837530  0.68866510  0.43816012  1
  Zn  Zn158  1  0.44207870  0.59366803  0.93145224  1
  Zn  Zn159  1  0.94259423  0.18731007  0.43815204  1
  Zn  Zn160  1  0.94117052  0.18912985  0.94313047  1
  Zn  Zn161  1  0.94027180  0.68484894  0.43797956  1
  Zn  Zn162  1  0.93540991  0.68667299  0.93830692  1
  Zn  Zn163  1  0.05990414  0.30465903  0.05259329  1
  Zn  Zn164  1  0.06268607  0.31347932  0.56296165  1
  Zn  Zn165  1  0.06303273  0.80994726  0.06748670  1
  Zn  Zn166  1  0.06421180  0.81505137  0.56625341  1
  Zn  Zn167  1  0.59202165  0.32215827  0.05749681  1
  Zn  Zn168  1  0.56176418  0.31436860  0.56309483  1
  Zn  Zn169  1  0.56306675  0.81112346  0.05674905  1
  Zn  Zn170  1  0.56478972  0.81508964  0.55870750  1
  O  O171  1  0.12749533  0.12294724  0.11255716  1
  O  O172  1  0.11762472  0.12258033  0.62365344  1
  O  O173  1  0.11143850  0.62892548  0.11782361  1
  O  O174  1  0.12268906  0.61717216  0.62381138  1
  O  O175  1  0.61162386  0.11636583  0.12992506  1
  O  O176  1  0.63297333  0.11328560  0.61589957  1
  O  O177  1  0.61908167  0.62087465  0.11631579  1
  O  O178  1  0.61645123  0.62382072  0.62172137  1
  O  O179  1  0.37472728  0.38431768  0.38295579  1
  O  O180  1  0.37926247  0.37695652  0.86454762  1
  O  O181  1  0.38260753  0.88605210  0.37890649  1
  O  O182  1  0.38429654  0.88381501  0.87636344  1
  O  O183  1  0.87811090  0.38233423  0.38763540  1
  O  O184  1  0.87510051  0.38525258  0.87600046  1
  O  O185  1  0.87138328  0.88179437  0.38844704  1
  O  O186  1  0.88196014  0.88125632  0.88197080  1
  O  O187  1  0.26087564  -0.00505041  0.36466288  1
  O  O188  1  0.26185919  -0.00176476  0.86235408  1
  O  O189  1  0.25745324  0.50173177  0.37096112  1
  O  O190  1  0.25357567  0.51625351  0.88131128  1
  O  O191  1  0.75786293  0.00533656  0.37715849  1
  O  O192  1  0.75276209  0.00335819  0.86817433  1
  O  O193  1  0.75898648  0.50429613  0.38424488  1
  O  O194  1  0.76017019  0.50191616  0.86411158  1
  O  O195  1  0.25163124  0.48721991  0.13367149  1
  O  O196  1  0.24087955  0.48497881  0.61546390  1
  O  O197  1  0.25683495  0.98688423  0.13353418  1
  O  O198  1  0.25170072  0.99387679  0.63523145  1
  O  O199  1  0.75395693  0.48507635  0.12413513  1
  O  O200  1  0.75187038  0.50565693  0.63805581  1
  O  O201  1  0.74015319  0.99414356  0.12681659  1
  O  O202  1  0.74611541  0.99377114  0.63116176  1
  O  O203  1  -0.00704127  0.39464699  0.25086076  1
  O  O204  1  0.01684018  0.37706813  0.74877797  1
  O  O205  1  0.00907610  0.86686954  0.24646227  1
  O  O206  1  0.00746691  0.87354396  0.75744117  1
  O  O207  1  0.49001238  0.36071931  0.25164028  1
  O  O208  1  0.50958406  0.35845571  0.74597090  1
  O  O209  1  0.49269071  0.86432670  0.25254275  1
  O  O210  1  0.49955945  0.88051156  0.76111187  1
  O  O211  1  0.49321007  0.13564646  0.24339729  1
  O  O212  1  0.48985583  0.13094566  0.74970821  1
  O  O213  1  0.48607294  0.63912968  0.24418989  1
  O  O214  1  0.48863927  0.62469763  0.73424456  1
  O  O215  1  0.98948944  0.10590258  0.24192196  1
  O  O216  1  0.99007475  0.11347032  0.74141544  1
  O  O217  1  0.99389554  0.62982548  0.24506336  1
  O  O218  1  0.99704842  0.62957098  0.74658637  1
  O  O219  1  0.37530618  0.24283164  0.00378591  1
  O  O220  1  0.36597508  0.26078667  0.49197451  1
  O  O221  1  0.36216395  0.75940341  0.00783784  1
  O  O222  1  0.36848194  0.75738448  0.50431520  1
  O  O223  1  0.86874696  0.24858966  0.01263515  1
  O  O224  1  0.87922211  0.26220656  0.50503231  1
  O  O225  1  0.86336733  0.75461450  0.00052158  1
  O  O226  1  0.87174560  0.75649265  0.50391984  1
  O  O227  1  0.13696552  0.24985948  0.49994471  1
  O  O228  1  0.13083413  0.23219891  0.99956725  1
  O  O229  1  0.13224246  0.75371036  0.49366141  1
  O  O230  1  0.13136308  0.73942326  1.00435047  1
  O  O231  1  0.61765391  0.23858432  0.49431315  1
  O  O232  1  0.62535267  0.24630316  0.98174455  1
  O  O233  1  0.63339302  0.74829336  0.48862775  1
  O  O234  1  0.63698533  0.74483234  0.99336789  1
  O  O235  1  0.49882109  0.24600236  0.12768099  1
  O  O236  1  0.50258745  0.24566982  0.63652422  1
  O  O237  1  0.49631919  0.74550896  0.13158241  1
  O  O238  1  0.49174171  0.74507694  0.61488150  1
  O  O239  1  0.98503841  0.24819667  0.12159528  1
  O  O240  1  0.99235158  0.23770350  0.62017848  1
  O  O241  1  0.99720368  0.74279143  0.13846540  1
  O  O242  1  0.99522892  0.74560926  0.63154702  1
  O  O243  1  0.01300641  0.25174197  0.37536448  1
  O  O244  1  0.00663428  0.25218249  0.87895474  1
  O  O245  1  0.00792382  0.74581795  0.36406616  1
  O  O246  1  -0.00569921  0.76379382  0.87187963  1
  O  O247  1  0.50796756  0.25126784  0.36853768  1
  O  O248  1  0.51480753  0.24172305  0.86234967  1
  O  O249  1  0.50747527  0.75613782  0.36821418  1
  O  O250  1  0.51820719  0.75909997  0.87419252  1
  O  O251  1  0.25192722  0.14242540  0.50712777  1
  O  O252  1  0.24269404  0.11807741  0.99972719  1
  O  O253  1  0.25091219  0.63920387  0.50082541  1
  O  O254  1  0.24073172  0.63363409  0.99503892  1
  O  O255  1  0.74031736  0.11959358  0.48957759  1
  O  O256  1  0.75151925  0.12130739  0.98444285  1
  O  O257  1  0.75186062  0.64061810  0.50688529  1
  O  O258  1  0.74501242  0.63346598  0.99904910  1
  O  O259  1  0.25055774  0.37943789  0.01293970  1
  O  O260  1  0.25601570  0.36653073  0.50599152  1
  O  O261  1  0.25159718  0.87162879  0.00509283  1
  O  O262  1  0.25575551  0.86784153  0.50377917  1
  O  O263  1  0.74750259  0.36910936  0.00958187  1
  O  O264  1  0.76650271  0.37822792  0.50426244  1
  O  O265  1  0.75555867  0.86925231  0.00733992  1
  O  O266  1  0.75944985  0.86634640  0.50856834  1
  O  O267  1  0.13983894  0.51068988  0.25570948  1
  O  O268  1  0.12496748  0.49349263  0.73783918  1
  O  O269  1  0.13512012  0.99165940  0.26119622  1
  O  O270  1  0.13588170  0.99433875  0.75006370  1
  O  O271  1  0.63607797  0.51883331  0.26392168  1
  O  O272  1  0.63579611  0.49035580  0.74845860  1
  O  O273  1  0.62134837  1.00036653  0.23935557  1
  O  O274  1  0.63474874  1.00467467  0.73914793  1
  O  O275  1  0.36996170  0.00841946  0.25702755  1
  O  O276  1  0.37242542  0.00779971  0.75372136  1
  O  O277  1  0.36615950  0.50987617  0.25849463  1
  O  O278  1  0.37026517  0.51667293  0.73643954  1
  O  O279  1  0.87042601  -0.00748339  0.26814181  1
  O  O280  1  0.86884904  0.00679894  0.75661747  1
  O  O281  1  0.86740164  0.51688914  0.26223325  1
  O  O282  1  0.87343660  0.50188819  0.75504307  1
  O  O283  1  0.12094179  0.35800814  0.37827310  1
  O  O284  1  0.12981208  0.37937701  0.85612523  1
  O  O285  1  0.12952256  0.86318913  0.36384301  1
  O  O286  1  0.11859617  0.87869255  0.86446396  1
  O  O287  1  0.62262164  0.36145142  0.38186081  1
  O  O288  1  0.63042923  0.35733347  0.86172672  1
  O  O289  1  0.61855511  0.86768192  0.37904305  1
  O  O290  1  0.62092861  0.86350975  0.87743527  1
  O  O291  1  0.39037409  0.11778112  0.13554136  1
  O  O292  1  0.37916343  0.11854386  0.63717361  1
  O  O293  1  0.38017906  0.63385017  0.13250639  1
  O  O294  1  0.37820027  0.63492424  0.63096932  1
  O  O295  1  0.86785970  0.13843346  0.12754398  1
  O  O296  1  0.88105428  0.13071285  0.63179129  1
  O  O297  1  0.88522683  0.62680697  0.13393925  1
  O  O298  1  0.88366118  0.63185628  0.63150050  1
  O  O299  1  0.25375087  0.26699571  0.12032576  1
  O  O300  1  0.24843671  0.26431560  0.61228277  1
  O  O301  1  0.25307819  0.76178208  0.11826591  1
  O  O302  1  0.25693684  0.75719928  0.61692879  1
  O  O303  1  0.74835926  0.25917436  0.12436630  1
  O  O304  1  0.76236677  0.24096680  0.62521428  1
  O  O305  1  0.75048357  0.75853197  0.11574295  1
  O  O306  1  0.75571017  0.75780046  0.62014864  1
  O  O307  1  0.24042394  0.25605233  0.38854285  1
  O  O308  1  0.24126323  0.24409704  0.87875069  1
  O  O309  1  0.24459151  0.75129719  0.38288009  1
  O  O310  1  0.25296324  0.74716943  0.88712525  1
  O  O311  1  0.74304322  0.24216006  0.37228975  1
  O  O312  1  0.74166025  0.24021189  0.87346264  1
  O  O313  1  0.74166892  0.75780996  0.38303587  1
  O  O314  1  0.74298953  0.75036072  0.88174286  1
  O  O315  1  0.01150547  0.11461717  0.00642433  1
  O  O316  1  0.00171070  0.11662483  0.51051398  1
  O  O317  1  0.00519577  0.62226068  0.00676196  1
  O  O318  1  0.00179587  0.61423684  0.50852900  1
  O  O319  1  0.49514022  0.11288935  0.00775630  1
  O  O320  1  0.50799076  0.11372565  0.49540516  1
  O  O321  1  0.51490385  0.63795908  0.01061429  1
  O  O322  1  0.49946256  0.62001001  0.50834002  1
  O  O323  1  0.49024019  0.38232391  0.50006751  1
  O  O324  1  0.48794975  0.35978122  1.01698289  1
  O  O325  1  0.49565543  0.88699911  0.49314759  1
  O  O326  1  0.49500631  0.88137339  0.99085911  1
  O  O327  1  0.99415753  0.38652115  0.50093412  1
  O  O328  1  0.99682455  0.38387721  0.99774959  1
  O  O329  1  0.98816532  0.88176798  0.50958171  1
  O  O330  1  0.99804215  0.87705992  0.99525049  1
  O  O331  1  0.48551454  0.50034089  0.38471223  1
  O  O332  1  0.49129551  0.50795683  0.86835777  1
  O  O333  1  0.49566343  0.99693336  0.37969181  1
  O  O334  1  0.49902502  0.99538057  0.87983682  1
  O  O335  1  0.99008055  0.50284899  0.38567349  1
  O  O336  1  0.99308561  0.49522541  0.88170634  1
  O  O337  1  0.99173356  1.00449907  0.39204638  1
  O  O338  1  0.99559072  0.98774923  0.88376224  1
  O  O339  1  -0.00456804  -0.00485632  0.11164461  1
  O  O340  1  -0.00153315  0.00800123  0.61476835  1
  O  O341  1  -0.00221130  0.50574045  0.11857445  1
  O  O342  1  0.00900781  0.50459994  0.61965557  1
  O  O343  1  0.50599062  0.00347303  0.11777346  1
  O  O344  1  0.51305148  -0.00651503  0.61506092  1
  O  O345  1  0.50840103  0.51546680  0.14116832  1
  O  O346  1  0.50043721  0.51109465  0.61241091  1
  O  O347  1  0.25417831  0.38384441  0.23659328  1
  O  O348  1  0.24320506  0.37001328  0.73499124  1
  O  O349  1  0.24406905  0.88368327  0.24268670  1
  O  O350  1  0.24482832  0.88076339  0.74806707  1
  O  O351  1  0.75861339  0.37557406  0.23803451  1
  O  O352  1  0.74399840  0.38170191  0.75061884  1
  O  O353  1  0.75221727  0.87427178  0.23591963  1
  O  O354  1  0.75764817  0.88777334  0.74234859  1
  O  O355  1  0.25861978  0.11331344  0.23948829  1
  O  O356  1  0.26278887  0.11869285  0.74780439  1
  O  O357  1  0.25944070  0.62294596  0.24699905  1
  O  O358  1  0.26103810  0.63147326  0.75534669  1
  O  O359  1  0.75264667  0.11829087  0.26501302  1
  O  O360  1  0.76071905  0.11309310  0.75689851  1
  O  O361  1  0.75769417  0.63688377  0.24937730  1
  O  O362  1  0.76173928  0.61778627  0.75216882  1
  O  O363  1  0.38039586  0.11354099  0.36747779  1
  O  O364  1  0.37549059  0.11128415  0.86560559  1
  O  O365  1  0.37187290  0.62059772  0.36732236  1
  O  O366  1  0.36775142  0.63541749  0.85434117  1
  O  O367  1  0.86798287  0.11782973  0.37963372  1
  O  O368  1  0.87053756  0.11994411  0.86860484  1
  O  O369  1  0.87520664  0.61700956  0.36950582  1
  O  O370  1  0.87636865  0.61366613  0.86862244  1
  O  O371  1  0.13362189  0.37147260  0.11905092  1
  O  O372  1  0.13116045  0.37982715  0.63366170  1
  O  O373  1  0.13286473  0.87144329  0.13838714  1
  O  O374  1  0.13168656  0.87932124  0.63731362  1
  O  O375  1  0.63764814  0.38479538  0.13483404  1
  O  O376  1  0.62490214  0.37676488  0.63594469  1
  O  O377  1  0.63322387  0.88392176  0.11809579  1
  O  O378  1  0.63954264  0.88341836  0.61729701  1
  O  O379  1  0.13175004  0.24614645  0.26084886  1
  O  O380  1  0.12750389  0.26128706  0.74699848  1
  O  O381  1  0.11933133  0.75617440  0.25671333  1
  O  O382  1  0.11768573  0.76084387  0.74546599  1
  O  O383  1  0.61426488  0.24283506  0.26226834  1
  O  O384  1  0.61696789  0.25210618  0.75129299  1
  O  O385  1  0.61426825  0.74718946  0.25947581  1
  O  O386  1  0.63456624  0.74746558  0.76285765  1
  O  O387  1  0.37848239  0.23686568  0.25963267  1
  O  O388  1  0.38721817  0.23647171  0.75237805  1
  O  O389  1  0.37737834  0.74667343  0.24559056  1
  O  O390  1  0.37254125  0.74914254  0.73488799  1
  O  O391  1  0.87045851  0.24826096  0.23496831  1
  O  O392  1  0.87191975  0.23844942  0.74283117  1
  O  O393  1  0.88326963  0.74233268  0.25279533  1
  O  O394  1  0.88245554  0.74571221  0.74578128  1
  O  O395  1  0.37751799  0.49310515  0.49483894  1
  O  O396  1  0.39456019  0.52399899  1.01029520  1
  O  O397  1  0.38162202  0.99880404  0.49321857  1
  O  O398  1  0.38391273  0.99385975  0.99002315  1
  O  O399  1  0.88229513  0.49253294  0.49683907  1
  O  O400  1  0.88641244  0.50160980  0.99111840  1
  O  O401  1  0.87926748  0.99249406  0.49484867  1
  O  O402  1  0.88237452  0.99503476  0.99436503  1
  O  O403  1  0.11825149  0.00751822  -0.00098590  1
  O  O404  1  0.11759456  -0.00058220  0.50212132  1
  O  O405  1  0.11223510  0.51257596  -0.00528440  1
  O  O406  1  0.11868916  0.50003711  0.50682262  1
  O  O407  1  0.61462220  -0.00305722  0.00709409  1
  O  O408  1  0.61949532  0.00743368  0.50556026  1
  O  O409  1  0.63118119  0.51254596  -0.00665507  1
  O  O410  1  0.61473766  0.50262678  0.50066675  1
  O  O411  1  0.37028766  0.37014094  0.12462328  1
  O  O412  1  0.36041129  0.37883409  0.61716289  1
  O  O413  1  0.36785280  0.87169237  0.11871340  1
  O  O414  1  0.37082040  0.87113616  0.61810820  1
  O  O415  1  0.86285709  0.36273760  0.11961688  1
  O  O416  1  0.88142469  0.36521836  0.61353128  1
  O  O417  1  0.86651457  0.87332400  0.11856188  1
  O  O418  1  0.86593381  0.87120690  0.62002639  1
  O  O419  1  0.12545500  0.14166421  0.38122554  1
  O  O420  1  0.13027793  0.11830450  0.88844020  1
  O  O421  1  0.12910011  0.64003227  0.37982980  1
  O  O422  1  0.13350146  0.62566633  0.88168997  1
  O  O423  1  0.63214974  0.13217269  0.38378371  1
  O  O424  1  0.63548050  0.13761429  0.86332874  1
  O  O425  1  0.63250309  0.63175640  0.37443121  1
  O  O426  1  0.62729118  0.63706610  0.88006781  1
