# generated using pymatgen
data_V85Zn86O256
_symmetry_space_group_name_H-M   'P 1'
_cell_length_a   16.94643569
_cell_length_b   16.94713066
_cell_length_c   16.96321109
_cell_angle_alpha   90.01339442
_cell_angle_beta   89.94936816
_cell_angle_gamma   89.99287548
_symmetry_Int_Tables_number   1
_chemical_formula_structural   V85Zn86O256
_chemical_formula_sum   'V85 Zn86 O256'
_cell_volume   4871.72121118
_cell_formula_units_Z   1
loop_
 _symmetry_equiv_pos_site_id
 _symmetry_equiv_pos_as_xyz
  1  'x, y, z'
loop_
 _atom_site_type_symbol
 _atom_site_label
 _atom_site_symmetry_multiplicity
 _atom_site_fract_x
 _atom_site_fract_y
 _atom_site_fract_z
 _atom_site_occupancy
  V  V0  1  0.24527385  0.00784886  0.25076114  1
  V  V1  1  -0.00339228  0.87657356  0.88976729  1
  V  V2  1  0.75302514  0.38048810  0.62783224  1
  V  V3  1  0.12555995  0.50241515  0.61913755  1
  V  V4  1  -0.00107782  0.50042904  0.00017341  1
  V  V5  1  0.11907849  0.75080723  0.86685842  1
  V  V6  1  0.62402685  0.75916076  0.87086048  1
  V  V7  1  0.87802912  0.49588097  0.37748821  1
  V  V8  1  0.37641028  0.86897947  0.49735215  1
  V  V9  1  0.49991906  0.25047368  0.74834003  1
  V  V10  1  -0.01130012  -0.00858977  0.48819561  1
  V  V11  1  0.50280179  0.76008622  0.74537514  1
  V  V12  1  0.25069754  0.75090814  -0.00157329  1
  V  V13  1  0.74771395  0.50004449  0.24859303  1
  V  V14  1  0.37927078  0.73746485  0.12894607  1
  V  V15  1  0.74825342  0.25068327  0.00123380  1
  V  V16  1  0.75366328  0.75212743  -0.00271453  1
  V  V17  1  0.87339717  0.63378627  0.74864590  1
  V  V18  1  0.24835044  0.88178486  0.62543916  1
  V  V19  1  0.25842286  0.12065250  0.88144576  1
  V  V20  1  0.50157887  0.00027595  0.49528866  1
  V  V21  1  0.62448298  0.24528024  0.37419246  1
  V  V22  1  0.87650431  -0.00355011  0.88824995  1
  V  V23  1  0.11946949  0.11668856  0.00079266  1
  V  V24  1  0.74139917  0.38172313  0.12124623  1
  V  V25  1  0.00323858  0.24838602  0.75088141  1
  V  V26  1  0.75385324  0.62875536  0.38015299  1
  V  V27  1  0.36766019  0.00230102  0.37375144  1
  V  V28  1  0.63024825  0.62700818  0.50344015  1
  V  V29  1  0.87067480  0.75415550  0.61201673  1
  V  V30  1  0.12312791  0.62526743  -0.00288336  1
  V  V31  1  0.87817403  0.62179761  0.24756470  1
  V  V32  1  0.49438208  0.00345568  -0.00363313  1
  V  V33  1  0.12575652  0.49997545  0.12781839  1
  V  V34  1  0.12288682  0.87059793  0.26642340  1
  V  V35  1  0.61738558  0.00187712  0.12769220  1
  V  V36  1  0.01510560  0.11338680  0.62989160  1
  V  V37  1  0.11516838  0.88190926  0.74514890  1
  V  V38  1  0.75700151  0.00601764  0.25905626  1
  V  V39  1  0.62998543  0.38279563  0.75075654  1
  V  V40  1  0.87499249  0.37674317  -0.00026484  1
  V  V41  1  0.61903909  0.12674746  0.00669680  1
  V  V42  1  0.37734939  0.51544642  0.37288915  1
  V  V43  1  0.00310685  0.75275660  0.26314155  1
  V  V44  1  0.23272828  0.74603365  0.49965253  1
  V  V45  1  -0.00010179  0.62451275  0.12480283  1
  V  V46  1  0.37580434  0.11567575  0.75031908  1
  V  V47  1  0.24785981  0.36456344  0.11929428  1
  V  V48  1  0.00188384  0.37514795  0.87443783  1
  V  V49  1  0.37935962  0.12571101  0.25002686  1
  V  V50  1  0.87970435  0.75803065  0.12044451  1
  V  V51  1  0.00649897  0.63247240  0.62412109  1
  V  V52  1  0.13375030  0.25034570  0.88300050  1
  V  V53  1  0.62492943  0.75304531  0.37084649  1
  V  V54  1  0.37370967  0.87863404  -0.00616118  1
  V  V55  1  0.87592457  0.12139428  0.75259609  1
  V  V56  1  0.12782511  0.37559322  0.74905073  1
  V  V57  1  0.74886414  0.87794011  0.12373367  1
  V  V58  1  0.74923088  0.12326056  0.87489671  1
  V  V59  1  0.49554675  0.49490379  0.50601461  1
  V  V60  1  0.50137888  0.62935501  0.62730468  1
  V  V61  1  0.75200961  0.24936307  0.49991481  1
  V  V62  1  0.37511112  0.25331943  0.61800319  1
  V  V63  1  0.24624985  0.24703220  0.48953312  1
  V  V64  1  0.23339498  0.62900405  0.37288047  1
  V  V65  1  0.56412119  0.55910794  0.16707379  1
  V  V66  1  0.13049657  0.11831360  0.48400287  1
  V  V67  1  0.49892713  0.37614540  0.87411797  1
  V  V68  1  0.00900026  0.36703882  0.37830467  1
  V  V69  1  0.24812936  0.87440524  0.12677101  1
  V  V70  1  0.74581646  -0.00977682  0.75112672  1
  V  V71  1  0.49877552  0.50505012  -0.00017811  1
  V  V72  1  0.25462916  0.37592377  0.61977775  1
  V  V73  1  0.50231520  0.12585639  0.62121547  1
  V  V74  1  0.37296722  0.50005491  0.87252307  1
  V  V75  1  0.24901818  0.62661888  0.87012862  1
  V  V76  1  0.13076987  0.36981189  0.25857888  1
  V  V77  1  0.86827439  0.50123066  0.86577213  1
  V  V78  1  0.62404053  0.25020652  0.87504340  1
  V  V79  1  0.62347133  -0.00936003  0.62835067  1
  V  V80  1  0.37652699  0.24360147  0.11764512  1
  V  V81  1  0.48876400  0.37200563  0.37939396  1
  V  V82  1  0.62419217  0.62421408  -0.00230189  1
  V  V83  1  0.87764932  0.24881580  0.62877350  1
  V  V84  1  0.62009355  0.37368303  0.24724582  1
  Zn  Zn85  1  0.11498750  -0.00915156  0.11793438  1
  Zn  Zn86  1  0.63028386  0.12306895  0.49534122  1
  Zn  Zn87  1  0.62062244  0.87274276  0.24681899  1
  Zn  Zn88  1  0.75736940  0.87223086  0.62249152  1
  Zn  Zn89  1  0.78443859  0.11887505  0.37438790  1
  Zn  Zn90  1  0.37603953  0.62696966  0.74795385  1
  Zn  Zn91  1  0.25093228  0.50177200  0.74597138  1
  Zn  Zn92  1  0.87709508  0.24733302  0.12890674  1
  Zn  Zn93  1  0.50052073  0.24495868  0.24620222  1
  Zn  Zn94  1  0.36919859  0.37135585  -0.00418206  1
  Zn  Zn95  1  0.49846412  0.74287965  0.24530276  1
  Zn  Zn96  1  0.26024721  0.50958931  0.24320386  1
  Zn  Zn97  1  0.00773675  0.50354421  0.49728709  1
  Zn  Zn98  1  0.63020659  0.50243297  0.62906145  1
  Zn  Zn99  1  -0.04462291  0.20702071  0.27898639  1
  Zn  Zn100  1  0.24963754  -0.00039026  0.74927860  1
  Zn  Zn101  1  -0.01438262  0.11977780  0.12770868  1
  Zn  Zn102  1  0.37442493  0.74904073  0.62499591  1
  Zn  Zn103  1  0.49654134  0.87095662  0.36778229  1
  Zn  Zn104  1  0.74684954  0.62358169  0.86781935  1
  Zn  Zn105  1  0.88246036  0.37518610  0.50343581  1
  Zn  Zn106  1  0.49726442  0.88098648  0.87162112  1
  Zn  Zn107  1  0.14714367  0.16921028  0.20833659  1
  Zn  Zn108  1  0.19224659  0.19026339  0.69080302  1
  Zn  Zn109  1  0.18861439  0.68952723  0.18901670  1
  Zn  Zn110  1  0.18756492  0.69326148  0.68682884  1
  Zn  Zn111  1  0.69315105  0.18746993  0.18671855  1
  Zn  Zn112  1  0.68733143  0.18727859  0.68845168  1
  Zn  Zn113  1  0.69498824  0.69169604  0.19022741  1
  Zn  Zn114  1  0.69034142  0.68860546  0.68990339  1
  Zn  Zn115  1  0.31048522  0.31466104  0.30657865  1
  Zn  Zn116  1  0.31297344  0.30904401  0.80727186  1
  Zn  Zn117  1  0.31082270  0.80899437  0.31209004  1
  Zn  Zn118  1  0.31359977  0.81190708  0.80865447  1
  Zn  Zn119  1  0.81074288  0.31169546  0.31673519  1
  Zn  Zn120  1  0.81237991  0.31168294  0.81320708  1
  Zn  Zn121  1  0.81679075  0.81288422  0.30426359  1
  Zn  Zn122  1  0.81572134  0.81201821  0.81181361  1
  Zn  Zn123  1  0.19598759  0.44077366  0.44055245  1
  Zn  Zn124  1  0.18824520  0.43843918  0.93883169  1
  Zn  Zn125  1  0.18567964  0.94026157  0.44206570  1
  Zn  Zn126  1  0.19035701  0.93862144  0.93204030  1
  Zn  Zn127  1  0.68533942  0.43598024  0.43839574  1
  Zn  Zn128  1  0.68557778  0.44163799  0.93609630  1
  Zn  Zn129  1  0.76140490  0.90737148  0.43770302  1
  Zn  Zn130  1  0.68757559  0.93781210  0.94153355  1
  Zn  Zn131  1  0.30654109  0.06163134  0.06392325  1
  Zn  Zn132  1  0.31309129  0.06258931  0.56096835  1
  Zn  Zn133  1  0.30906479  0.55991252  0.05693529  1
  Zn  Zn134  1  0.31499947  0.56477002  0.55890072  1
  Zn  Zn135  1  0.80921409  0.06391762  0.06819572  1
  Zn  Zn136  1  0.81339989  0.06517622  0.56680666  1
  Zn  Zn137  1  0.81104095  0.56406500  0.06055627  1
  Zn  Zn138  1  0.81658534  0.56313708  0.56299244  1
  Zn  Zn139  1  0.42928892  0.43091533  0.19219983  1
  Zn  Zn140  1  0.43798781  0.43827414  0.68790492  1
  Zn  Zn141  1  0.43610250  0.93224251  0.18526249  1
  Zn  Zn142  1  0.43772725  0.93558907  0.68197337  1
  Zn  Zn143  1  0.92649468  0.40325865  0.20438065  1
  Zn  Zn144  1  0.94076593  0.44048800  0.68759022  1
  Zn  Zn145  1  0.93982258  0.93976486  0.18689788  1
  Zn  Zn146  1  0.93626332  0.93637302  0.69051917  1
  Zn  Zn147  1  0.05488564  0.05358493  0.31002171  1
  Zn  Zn148  1  0.06382444  0.05932758  0.81903086  1
  Zn  Zn149  1  0.06177440  0.55773011  0.30955261  1
  Zn  Zn150  1  0.05827003  0.56154304  0.80558291  1
  Zn  Zn151  1  0.56117535  0.05971933  0.31050684  1
  Zn  Zn152  1  0.56218971  0.06275264  0.81423568  1
  Zn  Zn153  1  0.56279345  0.56208141  0.32862445  1
  Zn  Zn154  1  0.56291995  0.56679877  0.81314681  1
  Zn  Zn155  1  0.43257856  0.18584288  0.43434370  1
  Zn  Zn156  1  0.43748221  0.18730555  0.93878217  1
  Zn  Zn157  1  0.44320476  0.68900646  0.44128305  1
  Zn  Zn158  1  0.43768007  0.68984766  0.93679899  1
  Zn  Zn159  1  0.94327927  0.18474235  0.44986928  1
  Zn  Zn160  1  0.93862117  0.18919901  0.94113574  1
  Zn  Zn161  1  0.93938047  0.68536731  0.44101255  1
  Zn  Zn162  1  0.93771996  0.68988053  0.93444129  1
  Zn  Zn163  1  0.06189533  0.30698758  0.06593290  1
  Zn  Zn164  1  0.06686997  0.30926701  0.56073287  1
  Zn  Zn165  1  0.06516734  0.81003083  0.06339619  1
  Zn  Zn166  1  0.05747344  0.81484611  0.56578037  1
  Zn  Zn167  1  0.55699317  0.31562951  0.06247891  1
  Zn  Zn168  1  0.56658900  0.31313783  0.56156915  1
  Zn  Zn169  1  0.55976065  0.81312289  0.06038942  1
  Zn  Zn170  1  0.59506870  0.83259324  0.54021984  1
  O  O171  1  0.13966459  0.12579290  0.10140864  1
  O  O172  1  0.11563834  0.12522095  0.63258688  1
  O  O173  1  0.12286633  0.61835264  0.11894202  1
  O  O174  1  0.11337606  0.62034181  0.63530972  1
  O  O175  1  0.62865018  0.11859069  0.11571499  1
  O  O176  1  0.61184563  0.12358596  0.62343909  1
  O  O177  1  0.63018066  0.62460141  0.11664156  1
  O  O178  1  0.62297738  0.62216110  0.61960935  1
  O  O179  1  0.38657301  0.38132261  0.37094393  1
  O  O180  1  0.37786849  0.38159887  0.87431380  1
  O  O181  1  0.37433965  0.88025419  0.38146389  1
  O  O182  1  0.37262074  0.87051676  0.88989465  1
  O  O183  1  0.88682668  0.38177886  0.37938343  1
  O  O184  1  0.87807770  0.38325324  0.88132055  1
  O  O185  1  0.84949430  0.87435278  0.38588820  1
  O  O186  1  0.88941011  0.87977672  0.87079729  1
  O  O187  1  0.26067911  -0.00782422  0.36702301  1
  O  O188  1  0.25149738  0.01629795  0.86973536  1
  O  O189  1  0.25974168  0.51636424  0.38039637  1
  O  O190  1  0.25605281  0.50741955  0.87287175  1
  O  O191  1  0.74141493  0.00697831  0.36273687  1
  O  O192  1  0.75220547  0.00334036  0.86839204  1
  O  O193  1  0.75459118  0.50505775  0.36872022  1
  O  O194  1  0.76421096  0.50427285  0.88056387  1
  O  O195  1  0.24246427  0.49326871  0.12353162  1
  O  O196  1  0.24765023  0.49419119  0.62508951  1
  O  O197  1  0.24569942  0.98993628  0.13377003  1
  O  O198  1  0.25303634  0.98549437  0.62433630  1
  O  O199  1  0.75271027  0.48914575  0.12980355  1
  O  O200  1  0.75131809  0.48414321  0.61965981  1
  O  O201  1  0.73791281  0.99198310  0.12759992  1
  O  O202  1  0.74039475  1.00328197  0.63400496  1
  O  O203  1  0.02332456  0.38471217  0.26118336  1
  O  O204  1  0.00796509  0.37044771  0.75599260  1
  O  O205  1  0.01482287  0.86723646  0.24696037  1
  O  O206  1  0.01280766  0.87681422  0.75662450  1
  O  O207  1  0.50881125  0.37408986  0.25814256  1
  O  O208  1  0.50728393  0.36952437  0.75492604  1
  O  O209  1  0.50297273  0.86879526  0.25089057  1
  O  O210  1  0.49164393  0.86375636  0.75399143  1
  O  O211  1  0.48314198  0.12371159  0.24848026  1
  O  O212  1  0.49465980  0.13113593  0.74381000  1
  O  O213  1  0.51294707  0.61619248  0.23742429  1
  O  O214  1  0.50167584  0.63082047  0.73882639  1
  O  O215  1  1.03743006  0.13815445  0.23935914  1
  O  O216  1  0.99827652  0.12654137  0.74571434  1
  O  O217  1  0.99681962  0.63016963  0.24306964  1
  O  O218  1  0.98760908  0.62088868  0.73567232  1
  O  O219  1  0.37606747  0.25201269  0.01315168  1
  O  O220  1  0.36649004  0.24047059  0.51321354  1
  O  O221  1  0.36880191  0.75666821  0.00614363  1
  O  O222  1  0.37345249  0.76152460  0.50028733  1
  O  O223  1  0.86451582  0.26299946  -0.00776882  1
  O  O224  1  0.86966989  0.25323353  0.51253923  1
  O  O225  1  0.86551229  0.74256193  0.00792247  1
  O  O226  1  0.87300251  0.74494750  0.51362812  1
  O  O227  1  0.13492390  0.23282762  0.50687952  1
  O  O228  1  0.12560647  0.24447227  0.98598352  1
  O  O229  1  0.13461249  0.75249810  0.50254897  1
  O  O230  1  0.13113980  0.74404273  0.98883032  1
  O  O231  1  0.63408982  0.24761366  0.49275134  1
  O  O232  1  0.62668362  0.24508607  0.99748869  1
  O  O233  1  0.61837432  0.73195515  0.48916307  1
  O  O234  1  0.62869002  0.74014737  0.99470764  1
  O  O235  1  0.48046205  0.25786155  0.12856790  1
  O  O236  1  0.49455216  0.24534251  0.62613226  1
  O  O237  1  0.48355715  0.74985027  0.12176922  1
  O  O238  1  0.50316506  0.74213884  0.63183706  1
  O  O239  1  0.99332422  0.23831323  0.11640754  1
  O  O240  1  0.99754248  0.24138300  0.63247448  1
  O  O241  1  0.99386145  0.74398024  0.12787797  1
  O  O242  1  0.99087925  0.73854615  0.62402531  1
  O  O243  1  0.00629054  0.26578018  0.38026518  1
  O  O244  1  0.00850270  0.25656077  0.86954472  1
  O  O245  1  -0.00405955  0.74306902  0.36198586  1
  O  O246  1  0.00725350  0.76244136  0.87709756  1
  O  O247  1  0.50358849  0.25760005  0.37349533  1
  O  O248  1  0.50415294  0.25704663  0.87051735  1
  O  O249  1  0.50960118  0.74544063  0.36755607  1
  O  O250  1  0.50741012  0.75055125  0.86585415  1
  O  O251  1  0.23780037  0.12915097  0.50536514  1
  O  O252  1  0.24764196  0.12468937  0.98427523  1
  O  O253  1  0.25252115  0.64001698  0.49393498  1
  O  O254  1  0.24205520  0.62793827  0.98636967  1
  O  O255  1  0.75150615  0.13643035  0.49542771  1
  O  O256  1  0.73734812  0.13041662  0.99331322  1
  O  O257  1  0.74356497  0.61772104  0.49150954  1
  O  O258  1  0.74199772  0.63529024  0.99735386  1
  O  O259  1  0.24992069  0.37788261  0.01470738  1
  O  O260  1  0.24487881  0.36509191  0.51343007  1
  O  O261  1  0.25388832  0.87175004  0.00518758  1
  O  O262  1  0.25444764  0.86484136  0.50433384  1
  O  O263  1  0.75204391  0.37415161  0.00514606  1
  O  O264  1  0.75080567  0.36381937  0.50751335  1
  O  O265  1  0.74517748  0.86132056  0.00933541  1
  O  O266  1  0.70268385  0.87905168  0.52438356  1
  O  O267  1  0.13092400  0.49739030  0.23626440  1
  O  O268  1  0.12798646  0.49205015  0.74111799  1
  O  O269  1  0.13140327  0.98392934  0.24959808  1
  O  O270  1  0.12835933  0.98479872  0.75598450  1
  O  O271  1  0.62307524  0.49781162  0.24259980  1
  O  O272  1  0.62224011  0.48683422  0.75173633  1
  O  O273  1  0.62896694  0.99745418  0.24084010  1
  O  O274  1  0.63572837  1.01157239  0.74228715  1
  O  O275  1  0.36677871  0.00489405  0.25351281  1
  O  O276  1  0.37698204  0.01274569  0.74550854  1
  O  O277  1  0.37497055  0.49941378  0.26481732  1
  O  O278  1  0.37433172  0.50352703  0.76173661  1
  O  O279  1  0.85458785  -0.00860993  0.24636885  1
  O  O280  1  0.86584887  0.00547853  0.75738489  1
  O  O281  1  0.86999560  0.49794291  0.26088214  1
  O  O282  1  0.88092828  0.50887114  0.75895774  1
  O  O283  1  0.12516887  0.38915641  0.36517929  1
  O  O284  1  0.12472569  0.36853939  0.87035270  1
  O  O285  1  0.13152923  0.87172146  0.36427309  1
  O  O286  1  0.11646946  0.87034115  0.86863445  1
  O  O287  1  0.61740286  0.36624582  0.36748285  1
  O  O288  1  0.62159609  0.37010794  0.86894257  1
  O  O289  1  0.62698835  0.85573873  0.37407493  1
  O  O290  1  0.62153279  0.86234393  0.88253797  1
  O  O291  1  0.36363507  0.13910922  0.13058102  1
  O  O292  1  0.38445693  0.12983382  0.63088039  1
  O  O293  1  0.36640758  0.63921393  0.11713211  1
  O  O294  1  0.38608498  0.62735407  0.62593329  1
  O  O295  1  0.87009130  0.13394653  0.12434389  1
  O  O296  1  0.88429843  0.13212440  0.63521736  1
  O  O297  1  0.87968391  0.63103043  0.12993175  1
  O  O298  1  0.88157505  0.63121216  0.63244895  1
  O  O299  1  0.25692490  0.26410181  0.12813155  1
  O  O300  1  0.25805606  0.25684017  0.62059907  1
  O  O301  1  0.25589454  0.75491504  0.11747182  1
  O  O302  1  0.25146258  0.75666414  0.61265901  1
  O  O303  1  0.75062090  0.26526308  0.11868608  1
  O  O304  1  0.75572816  0.25553951  0.61927130  1
  O  O305  1  0.75845776  0.75664413  0.11814316  1
  O  O306  1  0.76664671  0.74963100  0.62965519  1
  O  O307  1  0.25875035  0.25849956  0.39145017  1
  O  O308  1  0.24326971  0.23739796  0.86650740  1
  O  O309  1  0.25202475  0.73828688  0.38639236  1
  O  O310  1  0.24331926  0.74338018  0.87862132  1
  O  O311  1  0.74146854  0.25099577  0.38333135  1
  O  O312  1  0.74274582  0.24528303  0.88138327  1
  O  O313  1  0.74355482  0.73175686  0.36431597  1
  O  O314  1  0.74473825  0.74955668  0.88135816  1
  O  O315  1  0.01789573  0.12386921  -0.00880778  1
  O  O316  1  0.01479881  0.11989677  0.51366051  1
  O  O317  1  0.00513254  0.62098500  0.00370926  1
  O  O318  1  -0.00356967  0.62076470  0.51891305  1
  O  O319  1  0.50955501  0.11968040  -0.00224160  1
  O  O320  1  0.49586614  0.11884028  0.50702522  1
  O  O321  1  0.50576121  0.61399868  -0.00338065  1
  O  O322  1  0.50727919  0.61764430  0.51185204  1
  O  O323  1  0.50690045  0.38309463  0.49203654  1
  O  O324  1  0.49903524  0.38823020  0.99139682  1
  O  O325  1  0.49376440  0.88325360  0.49510765  1
  O  O326  1  0.49017850  0.88364715  0.99805310  1
  O  O327  1  1.00437974  0.38054860  0.49382720  1
  O  O328  1  0.99202710  0.37923313  0.99407007  1
  O  O329  1  1.00382739  0.89418156  0.50848210  1
  O  O330  1  1.00462522  0.87374673  0.98829956  1
  O  O331  1  0.49377133  0.49319708  0.38549323  1
  O  O332  1  0.49244784  0.49733366  0.87984637  1
  O  O333  1  0.48962271  0.99824876  0.38111931  1
  O  O334  1  0.50464664  0.99871401  0.89008116  1
  O  O335  1  0.99295956  0.49565326  0.37772641  1
  O  O336  1  0.99382635  0.49368377  0.88004824  1
  O  O337  1  0.99836710  0.99881955  0.38850523  1
  O  O338  1  0.99126506  0.98709533  0.87427304  1
  O  O339  1  0.00422228  0.00667807  0.12742532  1
  O  O340  1  -0.00255786  0.01292217  0.62730966  1
  O  O341  1  0.00950415  0.50504677  0.11786793  1
  O  O342  1  0.00922861  0.50893150  0.62320558  1
  O  O343  1  0.51113490  -0.00514418  0.11497378  1
  O  O344  1  0.50043361  0.00979157  0.61794507  1
  O  O345  1  0.49493921  0.49528167  0.11629330  1
  O  O346  1  0.50388246  0.50566676  0.62032073  1
  O  O347  1  0.24444975  0.38573605  0.23962978  1
  O  O348  1  0.24449670  0.37539975  0.73816846  1
  O  O349  1  0.24107298  0.87687654  0.24379095  1
  O  O350  1  0.24275492  0.87635934  0.74245516  1
  O  O351  1  0.73525365  0.38158502  0.24501175  1
  O  O352  1  0.74150609  0.36745842  0.74135075  1
  O  O353  1  0.74185217  0.87970758  0.23456174  1
  O  O354  1  0.75285759  0.88691471  0.74712749  1
  O  O355  1  0.24779441  0.11057833  0.24555916  1
  O  O356  1  0.25973091  0.12232066  0.75598137  1
  O  O357  1  0.24622733  0.62700029  0.26759955  1
  O  O358  1  0.25034484  0.62541613  0.75985319  1
  O  O359  1  0.74659809  0.11032772  0.25180012  1
  O  O360  1  0.75662421  0.12093860  0.75763444  1
  O  O361  1  0.75901388  0.61637114  0.25454046  1
  O  O362  1  0.76713784  0.62265068  0.74964224  1
  O  O363  1  0.37266464  0.11495367  0.36451737  1
  O  O364  1  0.36531691  0.13305492  0.86652590  1
  O  O365  1  0.37456097  0.61783520  0.38007076  1
  O  O366  1  0.36528387  0.61859757  0.87468904  1
  O  O367  1  0.88895492  0.15432868  0.35846121  1
  O  O368  1  0.87108983  0.11748575  0.87179117  1
  O  O369  1  0.87044601  0.61733062  0.36961364  1
  O  O370  1  0.87799745  0.61989064  0.86241797  1
  O  O371  1  0.13311445  0.37907027  0.13090161  1
  O  O372  1  0.13170912  0.38173279  0.63083813  1
  O  O373  1  0.13835779  0.87189105  0.12615359  1
  O  O374  1  0.13066387  0.86748791  0.64014498  1
  O  O375  1  0.62912158  0.37318952  0.13309954  1
  O  O376  1  0.63421182  0.37535023  0.63409030  1
  O  O377  1  0.63157287  0.88253016  0.12094726  1
  O  O378  1  0.60477309  0.89300163  0.64087595  1
  O  O379  1  0.14142223  0.27190877  0.25654863  1
  O  O380  1  0.12146533  0.25659010  0.75881185  1
  O  O381  1  0.11757904  0.76162927  0.24589554  1
  O  O382  1  0.12974700  0.76189540  0.76206260  1
  O  O383  1  0.62278934  0.25714409  0.25494292  1
  O  O384  1  0.61839145  0.25791006  0.75485111  1
  O  O385  1  0.62190960  0.74745034  0.25640391  1
  O  O386  1  0.61736821  0.74551517  0.75949365  1
  O  O387  1  0.37300128  0.24187905  0.24077095  1
  O  O388  1  0.38178082  0.24127262  0.73788630  1
  O  O389  1  0.37410655  0.75061645  0.23313335  1
  O  O390  1  0.38525596  0.74595313  0.74661989  1
  O  O391  1  0.88754862  0.29174262  0.23809764  1
  O  O392  1  0.88315693  0.24266218  0.74923982  1
  O  O393  1  0.88290152  0.74311527  0.23830102  1
  O  O394  1  0.87734536  0.73667801  0.74694925  1
  O  O395  1  0.38886997  0.50174390  0.49339991  1
  O  O396  1  0.38087298  0.49817446  0.98800213  1
  O  O397  1  0.37982493  0.99216181  0.49246263  1
  O  O398  1  0.38332010  0.99339643  1.00871356  1
  O  O399  1  0.87530205  0.49738193  0.48713450  1
  O  O400  1  0.88046755  0.49647115  0.99092367  1
  O  O401  1  0.88922992  1.00948890  0.50414494  1
  O  O402  1  0.86048080  0.99956486  0.98610760  1
  O  O403  1  0.13035058  0.01271977  -0.00341291  1
  O  O404  1  0.11913089  0.01300374  0.50087647  1
  O  O405  1  0.11982404  0.50511052  0.00712833  1
  O  O406  1  0.12976237  0.50018886  0.51594890  1
  O  O407  1  0.61925690  0.00906811  0.00672151  1
  O  O408  1  0.60692082  0.00834479  0.50966508  1
  O  O409  1  0.61733061  0.51425335  -0.00407591  1
  O  O410  1  0.61507509  0.50919538  0.50028986  1
  O  O411  1  0.36254863  0.36648952  0.12350041  1
  O  O412  1  0.36805605  0.36573260  0.62994784  1
  O  O413  1  0.36286811  0.86725999  0.11563101  1
  O  O414  1  0.36682930  0.87206488  0.61504785  1
  O  O415  1  0.86599243  0.38174462  0.10729978  1
  O  O416  1  0.87036305  0.36758604  0.62813101  1
  O  O417  1  0.86821869  0.86348503  0.12748841  1
  O  O418  1  0.87761313  0.85832930  0.62977522  1
  O  O419  1  0.12571511  0.12071875  0.38626537  1
  O  O420  1  0.13612809  0.13038887  0.88058785  1
  O  O421  1  0.13528020  0.61882213  0.37797492  1
  O  O422  1  0.12718409  0.63187972  0.87420777  1
  O  O423  1  0.61626418  0.14048167  0.37404413  1
  O  O424  1  0.62888771  0.13271162  0.88257001  1
  O  O425  1  0.63542973  0.62825255  0.38355045  1
  O  O426  1  0.62782664  0.63426614  0.88185872  1
