# generated using pymatgen
data_V85Zn86O256
_symmetry_space_group_name_H-M   'P 1'
_cell_length_a   16.93898026
_cell_length_b   16.93850088
_cell_length_c   16.95075223
_cell_angle_alpha   89.99470006
_cell_angle_beta   90.00816946
_cell_angle_gamma   89.85477307
_symmetry_Int_Tables_number   1
_chemical_formula_structural   V85Zn86O256
_chemical_formula_sum   'V85 Zn86 O256'
_cell_volume   4863.50993611
_cell_formula_units_Z   1
loop_
 _symmetry_equiv_pos_site_id
 _symmetry_equiv_pos_as_xyz
  1  'x, y, z'
loop_
 _atom_site_type_symbol
 _atom_site_label
 _atom_site_symmetry_multiplicity
 _atom_site_fract_x
 _atom_site_fract_y
 _atom_site_fract_z
 _atom_site_occupancy
  V  V0  1  0.12873202  0.62343641  0.00770563  1
  V  V1  1  0.25239447  -0.00481565  0.75199816  1
  V  V2  1  0.50105892  0.12521121  0.12272833  1
  V  V3  1  0.37085939  0.37028594  0.51925329  1
  V  V4  1  -0.00059789  0.75295076  0.75285229  1
  V  V5  1  0.24262573  0.37736699  0.12293612  1
  V  V6  1  0.25458055  0.86427276  0.12514265  1
  V  V7  1  0.87068262  0.49830158  0.88402270  1
  V  V8  1  0.37368846  0.11625445  0.25718602  1
  V  V9  1  0.12229338  0.76237939  0.37351349  1
  V  V10  1  0.25033455  0.62441093  0.37586817  1
  V  V11  1  0.11519318  0.12329094  0.00675410  1
  V  V12  1  0.49267115  0.87721269  0.87205133  1
  V  V13  1  0.25641240  0.11850077  0.87653263  1
  V  V14  1  0.75381058  0.87753573  0.62620296  1
  V  V15  1  0.37733567  0.86336140  0.51040396  1
  V  V16  1  0.00341184  0.49938110  0.00691243  1
  V  V17  1  -0.00384592  -0.00756550  0.00076500  1
  V  V18  1  0.24994297  0.24490064  0.51551720  1
  V  V19  1  0.12620806  0.49826547  0.62725383  1
  V  V20  1  0.62527840  -0.00157509  0.12052348  1
  V  V21  1  0.62000365  0.62738791  0.00305609  1
  V  V22  1  0.86893593  0.62445688  0.75949041  1
  V  V23  1  0.62336060  0.87562981  0.74842704  1
  V  V24  1  -0.03109787  -0.01001209  0.48033226  1
  V  V25  1  0.87742894  0.49749131  0.37501380  1
  V  V26  1  0.25039451  0.49708647  0.74742598  1
  V  V27  1  0.75114467  0.74770573  -0.00722495  1
  V  V28  1  0.49792372  0.49407998  0.49759934  1
  V  V29  1  0.75454914  0.87405490  0.11733798  1
  V  V30  1  0.48851005  0.00033507  -0.00549614  1
  V  V31  1  0.49771622  0.74692587  0.73582224  1
  V  V32  1  0.75346813  0.00163096  0.24886436  1
  V  V33  1  0.12558391  0.75217693  0.88107494  1
  V  V34  1  0.74998018  0.62169766  0.38071926  1
  V  V35  1  0.61840492  0.50516132  0.12648969  1
  V  V36  1  0.86785086  0.74879305  0.62819868  1
  V  V37  1  -0.00352692  0.37503802  0.87830605  1
  V  V38  1  0.12322794  0.37561617  0.25232448  1
  V  V39  1  0.37461557  0.50108675  0.87446512  1
  V  V40  1  0.74928636  0.50229463  0.75492957  1
  V  V41  1  0.25243764  0.63054342  0.87828836  1
  V  V42  1  0.74841473  0.00936845  0.76053449  1
  V  V43  1  0.37477433  0.24932486  0.12557537  1
  V  V44  1  0.87937194  0.36741422  0.50375886  1
  V  V45  1  0.11804211  0.00123859  0.61644500  1
  V  V46  1  0.75653955  0.12328373  0.37408551  1
  V  V47  1  0.24410684  0.50055923  0.24675554  1
  V  V48  1  0.12703894  0.62710475  0.50231951  1
  V  V49  1  0.12609416  -0.00365524  0.13516990  1
  V  V50  1  0.62455645  0.12664887  0.49754339  1
  V  V51  1  0.87871268  0.74965520  0.11822545  1
  V  V52  1  0.48928600  0.87948714  0.36868025  1
  V  V53  1  0.38109851  0.62776102  0.24461227  1
  V  V54  1  0.62346193  0.00423257  0.62225069  1
  V  V55  1  0.80074930  0.79765460  0.45513624  1
  V  V56  1  0.48850909  0.00393178  0.49454108  1
  V  V57  1  0.75187019  0.25106920  0.50097104  1
  V  V58  1  -0.00194027  0.62529487  0.62812329  1
  V  V59  1  0.87824489  0.13185487  0.75044745  1
  V  V60  1  0.62201324  0.25342638  0.37456556  1
  V  V61  1  0.62622430  0.37606144  0.75096166  1
  V  V62  1  0.87763249  0.62841643  0.24826148  1
  V  V63  1  0.62489766  0.37598656  0.25185599  1
  V  V64  1  0.37404284  0.37571582  0.00136057  1
  V  V65  1  0.88315994  0.12686460  0.24761441  1
  V  V66  1  0.37565139  0.48641919  0.37333988  1
  V  V67  1  0.62930558  0.24413907  0.87600590  1
  V  V68  1  0.12133343  0.24684287  0.87410708  1
  V  V69  1  0.62681246  0.74352347  0.87061008  1
  V  V70  1  0.50155466  0.37650467  0.87877255  1
  V  V71  1  0.75506801  0.37270535  0.62592280  1
  V  V72  1  0.12774444  0.37253156  0.74640243  1
  V  V73  1  0.62012987  0.75244198  0.37567992  1
  V  V74  1  0.49866617  0.25469888  0.25148896  1
  V  V75  1  0.88472787  0.25175024  0.12108345  1
  V  V76  1  0.24864087  0.24705859  0.00045273  1
  V  V77  1  0.37739190  0.62813205  0.73611890  1
  V  V78  1  0.75529711  0.24526665  -0.00160249  1
  V  V79  1  0.12918539  0.23944934  0.37800208  1
  V  V80  1  0.75415467  0.37534162  0.12019342  1
  V  V81  1  0.61817173  0.62611228  0.50026961  1
  V  V82  1  0.49185133  0.25142623  0.74404446  1
  V  V83  1  0.00069038  0.49844672  0.50225407  1
  V  V84  1  0.62094037  0.50368891  0.62459246  1
  Zn  Zn85  1  0.49419419  0.13393160  0.61892734  1
  Zn  Zn86  1  0.38447072  0.73949130  0.10249931  1
  Zn  Zn87  1  0.12310890  0.87686632  0.75198508  1
  Zn  Zn88  1  0.75108287  0.49978168  0.24712193  1
  Zn  Zn89  1  -0.00866646  0.87324728  0.88051600  1
  Zn  Zn90  1  0.36412593  0.86837693  -0.00897064  1
  Zn  Zn91  1  0.37248886  0.12502935  0.74585887  1
  Zn  Zn92  1  0.86894996  0.00008192  0.88007554  1
  Zn  Zn93  1  0.24983742  -0.00962655  0.25777230  1
  Zn  Zn94  1  0.49693975  0.50620754  0.00512208  1
  Zn  Zn95  1  0.00280969  0.37124896  0.37621311  1
  Zn  Zn96  1  0.50306002  0.74962889  0.24197583  1
  Zn  Zn97  1  0.62788601  0.87320948  0.25043633  1
  Zn  Zn98  1  -0.00477615  0.25220862  0.73694809  1
  Zn  Zn99  1  -0.00134111  0.12705691  0.61456856  1
  Zn  Zn100  1  0.01318081  0.76459946  0.24582821  1
  Zn  Zn101  1  0.25491547  0.11772723  0.38548607  1
  Zn  Zn102  1  0.00660601  0.62346768  0.12869747  1
  Zn  Zn103  1  0.62801402  0.12257449  -0.00440390  1
  Zn  Zn104  1  0.25737873  0.74496615  0.50895239  1
  Zn  Zn105  1  0.24843481  0.86829243  0.62915259  1
  Zn  Zn106  1  0.00403699  0.24580778  0.25049089  1
  Zn  Zn107  1  0.18733048  0.18556414  0.18838786  1
  Zn  Zn108  1  0.18264999  0.18071189  0.68864081  1
  Zn  Zn109  1  0.19123865  0.69055696  0.19042438  1
  Zn  Zn110  1  0.18943954  0.69005537  0.68989896  1
  Zn  Zn111  1  0.68994554  0.18766836  0.18416642  1
  Zn  Zn112  1  0.68686248  0.18856944  0.68776286  1
  Zn  Zn113  1  0.69116666  0.68734232  0.18946601  1
  Zn  Zn114  1  0.68697245  0.68624377  0.68622252  1
  Zn  Zn115  1  0.30796990  0.30741441  0.31325250  1
  Zn  Zn116  1  0.30943770  0.31277262  0.81469944  1
  Zn  Zn117  1  0.30760635  0.81220483  0.31470412  1
  Zn  Zn118  1  0.31431526  0.80900143  0.81158224  1
  Zn  Zn119  1  0.81255632  0.31159069  0.31061960  1
  Zn  Zn120  1  0.81330048  0.31364801  0.81515791  1
  Zn  Zn121  1  0.85699499  0.84481542  0.28188969  1
  Zn  Zn122  1  0.81274789  0.82099271  0.81641767  1
  Zn  Zn123  1  0.19060367  0.43385563  0.43812979  1
  Zn  Zn124  1  0.18500923  0.43923884  0.93435125  1
  Zn  Zn125  1  0.19583368  0.94147031  0.43983155  1
  Zn  Zn126  1  0.18377155  0.93678171  0.93945354  1
  Zn  Zn127  1  0.68932467  0.43707832  0.43683361  1
  Zn  Zn128  1  0.68777213  0.43673434  0.94133326  1
  Zn  Zn129  1  0.68366471  0.94236687  0.43308669  1
  Zn  Zn130  1  0.68150645  0.93131227  0.93734891  1
  Zn  Zn131  1  0.30811347  0.06010855  0.06761947  1
  Zn  Zn132  1  0.31315447  0.06261626  0.57257980  1
  Zn  Zn133  1  0.31054175  0.56116245  0.06273254  1
  Zn  Zn134  1  0.31133231  0.55765606  0.56289710  1
  Zn  Zn135  1  0.81422829  0.06840417  0.06491042  1
  Zn  Zn136  1  0.81578293  0.06367912  0.56556047  1
  Zn  Zn137  1  0.80709518  0.56595346  0.06134107  1
  Zn  Zn138  1  0.81076272  0.56053550  0.56416912  1
  Zn  Zn139  1  0.43579030  0.43695564  0.18849308  1
  Zn  Zn140  1  0.44045028  0.44107243  0.68843046  1
  Zn  Zn141  1  0.43763005  0.93201884  0.18149292  1
  Zn  Zn142  1  0.43734483  0.94383871  0.68729361  1
  Zn  Zn143  1  0.93692532  0.43672443  0.18782825  1
  Zn  Zn144  1  0.93835481  0.43641405  0.69098506  1
  Zn  Zn145  1  0.94248014  0.94416349  0.17961285  1
  Zn  Zn146  1  0.93412732  0.93935575  0.68846650  1
  Zn  Zn147  1  0.06001554  0.05556518  0.32215718  1
  Zn  Zn148  1  0.06426413  0.06143592  0.81194171  1
  Zn  Zn149  1  0.06206722  0.56540215  0.31276060  1
  Zn  Zn150  1  0.06205797  0.56410055  0.81737317  1
  Zn  Zn151  1  0.56412790  0.06339349  0.31023483  1
  Zn  Zn152  1  0.56149007  0.06455544  0.81179760  1
  Zn  Zn153  1  0.56054544  0.55825662  0.31616735  1
  Zn  Zn154  1  0.56055299  0.56570734  0.81338928  1
  Zn  Zn155  1  0.43650994  0.19418838  0.43830497  1
  Zn  Zn156  1  0.43894285  0.18843814  0.93573989  1
  Zn  Zn157  1  0.43968237  0.68460817  0.43147138  1
  Zn  Zn158  1  0.44022612  0.69092221  0.92989492  1
  Zn  Zn159  1  0.94431699  0.18237700  0.43924132  1
  Zn  Zn160  1  0.93278580  0.18208349  0.93162152  1
  Zn  Zn161  1  0.94485545  0.68439174  0.43482762  1
  Zn  Zn162  1  0.93993524  0.68462214  0.93926830  1
  Zn  Zn163  1  0.06276014  0.31438230  0.06055992  1
  Zn  Zn164  1  0.06589610  0.30733857  0.56311380  1
  Zn  Zn165  1  0.06745388  0.81374541  0.06481228  1
  Zn  Zn166  1  0.06180578  0.81886443  0.56292319  1
  Zn  Zn167  1  0.56573613  0.31390619  0.06315691  1
  Zn  Zn168  1  0.56247221  0.31913479  0.56092060  1
  Zn  Zn169  1  0.55943151  0.81336356  0.06221913  1
  Zn  Zn170  1  0.56492256  0.81639762  0.55774573  1
  O  O171  1  0.13215867  0.11359034  0.11684066  1
  O  O172  1  0.12130665  0.10648102  0.62937867  1
  O  O173  1  0.12970416  0.63017311  0.11180188  1
  O  O174  1  0.11895821  0.61933814  0.61935673  1
  O  O175  1  0.61807125  0.11749366  0.12343913  1
  O  O176  1  0.62093363  0.11979085  0.61666428  1
  O  O177  1  0.63028871  0.61646019  0.11840359  1
  O  O178  1  0.63179819  0.61207341  0.61505369  1
  O  O179  1  0.37062898  0.38464068  0.37423910  1
  O  O180  1  0.38120806  0.38006284  0.88148541  1
  O  O181  1  0.38605733  0.87039011  0.38294120  1
  O  O182  1  0.38900073  0.87511002  0.87151239  1
  O  O183  1  0.87712283  0.38250428  0.38089876  1
  O  O184  1  0.88543753  0.38477149  0.87158821  1
  O  O185  1  0.85947505  0.84946409  0.39698240  1
  O  O186  1  0.87805782  0.88644476  0.87547313  1
  O  O187  1  0.24619362  0.00758197  0.36796922  1
  O  O188  1  0.24288915  0.00765797  0.86598128  1
  O  O189  1  0.25657922  0.50454700  0.36799925  1
  O  O190  1  0.25408942  0.50599427  0.86509677  1
  O  O191  1  0.74299295  0.01095009  0.36182355  1
  O  O192  1  0.74002526  -0.00230772  0.86274330  1
  O  O193  1  0.76183261  0.50393253  0.37330783  1
  O  O194  1  0.75871553  0.49152410  0.86858028  1
  O  O195  1  0.25382364  0.48961014  0.13532100  1
  O  O196  1  0.24234699  0.50371190  0.63966276  1
  O  O197  1  0.23946152  0.99514747  0.13371993  1
  O  O198  1  0.24153690  0.99482926  0.63732019  1
  O  O199  1  0.74094981  0.49204727  0.12545728  1
  O  O200  1  0.74366805  0.49016958  0.63131005  1
  O  O201  1  0.74377491  0.99396183  0.12406230  1
  O  O202  1  0.73920005  0.99413617  0.62851676  1
  O  O203  1  0.01424151  0.37661161  0.25130010  1
  O  O204  1  0.00707113  0.37341947  0.76166416  1
  O  O205  1  -0.03526823  0.86623648  0.25328357  1
  O  O206  1  -0.00270258  0.86033404  0.74985816  1
  O  O207  1  0.50746451  0.36258271  0.24517278  1
  O  O208  1  0.50549290  0.36898344  0.75731094  1
  O  O209  1  0.50454717  0.87697142  0.25769156  1
  O  O210  1  0.50512227  0.87179931  0.75274619  1
  O  O211  1  0.49430567  0.13517565  0.24452418  1
  O  O212  1  0.49942221  0.14310670  0.75358616  1
  O  O213  1  0.48326451  0.62105942  0.25660133  1
  O  O214  1  0.49007913  0.63360423  0.75239556  1
  O  O215  1  0.98574450  0.12411320  0.25772184  1
  O  O216  1  0.98737064  0.12662220  0.75309793  1
  O  O217  1  0.99134274  0.62925078  0.24751431  1
  O  O218  1  0.99189788  0.63346405  0.74719504  1
  O  O219  1  0.36929270  0.25622056  0.00499401  1
  O  O220  1  0.36569909  0.26307919  0.49884863  1
  O  O221  1  0.37239579  0.75294248  -0.00939829  1
  O  O222  1  0.38163838  0.76017978  0.49839522  1
  O  O223  1  0.86882626  0.24581195  0.00724940  1
  O  O224  1  0.87125442  0.26277770  0.49242380  1
  O  O225  1  0.86646236  0.73943274  0.01004011  1
  O  O226  1  0.86698901  0.73580299  0.50928313  1
  O  O227  1  0.14205396  0.26052900  0.48889371  1
  O  O228  1  0.12938969  0.24272224  0.99532986  1
  O  O229  1  0.12295325  0.73692116  0.49532817  1
  O  O230  1  0.11930468  0.74067114  0.98834197  1
  O  O231  1  0.62845149  0.24945633  0.49134811  1
  O  O232  1  0.63182322  0.25020626  0.99208444  1
  O  O233  1  0.61770320  0.73910544  0.48832309  1
  O  O234  1  0.62919942  0.74541388  0.99118414  1
  O  O235  1  0.49659858  0.24546467  0.13113062  1
  O  O236  1  0.50943414  0.25477964  0.64153599  1
  O  O237  1  0.49472325  0.75531324  0.13042918  1
  O  O238  1  0.51149400  0.75363334  0.63729549  1
  O  O239  1  0.98857450  0.25762476  0.12719470  1
  O  O240  1  1.00424116  0.24126499  0.62451479  1
  O  O241  1  0.99251485  0.74711501  0.12503723  1
  O  O242  1  0.98791262  0.74531471  0.63077937  1
  O  O243  1  0.01434670  0.25219087  0.37604766  1
  O  O244  1  0.00963605  0.25686048  0.87639095  1
  O  O245  1  0.01879169  0.74473942  0.37480182  1
  O  O246  1  0.00552444  0.74907351  0.86873073  1
  O  O247  1  0.51389549  0.24775811  0.36702926  1
  O  O248  1  0.50685549  0.26121579  0.86892920  1
  O  O249  1  0.50584823  0.75753653  0.36705457  1
  O  O250  1  0.51020194  0.75879483  0.86231680  1
  O  O251  1  0.26010546  0.14147439  0.50205460  1
  O  O252  1  0.24265750  0.12777578  0.99435665  1
  O  O253  1  0.24410935  0.62186992  0.49349367  1
  O  O254  1  0.24352951  0.61552264  0.98640678  1
  O  O255  1  0.74602898  0.13166621  0.49355953  1
  O  O256  1  0.74576412  0.14022335  1.00458987  1
  O  O257  1  0.73682417  0.61238573  0.48858858  1
  O  O258  1  0.73712867  0.63854546  1.00122290  1
  O  O259  1  0.25155420  0.37123286  0.00652796  1
  O  O260  1  0.26444808  0.36803381  0.49916486  1
  O  O261  1  0.25005999  0.88670078  0.01784409  1
  O  O262  1  0.27084673  0.87356316  0.50070969  1
  O  O263  1  0.74418610  0.36545125  0.01393210  1
  O  O264  1  0.75812830  0.37239954  0.50685466  1
  O  O265  1  0.74251758  0.86021797  0.00582355  1
  O  O266  1  0.74217494  0.86813770  0.50616547  1
  O  O267  1  0.13622475  0.49367381  0.25607330  1
  O  O268  1  0.13098429  0.49426832  0.74975045  1
  O  O269  1  0.12073872  1.00599968  0.23681197  1
  O  O270  1  0.13548197  0.99740399  0.74637608  1
  O  O271  1  0.62574905  0.49293057  0.24558982  1
  O  O272  1  0.62750208  0.49711251  0.74308556  1
  O  O273  1  0.63545792  1.00160334  0.23655979  1
  O  O274  1  0.62845904  0.99927634  0.73985489  1
  O  O275  1  0.38096679  0.01533346  0.24361908  1
  O  O276  1  0.35833850  0.00163051  0.74853153  1
  O  O277  1  0.36718001  0.50539468  0.25628335  1
  O  O278  1  0.36854581  0.50374044  0.75520499  1
  O  O279  1  0.86047711  0.01298551  0.23601917  1
  O  O280  1  0.86168585  0.00672899  0.75091866  1
  O  O281  1  0.87524969  0.50951295  0.25775445  1
  O  O282  1  0.87100269  0.50684256  0.75953773  1
  O  O283  1  0.12719922  0.36702313  0.36653462  1
  O  O284  1  0.11951069  0.36777349  0.86646355  1
  O  O285  1  0.13180765  0.85954257  0.38519587  1
  O  O286  1  0.11901994  0.86462266  0.87375715  1
  O  O287  1  0.63178730  0.36935372  0.36108753  1
  O  O288  1  0.61727485  0.37106680  0.87126103  1
  O  O289  1  0.61632032  0.86631402  0.37496928  1
  O  O290  1  0.61685876  0.86496021  0.86555559  1
  O  O291  1  0.38202884  0.13182066  0.13135284  1
  O  O292  1  0.38358944  0.12414289  0.63253446  1
  O  O293  1  0.36804780  0.62402410  0.14066270  1
  O  O294  1  0.37358871  0.61707031  0.63716593  1
  O  O295  1  0.86902554  0.14026658  0.13604992  1
  O  O296  1  0.87611264  0.11907806  0.64398499  1
  O  O297  1  0.87501645  0.62929388  0.13236924  1
  O  O298  1  0.87686004  0.62901944  0.63534111  1
  O  O299  1  0.25482299  0.25650394  0.11937827  1
  O  O300  1  0.24026191  0.25028976  0.61397995  1
  O  O301  1  0.25256547  0.76154879  0.12454224  1
  O  O302  1  0.24679745  0.75404896  0.62136459  1
  O  O303  1  0.75675782  0.25817328  0.11844305  1
  O  O304  1  0.74182815  0.26515387  0.61784078  1
  O  O305  1  0.75431056  0.75631615  0.11701544  1
  O  O306  1  0.75929389  0.75732347  0.62862218  1
  O  O307  1  0.24245428  0.24379366  0.38190337  1
  O  O308  1  0.23824950  0.24601453  0.88141016  1
  O  O309  1  0.24270662  0.73954560  0.38323321  1
  O  O310  1  0.24007327  0.73958584  0.86821881  1
  O  O311  1  0.73995377  0.24625930  0.37987435  1
  O  O312  1  0.74057174  0.26132611  0.88620375  1
  O  O313  1  0.74291797  0.74032500  0.38749646  1
  O  O314  1  0.74061180  0.75513642  0.88071431  1
  O  O315  1  0.01250361  0.12192649  -0.00382798  1
  O  O316  1  -0.01273619  0.09871607  0.50118638  1
  O  O317  1  0.01084601  0.61616372  0.00157351  1
  O  O318  1  0.00746673  0.61730056  0.50734091  1
  O  O319  1  0.50282855  0.11877217  0.00360273  1
  O  O320  1  0.50566938  0.12022128  0.49654676  1
  O  O321  1  0.51495177  0.62349943  -0.00872334  1
  O  O322  1  0.51109368  0.61439700  0.49418930  1
  O  O323  1  0.48359282  0.37905457  0.50108955  1
  O  O324  1  0.49502833  0.37621561  0.99275913  1
  O  O325  1  0.49237370  0.88230660  0.49275078  1
  O  O326  1  0.50219353  0.88490144  0.98780107  1
  O  O327  1  0.99412697  0.38143524  0.49976794  1
  O  O328  1  1.00813898  0.38397226  0.98692978  1
  O  O329  1  0.99613481  0.89476949  0.50965380  1
  O  O330  1  1.00277896  0.88916578  1.00292921  1
  O  O331  1  0.49102908  0.49935935  0.38781688  1
  O  O332  1  0.49596803  0.48854725  0.87471906  1
  O  O333  1  0.50874827  0.99187991  0.38324909  1
  O  O334  1  0.50838705  0.99177974  0.88261839  1
  O  O335  1  0.98977769  0.50021517  0.38130566  1
  O  O336  1  0.99250823  0.49373868  0.88188319  1
  O  O337  1  0.98882537  0.99251737  0.38123875  1
  O  O338  1  1.00637087  0.99926573  0.89243747  1
  O  O339  1  0.01377476  0.00145987  0.11325893  1
  O  O340  1  0.01115217  0.00094103  0.63032559  1
  O  O341  1  -0.00548490  0.49993718  0.11034250  1
  O  O342  1  0.00501246  0.50658136  0.62310645  1
  O  O343  1  0.50825101  0.00320026  0.11662525  1
  O  O344  1  0.51258950  -0.00030868  0.61566251  1
  O  O345  1  0.51368184  0.49308742  0.12405493  1
  O  O346  1  0.50915840  0.49560959  0.61261272  1
  O  O347  1  0.24193123  0.37979784  0.24370859  1
  O  O348  1  0.24039124  0.38448343  0.75718516  1
  O  O349  1  0.25800968  0.87588545  0.23412233  1
  O  O350  1  0.24898020  0.88510080  0.75354153  1
  O  O351  1  0.74212306  0.37602104  0.24046772  1
  O  O352  1  0.74611243  0.38056136  0.74285111  1
  O  O353  1  0.75342075  0.88629590  0.24133946  1
  O  O354  1  0.74169050  0.88415368  0.74114627  1
  O  O355  1  0.26916765  0.12793139  0.24799956  1
  O  O356  1  0.24872160  0.11553716  0.75979477  1
  O  O357  1  0.25520569  0.61608203  0.25710403  1
  O  O358  1  0.25592179  0.61774614  0.75979916  1
  O  O359  1  0.75484690  0.12185820  0.25615794  1
  O  O360  1  0.75647628  0.11788216  0.74500113  1
  O  O361  1  0.75530487  0.62100089  0.26483402  1
  O  O362  1  0.75867276  0.61592163  0.74582518  1
  O  O363  1  0.37903757  0.13130095  0.35959048  1
  O  O364  1  0.35929756  0.13405979  0.87226404  1
  O  O365  1  0.36486626  0.61351723  0.37085201  1
  O  O366  1  0.36814259  0.61713760  0.86759659  1
  O  O367  1  0.86064891  0.13610911  0.36655741  1
  O  O368  1  0.87243373  0.11605370  0.86009750  1
  O  O369  1  0.86903188  0.61939080  0.37126439  1
  O  O370  1  0.87855960  0.61721657  0.86509830  1
  O  O371  1  0.13634751  0.36894258  0.13285490  1
  O  O372  1  0.11932503  0.38210470  0.63992237  1
  O  O373  1  0.13496711  0.88755715  0.12438406  1
  O  O374  1  0.12684529  0.88463396  0.63228642  1
  O  O375  1  0.63207683  0.37972085  0.13553427  1
  O  O376  1  0.63208321  0.38691742  0.62886514  1
  O  O377  1  0.63595502  0.88233391  0.12754074  1
  O  O378  1  0.63418987  0.88237100  0.62747322  1
  O  O379  1  0.12625633  0.25631287  0.25968981  1
  O  O380  1  0.12478031  0.25646131  0.75896476  1
  O  O381  1  0.12799027  0.74704650  0.26748280  1
  O  O382  1  0.11380391  0.74644960  0.76136786  1
  O  O383  1  0.62015275  0.25601772  0.25425504  1
  O  O384  1  0.62023439  0.25860670  0.75822515  1
  O  O385  1  0.62796595  0.74951058  0.26439046  1
  O  O386  1  0.62149577  0.75303317  0.75465677  1
  O  O387  1  0.38352780  0.24697326  0.24483267  1
  O  O388  1  0.38992486  0.25614422  0.75522896  1
  O  O389  1  0.37223087  0.73054489  0.25738118  1
  O  O390  1  0.38498882  0.73977354  0.75178112  1
  O  O391  1  0.87873623  0.24513613  0.24258108  1
  O  O392  1  0.87414790  0.23721561  0.75567215  1
  O  O393  1  0.86491359  0.73537365  0.23515703  1
  O  O394  1  0.87695642  0.74189109  0.74634107  1
  O  O395  1  0.37813245  0.48874413  0.49500594  1
  O  O396  1  0.37733420  0.49390722  0.99428240  1
  O  O397  1  0.38659972  0.99299269  0.50381466  1
  O  O398  1  0.38665802  1.00008099  1.00337706  1
  O  O399  1  0.87922754  0.49193280  0.49385090  1
  O  O400  1  0.88012010  0.50898273  0.98847913  1
  O  O401  1  0.86798785  0.99212487  0.49471637  1
  O  O402  1  0.89341466  1.01218942  1.00365844  1
  O  O403  1  0.11835372  0.00728329  0.00918710  1
  O  O404  1  0.12838858  -0.00458827  0.51646626  1
  O  O405  1  0.11533398  0.50938371  -0.00619499  1
  O  O406  1  0.12240565  0.50703211  0.50482603  1
  O  O407  1  0.62043476  0.00138755  0.00959840  1
  O  O408  1  0.61904548  0.00739214  0.50556768  1
  O  O409  1  0.62479616  0.50903637  0.00819668  1
  O  O410  1  0.61632641  0.50022651  0.50422894  1
  O  O411  1  0.36479194  0.36971494  0.12135695  1
  O  O412  1  0.37306026  0.37854376  0.61736119  1
  O  O413  1  0.36381859  0.87361377  0.11776384  1
  O  O414  1  0.38002662  0.87580835  0.61192222  1
  O  O415  1  0.86415855  0.36753644  0.13118480  1
  O  O416  1  0.86683804  0.38199570  0.61646706  1
  O  O417  1  0.86187233  0.86582000  0.12048054  1
  O  O418  1  0.86101237  0.86720095  0.62986247  1
  O  O419  1  0.12649556  0.13707623  0.37172785  1
  O  O420  1  0.13217385  0.13297273  0.88197444  1
  O  O421  1  0.13647187  0.62342855  0.38398970  1
  O  O422  1  0.13335064  0.63029297  0.88221835  1
  O  O423  1  0.63440344  0.13417418  0.37734139  1
  O  O424  1  0.62256903  0.14093074  0.87500085  1
  O  O425  1  0.63122441  0.62811537  0.38017387  1
  O  O426  1  0.62427929  0.63726609  0.87887121  1
