# generated using pymatgen
data_V85Zn86O256
_symmetry_space_group_name_H-M   'P 1'
_cell_length_a   16.92529937
_cell_length_b   16.93295748
_cell_length_c   16.92307203
_cell_angle_alpha   89.99515956
_cell_angle_beta   90.02383730
_cell_angle_gamma   90.02070796
_symmetry_Int_Tables_number   1
_chemical_formula_structural   V85Zn86O256
_chemical_formula_sum   'V85 Zn86 O256'
_cell_volume   4850.07341117
_cell_formula_units_Z   1
loop_
 _symmetry_equiv_pos_site_id
 _symmetry_equiv_pos_as_xyz
  1  'x, y, z'
loop_
 _atom_site_type_symbol
 _atom_site_label
 _atom_site_symmetry_multiplicity
 _atom_site_fract_x
 _atom_site_fract_y
 _atom_site_fract_z
 _atom_site_occupancy
  V  V0  1  0.74335569  0.75027304  0.49841464  1
  V  V1  1  0.37021161  0.36677996  -0.00000910  1
  V  V2  1  0.62045660  0.00130260  0.12977094  1
  V  V3  1  -0.00060834  0.73637292  0.25157672  1
  V  V4  1  0.50775125  0.24773877  0.24491406  1
  V  V5  1  0.00118286  0.87561418  0.87624804  1
  V  V6  1  0.75120858  0.37271814  0.13334296  1
  V  V7  1  0.62652351  0.23686485  0.38136617  1
  V  V8  1  0.51121665  0.38073722  0.37152149  1
  V  V9  1  0.51965670  0.12117741  0.61491106  1
  V  V10  1  0.37271829  0.49890904  0.87491164  1
  V  V11  1  0.88066641  0.50110641  0.87954540  1
  V  V12  1  0.88326615  0.49455297  0.36635419  1
  V  V13  1  0.87131742  0.12953712  0.26032929  1
  V  V14  1  0.13075116  0.87465659  0.75466252  1
  V  V15  1  0.74913536  0.62256335  0.87192356  1
  V  V16  1  0.12763022  0.13628327  0.00361895  1
  V  V17  1  -0.00537847  0.87511599  0.37022415  1
  V  V18  1  0.37734631  0.62525151  0.25221827  1
  V  V19  1  -0.00747335  0.48218082  0.49950380  1
  V  V20  1  0.86901352  0.88509209  0.49632267  1
  V  V21  1  0.87942691  0.62420610  0.74295728  1
  V  V22  1  0.75177987  0.50894149  0.25009328  1
  V  V23  1  0.38102588  0.12450680  0.24321369  1
  V  V24  1  0.00040648  0.74838119  0.74991037  1
  V  V25  1  0.12654469  0.00338537  0.62694705  1
  V  V26  1  0.62135144  0.74682158  0.87240237  1
  V  V27  1  0.24206232  0.74615231  0.00367425  1
  V  V28  1  0.25576590  0.86984464  0.60641115  1
  V  V29  1  0.62937072  0.25275269  0.87540268  1
  V  V30  1  0.75041905  0.12560479  0.87689237  1
  V  V31  1  0.00271423  0.62175553  0.10748514  1
  V  V32  1  0.37671472  0.87599863  -0.00014712  1
  V  V33  1  0.87534314  0.00080328  0.87424966  1
  V  V34  1  0.75721825  0.25092722  0.00658458  1
  V  V35  1  0.24065071  0.62202986  0.88205207  1
  V  V36  1  0.61952883  0.12611566  0.00621825  1
  V  V37  1  0.12581425  0.12593544  0.49885133  1
  V  V38  1  0.88013025  0.37823337  0.00679799  1
  V  V39  1  0.11690716  0.25815652  0.37053771  1
  V  V40  1  0.74907099  0.75070464  -0.00095521  1
  V  V41  1  0.74484883  0.87553593  0.12647570  1
  V  V42  1  0.50410688  0.24679527  0.74792359  1
  V  V43  1  0.63002259  0.37617453  0.73374274  1
  V  V44  1  0.25394440  0.12628084  0.37501276  1
  V  V45  1  0.25341388  0.13049133  0.87848338  1
  V  V46  1  0.12534917  0.50426352  0.11079985  1
  V  V47  1  0.12157159  0.00149671  0.12786964  1
  V  V48  1  0.62222158  0.61176554  0.50366736  1
  V  V49  1  0.74847373  0.87931135  0.62534295  1
  V  V50  1  0.87329415  0.74472515  0.13050911  1
  V  V51  1  0.62393990  0.87865465  0.74652465  1
  V  V52  1  0.37853469  0.74867225  0.12955212  1
  V  V53  1  -0.00198659  0.36748967  0.87284411  1
  V  V54  1  0.37379402  0.62605001  0.75035550  1
  V  V55  1  -0.01010265  0.13385867  0.12880777  1
  V  V56  1  0.24834306  0.36659728  0.12463699  1
  V  V57  1  0.38270102  0.38279160  0.49780056  1
  V  V58  1  0.50276001  0.37402008  0.87388423  1
  V  V59  1  0.49775285  0.86938898  0.35393466  1
  V  V60  1  0.87433653  0.74951941  0.62099075  1
  V  V61  1  0.37757509  0.24287823  0.62307016  1
  V  V62  1  0.25004138  -0.00246145  0.25244680  1
  V  V63  1  0.49926603  0.62509709  0.12709080  1
  V  V64  1  0.88233131  0.26471949  0.63083341  1
  V  V65  1  0.75199419  0.49441934  0.73528498  1
  V  V66  1  0.11977013  0.36708314  0.74684889  1
  V  V67  1  0.05809639  0.67227188  0.56454602  1
  V  V68  1  0.62310333  0.62364290  -0.00327411  1
  V  V69  1  0.74759914  0.00297709  0.74579054  1
  V  V70  1  0.49486170  0.75167534  0.74640226  1
  V  V71  1  -0.00443405  0.00514554  0.49425995  1
  V  V72  1  0.24827207  0.87387108  0.12811921  1
  V  V73  1  0.24820014  0.50065604  0.25081414  1
  V  V74  1  0.12251088  0.49923659  0.61783947  1
  V  V75  1  0.75792709  0.25471283  0.50934244  1
  V  V76  1  0.75219984  -0.00555405  0.25960010  1
  V  V77  1  -0.00026931  0.00148444  0.00347762  1
  V  V78  1  0.24615537  0.63052009  0.38783842  1
  V  V79  1  0.25267143  0.37572073  0.62546029  1
  V  V80  1  0.50517171  -0.01697624  0.50583832  1
  V  V81  1  0.50170349  0.49906093  -0.00289234  1
  V  V82  1  0.62438561  0.49497064  0.13037816  1
  V  V83  1  0.25281183  0.25191469  0.49742742  1
  V  V84  1  0.62249420  0.75227378  0.36093856  1
  Zn  Zn85  1  0.87472027  0.87483792  0.00182271  1
  Zn  Zn86  1  0.49508784  0.61050249  0.61126784  1
  Zn  Zn87  1  0.37460721  -0.00985922  0.38164673  1
  Zn  Zn88  1  0.49865810  0.87973667  0.87552315  1
  Zn  Zn89  1  0.25421357  0.00039435  0.75211444  1
  Zn  Zn90  1  0.11912489  0.74233333  0.88210506  1
  Zn  Zn91  1  0.75236443  0.62509628  0.37189902  1
  Zn  Zn92  1  0.24457890  0.49963107  0.75027855  1
  Zn  Zn93  1  0.49735820  0.00561835  0.00281471  1
  Zn  Zn94  1  0.74965146  0.11613630  0.38706241  1
  Zn  Zn95  1  0.88404813  0.13385524  0.75060788  1
  Zn  Zn96  1  0.00005057  0.13308959  0.63078817  1
  Zn  Zn97  1  0.11798856  0.38093414  0.25079169  1
  Zn  Zn98  1  0.37668582  0.00032167  0.87467236  1
  Zn  Zn99  1  0.37768275  0.24597196  0.12349436  1
  Zn  Zn100  1  0.37922049  0.50192228  0.37853771  1
  Zn  Zn101  1  0.37763839  0.12153822  0.75009715  1
  Zn  Zn102  1  0.37176642  0.74979066  0.61224614  1
  Zn  Zn103  1  0.12390093  0.24982259  0.87315524  1
  Zn  Zn104  1  -0.01673606  0.26461120  0.25310091  1
  Zn  Zn105  1  0.12151611  0.87311561  0.25350820  1
  Zn  Zn106  1  0.12347647  0.74609999  0.38234254  1
  Zn  Zn107  1  0.18690213  0.18613319  0.19000164  1
  Zn  Zn108  1  0.19040085  0.18677379  0.68960290  1
  Zn  Zn109  1  0.18450127  0.68566996  0.19224117  1
  Zn  Zn110  1  0.19285437  0.69183072  0.69455579  1
  Zn  Zn111  1  0.68827129  0.18597297  0.19200874  1
  Zn  Zn112  1  0.69537549  0.18978747  0.68649777  1
  Zn  Zn113  1  0.68645481  0.68364407  0.18397594  1
  Zn  Zn114  1  0.68765609  0.68538643  0.68411968  1
  Zn  Zn115  1  0.31586392  0.31321507  0.31077426  1
  Zn  Zn116  1  0.31066824  0.30894510  0.80978513  1
  Zn  Zn117  1  0.31369213  0.80747466  0.31841309  1
  Zn  Zn118  1  0.31067890  0.81029554  0.81614967  1
  Zn  Zn119  1  0.80718528  0.31558147  0.31703750  1
  Zn  Zn120  1  0.81334734  0.31515786  0.81216965  1
  Zn  Zn121  1  0.81237263  0.81270348  0.31182547  1
  Zn  Zn122  1  0.81278733  0.81337987  0.81226738  1
  Zn  Zn123  1  0.18961628  0.44161478  0.43908577  1
  Zn  Zn124  1  0.18678828  0.43300304  0.93759057  1
  Zn  Zn125  1  0.18092011  0.93830525  0.43341629  1
  Zn  Zn126  1  0.18943287  0.94208517  0.94017408  1
  Zn  Zn127  1  0.69147419  0.43353774  0.43305697  1
  Zn  Zn128  1  0.69228776  0.43757597  0.93560779  1
  Zn  Zn129  1  0.67578756  0.93641679  0.43814338  1
  Zn  Zn130  1  0.68522848  0.93735596  0.93753689  1
  Zn  Zn131  1  0.30941754  0.06234322  0.06233602  1
  Zn  Zn132  1  0.31722773  0.05633792  0.55955291  1
  Zn  Zn133  1  0.31118268  0.55885704  0.06256740  1
  Zn  Zn134  1  0.31334752  0.56475406  0.56351977  1
  Zn  Zn135  1  0.81108828  0.06259799  0.06594579  1
  Zn  Zn136  1  0.81177538  0.07343415  0.56604134  1
  Zn  Zn137  1  0.81376698  0.56299031  0.06333968  1
  Zn  Zn138  1  0.81637476  0.56397407  0.55498117  1
  Zn  Zn139  1  0.43685697  0.43513637  0.19051976  1
  Zn  Zn140  1  0.43876727  0.43487074  0.68525632  1
  Zn  Zn141  1  0.43489114  0.94031438  0.18606636  1
  Zn  Zn142  1  0.43551512  0.94059803  0.68603816  1
  Zn  Zn143  1  0.93923786  0.44167730  0.18742734  1
  Zn  Zn144  1  0.94001764  0.43871076  0.68639101  1
  Zn  Zn145  1  0.93090861  0.93809915  0.18914866  1
  Zn  Zn146  1  0.93971902  0.94357506  0.68792673  1
  Zn  Zn147  1  0.06073146  0.06608108  0.31358949  1
  Zn  Zn148  1  0.06555149  0.06458427  0.81405190  1
  Zn  Zn149  1  0.06455680  0.56060643  0.31339143  1
  Zn  Zn150  1  0.06016066  0.55609573  0.80947712  1
  Zn  Zn151  1  0.56197424  0.05713597  0.31389036  1
  Zn  Zn152  1  0.56050936  0.06259147  0.81426117  1
  Zn  Zn153  1  0.56547340  0.56580422  0.31367213  1
  Zn  Zn154  1  0.54832942  0.54559444  0.77711189  1
  Zn  Zn155  1  0.43964571  0.18750511  0.43577678  1
  Zn  Zn156  1  0.43992840  0.18827833  0.93711579  1
  Zn  Zn157  1  0.43994866  0.69191238  0.43854349  1
  Zn  Zn158  1  0.43439958  0.68890621  0.93750898  1
  Zn  Zn159  1  0.93329591  0.18992972  0.44152532  1
  Zn  Zn160  1  0.93697830  0.18814711  0.93945908  1
  Zn  Zn161  1  0.92645181  0.68702796  0.42946561  1
  Zn  Zn162  1  0.93311574  0.68979032  0.93676686  1
  Zn  Zn163  1  0.05868269  0.31651243  0.06846575  1
  Zn  Zn164  1  0.06342598  0.31199059  0.55955689  1
  Zn  Zn165  1  0.06120273  0.81376282  0.06638143  1
  Zn  Zn166  1  0.06091595  0.83486396  0.56355612  1
  Zn  Zn167  1  0.56475918  0.31287494  0.06249997  1
  Zn  Zn168  1  0.56369934  0.30955595  0.55531924  1
  Zn  Zn169  1  0.56138071  0.81279192  0.06681325  1
  Zn  Zn170  1  0.56290299  0.80575269  0.56652898  1
  O  O171  1  0.11851150  0.11982995  0.12169555  1
  O  O172  1  0.12632825  0.11849682  0.61829659  1
  O  O173  1  0.11218401  0.62044102  0.12650850  1
  O  O174  1  0.12491247  0.62001669  0.62663075  1
  O  O175  1  0.63483240  0.11477617  0.11689873  1
  O  O176  1  0.61753365  0.12726255  0.62622258  1
  O  O177  1  0.61882606  0.61605322  0.11716562  1
  O  O178  1  0.62463851  0.62964365  0.60693406  1
  O  O179  1  0.38411687  0.37615369  0.38295214  1
  O  O180  1  0.37753569  0.37993406  0.88022032  1
  O  O181  1  0.39272702  0.87126313  0.37025900  1
  O  O182  1  0.37425178  0.87503470  0.88700324  1
  O  O183  1  0.86913857  0.39419460  0.37356907  1
  O  O184  1  0.88025974  0.38203206  0.88151624  1
  O  O185  1  0.88320445  0.87286953  0.38392883  1
  O  O186  1  0.88231949  0.88191815  0.87729753  1
  O  O187  1  0.25164687  0.00616375  0.36957586  1
  O  O188  1  0.25151744  0.01480074  0.87591268  1
  O  O189  1  0.25302011  0.50822799  0.36713012  1
  O  O190  1  0.25627045  0.50446004  0.87545218  1
  O  O191  1  0.74236683  -0.00301510  0.36314696  1
  O  O192  1  0.75740851  0.00318740  0.86925528  1
  O  O193  1  0.75499056  0.50054887  0.36392231  1
  O  O194  1  0.76250791  0.50557567  0.86844606  1
  O  O195  1  0.24329668  0.49436075  0.13119127  1
  O  O196  1  0.24078283  0.49350056  0.62448877  1
  O  O197  1  0.24389677  0.99443465  0.13458069  1
  O  O198  1  0.24066238  0.99171413  0.62374741  1
  O  O199  1  0.74334264  0.49594195  0.12927196  1
  O  O200  1  0.75662432  0.50421306  0.63706539  1
  O  O201  1  0.74405053  0.99110739  0.13156722  1
  O  O202  1  0.75652065  0.99688195  0.63926525  1
  O  O203  1  0.00507184  0.37383078  0.24473184  1
  O  O204  1  0.00784289  0.38053324  0.76001229  1
  O  O205  1  -0.00411413  0.86867870  0.25724907  1
  O  O206  1  0.00998662  0.87088350  0.75374675  1
  O  O207  1  0.49317781  0.36361190  0.26453513  1
  O  O208  1  0.50985264  0.36541753  0.75653253  1
  O  O209  1  0.50170779  0.87482009  0.25559144  1
  O  O210  1  0.50656567  0.86895641  0.74938910  1
  O  O211  1  0.49119178  0.13210648  0.25781052  1
  O  O212  1  0.50144809  0.13017833  0.73754147  1
  O  O213  1  0.48563230  0.61752398  0.24480095  1
  O  O214  1  0.48193798  0.63918777  0.76741490  1
  O  O215  1  0.98480794  0.12398396  0.24655374  1
  O  O216  1  0.99626818  0.11137116  0.74311846  1
  O  O217  1  1.00134052  0.63424471  0.24456712  1
  O  O218  1  0.98702110  0.63009367  0.75451699  1
  O  O219  1  0.38270095  0.26292435  0.00399656  1
  O  O220  1  0.37201488  0.25808305  0.50519409  1
  O  O221  1  0.36510680  0.75454455  0.01085616  1
  O  O222  1  0.36501092  0.73610332  0.50252957  1
  O  O223  1  0.86341388  0.25776610  -0.00116405  1
  O  O224  1  0.86629790  0.25311769  0.50930500  1
  O  O225  1  0.86665322  0.75129430  0.01051020  1
  O  O226  1  0.86175593  0.75930260  0.50103347  1
  O  O227  1  0.13198251  0.24496974  0.49024989  1
  O  O228  1  0.11848338  0.23850239  1.00178141  1
  O  O229  1  0.10861125  0.74057931  0.50760067  1
  O  O230  1  0.13791310  0.75541699  1.00121195  1
  O  O231  1  0.63151574  0.24754001  0.48653790  1
  O  O232  1  0.63547674  0.24515890  0.99646321  1
  O  O233  1  0.63459957  0.74887321  0.49306243  1
  O  O234  1  0.62825207  0.74492715  0.99189488  1
  O  O235  1  0.50161765  0.25722431  0.14041880  1
  O  O236  1  0.49659457  0.23963781  0.62668827  1
  O  O237  1  0.48996412  0.73945488  0.12049605  1
  O  O238  1  0.49704763  0.74228934  0.63835092  1
  O  O239  1  1.00270236  0.23653843  0.13151749  1
  O  O240  1  0.98719829  0.25215809  0.61852293  1
  O  O241  1  0.99325122  0.74179456  0.12970244  1
  O  O242  1  1.00050958  0.74392134  0.62362883  1
  O  O243  1  0.01418357  0.24349480  0.37441569  1
  O  O244  1  0.00019431  0.26286541  0.87746805  1
  O  O245  1  -0.00284050  0.75481215  0.36697034  1
  O  O246  1  -0.00024672  0.75843578  0.87045706  1
  O  O247  1  0.51083962  0.25433594  0.36982461  1
  O  O248  1  0.50864478  0.25366985  0.86815922  1
  O  O249  1  0.51168630  0.75805477  0.37324033  1
  O  O250  1  0.50633784  0.75532589  0.86830522  1
  O  O251  1  0.24797686  0.12919389  0.49182078  1
  O  O252  1  0.24069209  0.12402222  0.99218548  1
  O  O253  1  0.24867453  0.61747779  0.48599930  1
  O  O254  1  0.25446352  0.63323714  0.99411366  1
  O  O255  1  0.75191295  0.14236847  0.49791760  1
  O  O256  1  0.74567419  0.13341935  0.99666662  1
  O  O257  1  0.74189447  0.63521975  0.49766792  1
  O  O258  1  0.74308711  0.63027483  0.99337567  1
  O  O259  1  0.25960033  0.37825836  0.00908079  1
  O  O260  1  0.25927168  0.37012700  0.50517119  1
  O  O261  1  0.25813817  0.86885125  0.00711325  1
  O  O262  1  0.24522094  0.87767221  0.50776436  1
  O  O263  1  0.75847759  0.36893883  0.00718062  1
  O  O264  1  0.74349373  0.35384771  0.49369113  1
  O  O265  1  0.75021681  0.86740001  0.00664698  1
  O  O266  1  0.75276677  0.87383711  0.50341248  1
  O  O267  1  0.13682723  0.50197078  0.24215264  1
  O  O268  1  0.12302637  0.49140277  0.73488459  1
  O  O269  1  0.13221132  0.99968190  0.24690411  1
  O  O270  1  0.12816055  0.99205845  0.74178613  1
  O  O271  1  0.63297281  0.50470002  0.23890781  1
  O  O272  1  0.64631123  0.48965536  0.75977678  1
  O  O273  1  0.63967013  1.00701105  0.24179503  1
  O  O274  1  0.63490723  0.98971987  0.75837802  1
  O  O275  1  0.36788247  0.00632967  0.25520121  1
  O  O276  1  0.37194719  0.00405681  0.75453243  1
  O  O277  1  0.36392176  0.50655330  0.24901833  1
  O  O278  1  0.36958524  0.50515069  0.76335493  1
  O  O279  1  0.85919303  0.00826432  0.24840481  1
  O  O280  1  0.86692434  -0.00418649  0.76272140  1
  O  O281  1  0.86980849  0.50205271  0.25905033  1
  O  O282  1  0.86839329  0.50651016  0.75402600  1
  O  O283  1  0.13285757  0.36034563  0.37519432  1
  O  O284  1  0.11649762  0.37481460  0.86698910  1
  O  O285  1  0.10854903  0.86814006  0.37679467  1
  O  O286  1  0.11812936  0.87628188  0.87014837  1
  O  O287  1  0.61378345  0.36498640  0.37513140  1
  O  O288  1  0.62238801  0.36803186  0.87194564  1
  O  O289  1  0.61415567  0.86030215  0.37494357  1
  O  O290  1  0.62631632  0.86279713  0.86542290  1
  O  O291  1  0.36909734  0.12618747  0.13841226  1
  O  O292  1  0.37586710  0.13621429  0.62450262  1
  O  O293  1  0.37865624  0.62994756  0.12963682  1
  O  O294  1  0.37613640  0.62432868  0.63793560  1
  O  O295  1  0.88103343  0.12041767  0.13785211  1
  O  O296  1  0.87880702  0.13972779  0.62973521  1
  O  O297  1  0.88851358  0.63212937  0.11987469  1
  O  O298  1  0.87066660  0.63470269  0.63214439  1
  O  O299  1  0.25146113  0.26321124  0.13206707  1
  O  O300  1  0.25870439  0.25515407  0.61891576  1
  O  O301  1  0.25405736  0.75409075  0.12163828  1
  O  O302  1  0.24640280  0.76770949  0.62799784  1
  O  O303  1  0.74277042  0.26097924  0.11886183  1
  O  O304  1  0.75995686  0.25222369  0.61621730  1
  O  O305  1  0.75500528  0.75426880  0.12188029  1
  O  O306  1  0.75404010  0.75856739  0.61710961  1
  O  O307  1  0.24540161  0.24315673  0.37850459  1
  O  O308  1  0.24557511  0.23675374  0.87379095  1
  O  O309  1  0.24396878  0.73575574  0.37203567  1
  O  O310  1  0.24719173  0.73974619  0.88603273  1
  O  O311  1  0.73708868  0.24642380  0.37737460  1
  O  O312  1  0.74715755  0.24699600  0.88382307  1
  O  O313  1  0.74018745  0.75137427  0.38001943  1
  O  O314  1  0.74331827  0.74337971  0.87695858  1
  O  O315  1  0.00318402  0.12021004  0.00966306  1
  O  O316  1  0.00518632  0.11824997  0.50225889  1
  O  O317  1  0.00287337  0.63168354  0.00881415  1
  O  O318  1  -0.00241955  0.62092044  0.50223825  1
  O  O319  1  0.51554867  0.12893359  0.00107893  1
  O  O320  1  0.50139300  0.12732033  0.51365269  1
  O  O321  1  0.50319099  0.61805171  0.00322901  1
  O  O322  1  0.51617114  0.62320324  0.49597922  1
  O  O323  1  0.49473161  0.36849920  0.48411250  1
  O  O324  1  0.49499183  0.38081211  0.99334998  1
  O  O325  1  0.50223296  0.88085903  0.50365676  1
  O  O326  1  0.48556197  0.87159840  1.00198091  1
  O  O327  1  1.00123456  0.38426930  0.49400845  1
  O  O328  1  0.98659169  0.37145997  0.99524557  1
  O  O329  1  0.98745431  0.88275450  0.49200583  1
  O  O330  1  0.99834181  0.88275590  0.99571535  1
  O  O331  1  0.50084575  0.48427254  0.36720614  1
  O  O332  1  0.49176784  0.49301303  0.87470525  1
  O  O333  1  0.50245968  0.98029504  0.38010401  1
  O  O334  1  0.49770229  0.99755541  0.88372752  1
  O  O335  1  0.99246113  0.50383406  0.38452964  1
  O  O336  1  0.98680056  0.49169607  0.87231816  1
  O  O337  1  1.00379888  0.99340620  0.38684911  1
  O  O338  1  0.99331732  0.99480612  0.88224205  1
  O  O339  1  0.00211843  0.00699001  0.12251254  1
  O  O340  1  0.01345265  -0.00646345  0.61189938  1
  O  O341  1  0.00716398  0.51559010  0.12421183  1
  O  O342  1  0.00464738  0.49832182  0.60955426  1
  O  O343  1  0.51588381  -0.00592054  0.12370129  1
  O  O344  1  0.49883221  0.01059516  0.61577495  1
  O  O345  1  0.50707290  0.50218394  0.11994076  1
  O  O346  1  0.51161587  0.51530200  0.66921840  1
  O  O347  1  0.24932522  0.38394714  0.24289499  1
  O  O348  1  0.24273414  0.37718049  0.74244159  1
  O  O349  1  0.24965320  0.88509036  0.25052079  1
  O  O350  1  0.23763232  0.87605846  0.75304609  1
  O  O351  1  0.75386943  0.38464015  0.23739116  1
  O  O352  1  0.74606868  0.38701966  0.75070177  1
  O  O353  1  0.75388314  0.88673011  0.24340446  1
  O  O354  1  0.74355701  0.88158279  0.74677498  1
  O  O355  1  0.25470173  0.11509289  0.25650859  1
  O  O356  1  0.25082472  0.12326148  0.76411246  1
  O  O357  1  0.25992953  0.61836016  0.25240208  1
  O  O358  1  0.25937577  0.62378267  0.76001640  1
  O  O359  1  0.75955209  0.11489351  0.25349976  1
  O  O360  1  0.75161699  0.11698475  0.75880822  1
  O  O361  1  0.75071018  0.61335681  0.24742367  1
  O  O362  1  0.75848030  0.61770038  0.75271187  1
  O  O363  1  0.36384285  0.12665860  0.36698428  1
  O  O364  1  0.36428145  0.12660156  0.87757844  1
  O  O365  1  0.36737284  0.62168443  0.36629442  1
  O  O366  1  0.36422306  0.61664135  0.87417987  1
  O  O367  1  0.87348310  0.12272646  0.36425599  1
  O  O368  1  0.86922461  0.11779452  0.87395097  1
  O  O369  1  0.86662747  0.60538640  0.38131004  1
  O  O370  1  0.87003673  0.61930735  0.86758097  1
  O  O371  1  0.13297615  0.38441863  0.12468658  1
  O  O372  1  0.12943419  0.38071120  0.62842361  1
  O  O373  1  0.13066464  0.88326330  0.12930141  1
  O  O374  1  0.13557258  0.88343932  0.63353458  1
  O  O375  1  0.63488172  0.38839097  0.11646002  1
  O  O376  1  0.61963805  0.37081961  0.63489219  1
  O  O377  1  0.63751645  0.88065687  0.12107283  1
  O  O378  1  0.63190265  0.86897325  0.63919949  1
  O  O379  1  0.12612369  0.24951829  0.26513396  1
  O  O380  1  0.12617746  0.26318758  0.74829448  1
  O  O381  1  0.11230797  0.75386214  0.25176330  1
  O  O382  1  0.11716810  0.75719159  0.75510756  1
  O  O383  1  0.61804300  0.24521558  0.26271550  1
  O  O384  1  0.62632121  0.25802775  0.75526441  1
  O  O385  1  0.62912103  0.74503572  0.26222810  1
  O  O386  1  0.61742936  0.75289811  0.75550540  1
  O  O387  1  0.38449076  0.24100945  0.24898976  1
  O  O388  1  0.38468926  0.24871764  0.73999729  1
  O  O389  1  0.36870868  0.74116237  0.23711633  1
  O  O390  1  0.37877906  0.74466676  0.74740134  1
  O  O391  1  0.86850201  0.23503386  0.25493288  1
  O  O392  1  0.86886016  0.25209613  0.73602219  1
  O  O393  1  0.88038863  0.75240932  0.23749276  1
  O  O394  1  0.88075144  0.74493102  0.74261774  1
  O  O395  1  0.37653513  0.48684318  0.50260146  1
  O  O396  1  0.38064308  0.49198212  0.99034873  1
  O  O397  1  0.39741625  1.00869871  0.49375024  1
  O  O398  1  0.37672492  0.99015083  1.00366692  1
  O  O399  1  0.88752109  0.49776972  0.49358888  1
  O  O400  1  0.86886078  0.49138056  0.99065718  1
  O  O401  1  0.88025179  0.99273118  0.50658727  1
  O  O402  1  0.87829497  1.00005249  0.98969560  1
  O  O403  1  0.11813450  0.00917633  0.00849259  1
  O  O404  1  0.11747006  0.00659283  0.50521041  1
  O  O405  1  0.12974431  0.50062539  0.01120395  1
  O  O406  1  0.11378532  0.49678721  0.50928561  1
  O  O407  1  0.62736207  0.00974695  0.00802467  1
  O  O408  1  0.60485596  0.00323281  0.49703377  1
  O  O409  1  0.62083454  0.50577903  0.00315709  1
  O  O410  1  0.63370420  0.51377917  0.49339743  1
  O  O411  1  0.36692949  0.37637738  0.11629356  1
  O  O412  1  0.37573176  0.36454282  0.61891944  1
  O  O413  1  0.36854484  0.86681753  0.12247295  1
  O  O414  1  0.35796576  0.87589824  0.62678365  1
  O  O415  1  0.86523740  0.38416945  0.11591360  1
  O  O416  1  0.87670143  0.36458938  0.62708157  1
  O  O417  1  0.86303303  0.86738919  0.12257437  1
  O  O418  1  0.87061345  0.87005220  0.61682635  1
  O  O419  1  0.13620092  0.13229027  0.37851809  1
  O  O420  1  0.13288856  0.12708424  0.88552986  1
  O  O421  1  0.14075906  0.62599477  0.37110395  1
  O  O422  1  0.13668827  0.62144162  0.86828676  1
  O  O423  1  0.62533665  0.13424624  0.37445717  1
  O  O424  1  0.63269020  0.13254338  0.88260197  1
  O  O425  1  0.62779186  0.63742552  0.38258619  1
  O  O426  1  0.62838035  0.63582302  0.87527013  1
