# generated using pymatgen
data_V85Zn86O256
_symmetry_space_group_name_H-M   'P 1'
_cell_length_a   16.95822207
_cell_length_b   16.98918272
_cell_length_c   16.97876930
_cell_angle_alpha   90.05029114
_cell_angle_beta   90.00869601
_cell_angle_gamma   89.98489836
_symmetry_Int_Tables_number   1
_chemical_formula_structural   V85Zn86O256
_chemical_formula_sum   'V85 Zn86 O256'
_cell_volume   4891.68885680
_cell_formula_units_Z   1
loop_
 _symmetry_equiv_pos_site_id
 _symmetry_equiv_pos_as_xyz
  1  'x, y, z'
loop_
 _atom_site_type_symbol
 _atom_site_label
 _atom_site_symmetry_multiplicity
 _atom_site_fract_x
 _atom_site_fract_y
 _atom_site_fract_z
 _atom_site_occupancy
  V  V0  1  0.24918107  0.24886004  0.50142822  1
  V  V1  1  0.24911830  0.86700786  0.63174832  1
  V  V2  1  0.75253662  0.37680309  0.62536891  1
  V  V3  1  0.24937949  -0.00115715  0.24686887  1
  V  V4  1  0.87499943  0.24626681  0.12085586  1
  V  V5  1  0.24732964  0.12712283  0.37557694  1
  V  V6  1  0.00276850  0.87942741  0.87353435  1
  V  V7  1  -0.00088612  0.50264890  -0.00103874  1
  V  V8  1  0.24916494  0.49902908  0.74918695  1
  V  V9  1  0.37454001  0.12818124  0.24744916  1
  V  V10  1  0.37047333  0.11942552  0.75211296  1
  V  V11  1  0.25122188  0.37744627  0.62207039  1
  V  V12  1  0.00459938  0.62625012  0.62636935  1
  V  V13  1  0.36403793  0.87745075  0.49622985  1
  V  V14  1  0.74431378  0.50417668  0.74810254  1
  V  V15  1  0.37690792  0.01096461  0.37444931  1
  V  V16  1  0.49730364  0.74876640  0.73972819  1
  V  V17  1  0.87754457  0.87298202  0.50078659  1
  V  V18  1  0.87383452  0.50411980  0.87603917  1
  V  V19  1  0.38285049  0.48481863  0.36905218  1
  V  V20  1  -0.00086920  0.24511023  0.24352393  1
  V  V21  1  0.00553914  0.75429163  0.74908348  1
  V  V22  1  0.86345770  0.87495566  -0.00298615  1
  V  V23  1  0.87883058  0.37350749  0.50159642  1
  V  V24  1  0.62978963  0.75385500  0.87702540  1
  V  V25  1  0.75025173  0.88346673  0.14400938  1
  V  V26  1  0.63054307  0.00506269  0.62583512  1
  V  V27  1  0.25671925  0.61473522  0.37372602  1
  V  V28  1  0.75269549  0.11960704  0.36724407  1
  V  V29  1  0.74043933  0.37644780  0.13045267  1
  V  V30  1  0.50220847  0.12536050  0.12015901  1
  V  V31  1  0.61341999  0.51201418  0.61161646  1
  V  V32  1  0.11952741  0.36173901  0.75371620  1
  V  V33  1  0.87582654  -0.00169350  0.37073147  1
  V  V34  1  0.87634656  0.62645674  0.74908195  1
  V  V35  1  0.00413954  0.50277963  0.49855329  1
  V  V36  1  0.75304401  0.88062743  0.62953312  1
  V  V37  1  0.86980663  0.38268328  0.00313551  1
  V  V38  1  0.12325520  0.37564687  0.22286251  1
  V  V39  1  0.12367528  0.62379994  0.00745496  1
  V  V40  1  0.12047091  -0.00075187  0.12571506  1
  V  V41  1  0.12197649  0.12652194  0.00019343  1
  V  V42  1  0.87555634  0.50138773  0.37553539  1
  V  V43  1  0.24505525  0.49735468  0.23448518  1
  V  V44  1  0.74105315  0.24521837  -0.00767632  1
  V  V45  1  0.76005120  0.24641363  0.49815184  1
  V  V46  1  0.50043225  0.25874026  0.24781063  1
  V  V47  1  0.37854491  0.62588867  0.74762940  1
  V  V48  1  0.51054593  0.50550083  0.00380903  1
  V  V49  1  0.62910760  0.00225702  0.13741593  1
  V  V50  1  0.36588577  0.25489490  0.11966407  1
  V  V51  1  0.62997186  0.12344715  0.49990662  1
  V  V52  1  0.37457371  0.87406716  0.00758847  1
  V  V53  1  0.25250326  0.74947773  0.00990400  1
  V  V54  1  0.74695280  0.63278255  0.87902554  1
  V  V55  1  -0.00370247  0.00253024  0.00309830  1
  V  V56  1  0.12387120  0.25585593  0.37308790  1
  V  V57  1  0.51043143  0.24543341  0.75634511  1
  V  V58  1  -0.00446542  0.62296692  0.12394245  1
  V  V59  1  0.12460398  0.75194106  0.87156080  1
  V  V60  1  0.62506418  0.87883121  0.74815266  1
  V  V61  1  0.00354338  0.13651223  0.63961622  1
  V  V62  1  0.00338253  0.00328737  0.50150143  1
  V  V63  1  0.00230887  0.74943772  0.25011210  1
  V  V64  1  0.49903371  0.12326993  0.62680218  1
  V  V65  1  0.62232685  0.75793009  0.36925110  1
  V  V66  1  0.87739590  0.75132788  0.62503605  1
  V  V67  1  0.37380498  0.24900493  0.62838552  1
  V  V68  1  0.62399817  0.25550385  0.37324948  1
  V  V69  1  0.86385042  0.01274528  0.86357382  1
  V  V70  1  0.73926899  0.74762389  0.50609238  1
  V  V71  1  0.87187087  0.62474020  0.25189479  1
  V  V72  1  0.13710722  0.74343868  0.37466241  1
  V  V73  1  0.24410954  0.12907998  0.87688498  1
  V  V74  1  0.49896478  0.00144585  0.49864037  1
  V  V75  1  0.49492677  0.87270942  0.87390255  1
  V  V76  1  0.37767154  0.49740627  0.87507515  1
  V  V77  1  0.00263330  0.87202124  0.37434730  1
  V  V78  1  0.82274603  0.19618645  0.68317429  1
  V  V79  1  0.50696052  0.37135679  0.87572648  1
  V  V80  1  0.24966655  0.62415564  0.87424231  1
  V  V81  1  0.74613641  0.62480224  0.38364153  1
  V  V82  1  0.87597477  0.11868026  0.24283825  1
  V  V83  1  0.86277510  0.75090718  0.12182843  1
  V  V84  1  0.12738265  0.50172316  0.62708910  1
  Zn  Zn85  1  0.38473515  0.72516853  0.58939433  1
  Zn  Zn86  1  0.50150299  -0.00017627  -0.00180411  1
  Zn  Zn87  1  0.62546851  0.37373396  0.74932624  1
  Zn  Zn88  1  0.61878158  0.38170002  0.25496715  1
  Zn  Zn89  1  0.60126330  0.66406075  0.03714757  1
  Zn  Zn90  1  -0.00283345  0.36028756  0.86414237  1
  Zn  Zn91  1  0.12222160  -0.00658717  0.63353616  1
  Zn  Zn92  1  0.74660795  0.49921600  0.25314768  1
  Zn  Zn93  1  0.36924837  0.37753040  0.00132964  1
  Zn  Zn94  1  0.51131519  0.88453974  0.35818823  1
  Zn  Zn95  1  0.12978717  0.87062571  0.24824722  1
  Zn  Zn96  1  0.12111374  0.12511976  0.50188336  1
  Zn  Zn97  1  0.40342672  0.37950157  0.50075537  1
  Zn  Zn98  1  0.13563749  0.62730977  0.50257129  1
  Zn  Zn99  1  0.37066021  -0.00199359  0.87637935  1
  Zn  Zn100  1  0.48411943  0.73147946  0.21877252  1
  Zn  Zn101  1  0.58679118  0.54666575  0.16308215  1
  Zn  Zn102  1  0.00156743  0.37776895  0.36957631  1
  Zn  Zn103  1  0.25085779  0.87219320  0.12539364  1
  Zn  Zn104  1  0.24106017  0.26069308  -0.00448791  1
  Zn  Zn105  1  0.62690776  0.11877904  -0.00982875  1
  Zn  Zn106  1  0.23458835  -0.00635802  0.75396674  1
  Zn  Zn107  1  0.18311612  0.18312177  0.18325454  1
  Zn  Zn108  1  0.18504898  0.18334271  0.68794719  1
  Zn  Zn109  1  0.30212408  0.67729446  0.19170668  1
  Zn  Zn110  1  0.19572130  0.69254745  0.68457372  1
  Zn  Zn111  1  0.68826430  0.18883968  0.18513842  1
  Zn  Zn112  1  0.68841030  0.18321041  0.81868329  1
  Zn  Zn113  1  0.66833382  0.68138881  0.20348214  1
  Zn  Zn114  1  0.68470594  0.68756714  0.68711822  1
  Zn  Zn115  1  0.30717539  0.31581709  0.30457960  1
  Zn  Zn116  1  0.31198122  0.31043242  0.81338938  1
  Zn  Zn117  1  0.35235004  0.83075565  0.29055232  1
  Zn  Zn118  1  0.31405267  0.80834211  0.81611331  1
  Zn  Zn119  1  0.81477718  0.30994997  0.31349097  1
  Zn  Zn120  1  0.81335921  0.32156761  0.81710805  1
  Zn  Zn121  1  0.81334545  0.80800663  0.31529599  1
  Zn  Zn122  1  0.81547523  0.81848377  0.80970682  1
  Zn  Zn123  1  0.18985929  0.43711390  0.43728864  1
  Zn  Zn124  1  0.18458384  0.43650574  0.93885986  1
  Zn  Zn125  1  0.18616660  0.93688250  0.43355008  1
  Zn  Zn126  1  0.18770680  0.93979149  0.93594539  1
  Zn  Zn127  1  0.68727465  0.43721437  0.44047792  1
  Zn  Zn128  1  0.68791979  0.43644997  0.93485408  1
  Zn  Zn129  1  0.69167988  0.93718310  0.43957277  1
  Zn  Zn130  1  0.68530772  0.94333120  0.93965512  1
  Zn  Zn131  1  0.31267962  0.06151062  0.06028935  1
  Zn  Zn132  1  0.30577439  0.05972892  0.56680243  1
  Zn  Zn133  1  0.30895195  0.55209754  0.05487146  1
  Zn  Zn134  1  0.34606088  0.57280798  0.54263704  1
  Zn  Zn135  1  0.81156717  0.06143115  0.05886099  1
  Zn  Zn136  1  0.81848004  0.05909198  0.56002087  1
  Zn  Zn137  1  0.78070512  0.57593527  0.07482757  1
  Zn  Zn138  1  0.81342940  0.56146366  0.56420374  1
  Zn  Zn139  1  0.43142067  0.43904704  0.18572426  1
  Zn  Zn140  1  0.43794689  0.43432628  0.68980068  1
  Zn  Zn141  1  0.44333135  0.93923732  0.18567003  1
  Zn  Zn142  1  0.43417491  0.93612705  0.68378643  1
  Zn  Zn143  1  0.93479386  0.43673777  0.18559711  1
  Zn  Zn144  1  0.93776244  0.43753795  0.68709032  1
  Zn  Zn145  1  0.93832117  0.93477395  0.18631644  1
  Zn  Zn146  1  0.94426073  0.94201106  0.69054618  1
  Zn  Zn147  1  0.06243829  0.06419920  0.31103468  1
  Zn  Zn148  1  0.06270070  0.06129232  0.81392229  1
  Zn  Zn149  1  0.06692244  0.56112237  0.30687508  1
  Zn  Zn150  1  0.06359207  0.56107079  0.81490442  1
  Zn  Zn151  1  0.56141410  0.07308616  0.31038989  1
  Zn  Zn152  1  0.55938705  0.05585717  0.81226907  1
  Zn  Zn153  1  0.56589997  0.57045759  0.32510211  1
  Zn  Zn154  1  0.56199615  0.56587363  0.81202603  1
  Zn  Zn155  1  0.45288744  0.21565475  0.45118008  1
  Zn  Zn156  1  0.43556848  0.18552960  0.93667232  1
  Zn  Zn157  1  0.43382674  0.68543274  0.41974144  1
  Zn  Zn158  1  0.43289461  0.68680593  1.05103024  1
  Zn  Zn159  1  0.94132534  0.18625736  0.43363634  1
  Zn  Zn160  1  0.93527471  0.18744613  0.93313405  1
  Zn  Zn161  1  0.93809991  0.68704853  0.43917907  1
  Zn  Zn162  1  0.93328613  0.69143829  0.93747211  1
  Zn  Zn163  1  0.04395335  0.29815676  0.03416290  1
  Zn  Zn164  1  0.06452452  0.31361194  0.56396662  1
  Zn  Zn165  1  0.06110674  0.81362799  0.06177762  1
  Zn  Zn166  1  0.06812424  0.81071441  0.55727410  1
  Zn  Zn167  1  0.55813860  0.31473403  0.06077599  1
  Zn  Zn168  1  0.57123847  0.30883153  0.56892902  1
  Zn  Zn169  1  0.56887818  0.82851280  0.06225512  1
  Zn  Zn170  1  0.55848237  0.81876311  0.55898254  1
  O  O171  1  0.12605125  0.10586325  0.12085072  1
  O  O172  1  0.11311204  0.12126083  0.62220936  1
  O  O173  1  0.10864485  0.63117694  0.10830933  1
  O  O174  1  0.12377652  0.62190086  0.62233586  1
  O  O175  1  0.61867224  0.12045234  0.12251827  1
  O  O176  1  0.62084918  0.11177741  0.61768988  1
  O  O177  1  0.66975779  0.61370248  0.11137418  1
  O  O178  1  0.62599269  0.61104118  0.62602581  1
  O  O179  1  0.37286136  0.38090188  0.37171055  1
  O  O180  1  0.38246463  0.38672226  0.86866163  1
  O  O181  1  0.37095730  0.90022007  0.38335051  1
  O  O182  1  0.38170817  0.87487449  0.88223160  1
  O  O183  1  0.87661046  0.38167322  0.38530837  1
  O  O184  1  0.87762582  0.38392242  0.88870859  1
  O  O185  1  0.88111868  0.87901155  0.38075532  1
  O  O186  1  0.88477431  0.87600481  0.88268373  1
  O  O187  1  0.25321369  0.00916790  0.36748054  1
  O  O188  1  0.25131384  0.00997569  0.87120316  1
  O  O189  1  0.24911284  0.50294675  0.36384531  1
  O  O190  1  0.25506405  0.50654051  0.86874915  1
  O  O191  1  0.75915572  0.01139378  0.38200745  1
  O  O192  1  0.76543512  -0.00588125  0.87690668  1
  O  O193  1  0.75735650  0.50964828  0.38106252  1
  O  O194  1  0.75310874  0.50775391  0.86579651  1
  O  O195  1  0.24612148  0.49803886  0.13566543  1
  O  O196  1  0.24553257  0.48993827  0.62961191  1
  O  O197  1  0.24344956  0.99843442  0.13296901  1
  O  O198  1  0.24525831  0.98676910  0.62990674  1
  O  O199  1  0.75954839  0.47867747  0.13111399  1
  O  O200  1  0.74408878  0.49415211  0.63023209  1
  O  O201  1  0.74669222  0.99077627  0.12494121  1
  O  O202  1  0.74275644  0.99224147  0.61620489  1
  O  O203  1  0.00829961  0.36623235  0.24736837  1
  O  O204  1  0.01264118  0.37727579  0.74842817  1
  O  O205  1  0.00002662  0.86564359  0.25719014  1
  O  O206  1  -0.00458484  0.86432568  0.76038767  1
  O  O207  1  0.50044096  0.36208431  0.24393284  1
  O  O208  1  0.50095354  0.36252297  0.75647276  1
  O  O209  1  0.47172704  0.85715956  0.25505365  1
  O  O210  1  0.50472316  0.87212115  0.75267202  1
  O  O211  1  0.49325193  0.13328030  0.23606793  1
  O  O212  1  0.49132931  0.12861374  0.74602550  1
  O  O213  1  0.55367537  0.63736220  0.23298606  1
  O  O214  1  0.49039046  0.63471650  0.75197784  1
  O  O215  1  0.99325601  0.13798800  0.25138697  1
  O  O216  1  1.00204703  0.12927735  0.73866799  1
  O  O217  1  0.99364078  0.62990615  0.24199941  1
  O  O218  1  0.99655137  0.63262211  0.74577106  1
  O  O219  1  0.37235812  0.24778632  0.01338522  1
  O  O220  1  0.35629324  0.24412703  0.50847820  1
  O  O221  1  0.36258692  0.75925956  -0.00668560  1
  O  O222  1  0.37268979  0.77905626  0.47881043  1
  O  O223  1  0.86153169  0.25893192  0.00693819  1
  O  O224  1  0.86850292  0.25846753  0.49031675  1
  O  O225  1  0.88072301  0.76163727  0.01161583  1
  O  O226  1  0.87093073  0.75647158  0.50790732  1
  O  O227  1  0.13232460  0.24977788  0.49093591  1
  O  O228  1  0.13310913  0.22668953  1.02679857  1
  O  O229  1  0.12053151  0.74388479  0.47924795  1
  O  O230  1  0.12785461  0.74353955  0.98986381  1
  O  O231  1  0.64350071  0.24025652  0.49542096  1
  O  O232  1  0.63934539  0.25064373  1.00576063  1
  O  O233  1  0.63644044  0.75479174  0.50113067  1
  O  O234  1  0.62880145  0.76143505  0.97985316  1
  O  O235  1  0.49270449  0.24357032  0.12935516  1
  O  O236  1  0.49573567  0.23985508  0.63792219  1
  O  O237  1  0.52241827  0.73555657  0.10545058  1
  O  O238  1  0.49262631  0.76359409  0.63599475  1
  O  O239  1  0.98279182  0.25279685  0.12851283  1
  O  O240  1  1.00172656  0.23435946  0.61805729  1
  O  O241  1  0.99083309  0.74321509  0.13164608  1
  O  O242  1  0.99925874  0.74637214  0.62897177  1
  O  O243  1  0.00680377  0.25370431  0.36350466  1
  O  O244  1  0.00835681  0.26837947  0.92608257  1
  O  O245  1  0.00240396  0.75300923  0.36771520  1
  O  O246  1  0.00647894  0.75606627  0.87037396  1
  O  O247  1  0.51516905  0.23089529  0.35684123  1
  O  O248  1  0.48956581  0.25985209  0.86760293  1
  O  O249  1  0.51879948  0.74759377  0.37560775  1
  O  O250  1  0.51453760  0.76542292  0.85796063  1
  O  O251  1  0.24272247  0.13121332  0.49492542  1
  O  O252  1  0.24076227  0.12224597  0.99198053  1
  O  O253  1  0.25051734  0.61594249  0.47845083  1
  O  O254  1  0.24025340  0.62811743  0.98998249  1
  O  O255  1  0.75336438  0.13111283  0.49274773  1
  O  O256  1  0.74912404  0.14262610  1.00396853  1
  O  O257  1  0.76124341  0.63745714  0.49573823  1
  O  O258  1  0.75813186  0.63017826  0.97789244  1
  O  O259  1  0.25564589  0.37225456  -0.00802139  1
  O  O260  1  0.24396632  0.36636141  0.51337066  1
  O  O261  1  0.25598814  0.86566258  -0.00157164  1
  O  O262  1  0.26004874  0.88616207  0.50588463  1
  O  O263  1  0.75316817  0.36996687  0.00807638  1
  O  O264  1  0.75821497  0.36668640  0.50599118  1
  O  O265  1  0.76200059  0.87893411  0.00651220  1
  O  O266  1  0.75757368  0.86755635  0.51115140  1
  O  O267  1  0.12737985  0.48253895  0.24611552  1
  O  O268  1  0.13159159  0.49845075  0.74204255  1
  O  O269  1  0.13219853  0.99687289  0.24513420  1
  O  O270  1  0.11974957  0.99276208  0.74819506  1
  O  O271  1  0.62986423  0.49536673  0.25803611  1
  O  O272  1  0.63631960  0.49982953  0.74507597  1
  O  O273  1  0.61980256  1.00562031  0.23796421  1
  O  O274  1  0.62020236  0.98742128  0.73816422  1
  O  O275  1  0.36920947  0.00953045  0.25512761  1
  O  O276  1  0.37516397  0.01273593  0.74886576  1
  O  O277  1  0.35383700  0.48661803  0.25529296  1
  O  O278  1  0.36903341  0.50341598  0.75524326  1
  O  O279  1  0.88471092  0.01292291  0.25349583  1
  O  O280  1  0.87764256  -0.00391492  0.76530598  1
  O  O281  1  0.87321839  0.50450176  0.26054933  1
  O  O282  1  0.86563003  0.50553833  0.75386896  1
  O  O283  1  0.12353954  0.36292861  0.37251765  1
  O  O284  1  0.12278186  0.38367153  0.85504286  1
  O  O285  1  0.12356802  0.86036307  0.37071741  1
  O  O286  1  0.11101378  0.86651950  0.88407114  1
  O  O287  1  0.63487535  0.35817602  0.37535337  1
  O  O288  1  0.61147184  0.37870934  0.86952475  1
  O  O289  1  0.62263145  0.86390717  0.38813266  1
  O  O290  1  0.62249690  0.87441791  0.86365919  1
  O  O291  1  0.38212249  0.13157491  0.12868349  1
  O  O292  1  0.37728989  0.12938413  0.63179478  1
  O  O293  1  0.36647963  0.62484425  0.11556764  1
  O  O294  1  0.34937102  0.62196720  0.64897511  1
  O  O295  1  0.86726571  0.13267879  0.13256109  1
  O  O296  1  0.88257851  0.12843472  0.62778301  1
  O  O297  1  0.87184955  0.63557843  0.13029141  1
  O  O298  1  0.88337373  0.63044394  0.63096782  1
  O  O299  1  0.26526808  0.24233259  0.12855681  1
  O  O300  1  0.25073683  0.25467689  0.61858576  1
  O  O301  1  0.24288111  0.74977006  0.11232206  1
  O  O302  1  0.26490654  0.76247118  0.62191321  1
  O  O303  1  0.75712262  0.25977281  0.11862382  1
  O  O304  1  0.76309622  0.25770810  0.61646866  1
  O  O305  1  0.76054549  0.76594322  0.13354395  1
  O  O306  1  0.75643760  0.75648765  0.62142329  1
  O  O307  1  0.24381215  0.24713600  0.38049589  1
  O  O308  1  0.25389177  0.23420507  0.87702043  1
  O  O309  1  0.23731732  0.73189025  0.36268419  1
  O  O310  1  0.24175477  0.74209875  0.88155565  1
  O  O311  1  0.74768421  0.23916778  0.38027165  1
  O  O312  1  0.74839195  0.25790716  0.88805128  1
  O  O313  1  0.74797764  0.74635872  0.38901999  1
  O  O314  1  0.74146850  0.74455815  0.85834062  1
  O  O315  1  0.00548457  0.10856704  -0.00282729  1
  O  O316  1  -0.00051707  0.11597871  0.50306274  1
  O  O317  1  -0.00102389  0.61911463  0.00387282  1
  O  O318  1  0.00057329  0.61347417  0.50626132  1
  O  O319  1  0.50044739  0.12528975  0.01113418  1
  O  O320  1  0.50623437  0.11867414  0.50627454  1
  O  O321  1  0.50610224  0.60894671  -0.00740205  1
  O  O322  1  0.43336415  0.64337973  0.52187809  1
  O  O323  1  0.49589822  0.31937115  0.48987673  1
  O  O324  1  0.49421417  0.38120872  0.99052255  1
  O  O325  1  0.48967072  0.89240027  0.49635350  1
  O  O326  1  0.49116232  0.87437788  0.99036105  1
  O  O327  1  0.99443792  0.38522403  0.50080965  1
  O  O328  1  0.98574898  0.39758304  1.01620062  1
  O  O329  1  0.99653554  0.88039425  0.49445918  1
  O  O330  1  0.99158762  0.88336163  0.99379216  1
  O  O331  1  0.48076381  0.50364842  0.36223379  1
  O  O332  1  0.49426849  0.49378900  0.87859080  1
  O  O333  1  0.49340677  1.00552837  0.37954247  1
  O  O334  1  0.49597833  0.98364232  0.87506474  1
  O  O335  1  0.99666638  0.49929778  0.38253704  1
  O  O336  1  0.98924393  0.50122336  0.88333147  1
  O  O337  1  0.99666432  0.99321979  0.37975112  1
  O  O338  1  0.99130940  0.99202309  0.88277113  1
  O  O339  1  0.00723948  -0.00753607  0.11562802  1
  O  O340  1  -0.00071935  0.01023003  0.61618753  1
  O  O341  1  -0.01297523  0.51791531  0.11984650  1
  O  O342  1  0.00689983  0.50667342  0.61886728  1
  O  O343  1  0.50792182  0.00891543  0.12322030  1
  O  O344  1  0.50630854  0.00441397  0.61658938  1
  O  O345  1  0.49963254  0.49371503  0.11011986  1
  O  O346  1  0.51603877  0.49033931  0.62897462  1
  O  O347  1  0.23038657  0.38015401  0.24559376  1
  O  O348  1  0.24272780  0.37686202  0.74012684  1
  O  O349  1  0.25577316  0.88893026  0.24857081  1
  O  O350  1  0.26262775  0.87397186  0.73484632  1
  O  O351  1  0.75071334  0.36989830  0.23842613  1
  O  O352  1  0.75080911  0.38548360  0.74211646  1
  O  O353  1  0.76397812  0.88304852  0.24171377  1
  O  O354  1  0.74260104  0.87233799  0.73551520  1
  O  O355  1  0.25339190  0.11618608  0.25414925  1
  O  O356  1  0.25481739  0.12250570  0.75661875  1
  O  O357  1  0.23666244  0.60328977  0.25665768  1
  O  O358  1  0.24858806  0.62181450  0.76364339  1
  O  O359  1  0.76106707  0.13111726  0.25856765  1
  O  O360  1  0.75865410  0.14312471  0.73658834  1
  O  O361  1  0.75723962  0.62568449  0.26671160  1
  O  O362  1  0.75704144  0.61900824  0.75179197  1
  O  O363  1  0.36873689  0.12102497  0.36992443  1
  O  O364  1  0.36782761  0.12098711  0.86746094  1
  O  O365  1  0.35965976  0.60808692  0.36590522  1
  O  O366  1  0.36326123  0.61063428  0.86508474  1
  O  O367  1  0.87069431  0.11986559  0.36511350  1
  O  O368  1  0.87452036  0.11263142  0.87712397  1
  O  O369  1  0.86917841  0.62047746  0.37235903  1
  O  O370  1  0.87037864  0.62447879  0.86470843  1
  O  O371  1  0.11561563  0.36708622  0.12698355  1
  O  O372  1  0.13052826  0.38110333  0.63412725  1
  O  O373  1  0.12849684  0.88329229  0.12797638  1
  O  O374  1  0.14544155  0.86916062  0.61745339  1
  O  O375  1  0.63773041  0.36967253  0.12793852  1
  O  O376  1  0.64103524  0.37788673  0.62736491  1
  O  O377  1  0.64327261  0.88393962  0.12822470  1
  O  O378  1  0.63206615  0.88508414  0.62657859  1
  O  O379  1  0.11833490  0.25765753  0.25007966  1
  O  O380  1  0.12671718  0.26354409  0.74782662  1
  O  O381  1  0.10924454  0.74914803  0.26098051  1
  O  O382  1  0.12234380  0.74529195  0.76383090  1
  O  O383  1  0.61880822  0.25098503  0.25647742  1
  O  O384  1  0.61279609  0.24929667  0.75157467  1
  O  O385  1  0.64358598  0.76787513  0.27260873  1
  O  O386  1  0.61871848  0.76351244  0.74726086  1
  O  O387  1  0.38034715  0.24566356  0.24168588  1
  O  O388  1  0.37865013  0.23841347  0.74440562  1
  O  O389  1  0.37607308  0.72878962  0.25869190  1
  O  O390  1  0.38514614  0.73901735  0.75803684  1
  O  O391  1  0.88196640  0.24277491  0.24317923  1
  O  O392  1  0.87394814  0.25578988  0.74510408  1
  O  O393  1  0.88433492  0.74467173  0.24462728  1
  O  O394  1  0.88345547  0.74586533  0.74261871  1
  O  O395  1  0.36731816  0.48401688  0.47628815  1
  O  O396  1  0.38620202  0.49735113  0.98822567  1
  O  O397  1  0.38145249  1.00410842  0.49233340  1
  O  O398  1  0.37780495  0.98973052  0.99688796  1
  O  O399  1  0.88333428  0.49413445  0.49451047  1
  O  O400  1  0.87291564  0.49635019  0.99502888  1
  O  O401  1  0.88686482  0.99278485  0.49273232  1
  O  O402  1  0.88090601  0.99326527  0.99425173  1
  O  O403  1  0.11710824  0.00297401  0.00763205  1
  O  O404  1  0.11184768  -0.00063341  0.49892831  1
  O  O405  1  0.11086932  0.51110521  -0.00839044  1
  O  O406  1  0.11804361  0.50019814  0.50724736  1
  O  O407  1  0.62129617  0.00070508  0.01405334  1
  O  O408  1  0.61808936  0.00431369  0.50405641  1
  O  O409  1  0.61025711  0.49531146  -0.00461493  1
  O  O410  1  0.62521594  0.49798166  0.51217843  1
  O  O411  1  0.37721040  0.35761650  0.12323151  1
  O  O412  1  0.36752578  0.36785539  0.62164521  1
  O  O413  1  0.37256032  0.87774979  0.11108961  1
  O  O414  1  0.36745619  0.88131851  0.60644754  1
  O  O415  1  0.86612588  0.36721700  0.11755184  1
  O  O416  1  0.86585466  0.38470691  0.61154986  1
  O  O417  1  0.86665827  0.87242338  0.11870756  1
  O  O418  1  0.87003314  0.87278223  0.62216896  1
  O  O419  1  0.12903206  0.13911666  0.37297283  1
  O  O420  1  0.12989566  0.12125423  0.88851111  1
  O  O421  1  0.12998880  0.63025618  0.37472213  1
  O  O422  1  0.12909634  0.63224879  0.88321353  1
  O  O423  1  0.63671444  0.13025579  0.38018753  1
  O  O424  1  0.62111011  0.11981073  0.87718393  1
  O  O425  1  0.63973222  0.64042521  0.38433751  1
  O  O426  1  0.63396699  0.63988215  0.86506876  1
