# generated using pymatgen
data_V85Zn86O256
_symmetry_space_group_name_H-M   'P 1'
_cell_length_a   17.01192442
_cell_length_b   16.99334667
_cell_length_c   17.00586310
_cell_angle_alpha   89.94085471
_cell_angle_beta   90.11080562
_cell_angle_gamma   90.11247750
_symmetry_Int_Tables_number   1
_chemical_formula_structural   V85Zn86O256
_chemical_formula_sum   'V85 Zn86 O256'
_cell_volume   4916.19569270
_cell_formula_units_Z   1
loop_
 _symmetry_equiv_pos_site_id
 _symmetry_equiv_pos_as_xyz
  1  'x, y, z'
loop_
 _atom_site_type_symbol
 _atom_site_label
 _atom_site_symmetry_multiplicity
 _atom_site_fract_x
 _atom_site_fract_y
 _atom_site_fract_z
 _atom_site_occupancy
  V  V0  1  0.24706563  0.37216843  0.12753970  1
  V  V1  1  0.62537968  0.13752840  0.49687636  1
  V  V2  1  0.49546031  -0.01189831  0.49847964  1
  V  V3  1  0.37779135  0.00170905  0.87316160  1
  V  V4  1  0.87109278  0.12302382  0.25490879  1
  V  V5  1  0.37679592  0.75137794  0.61753689  1
  V  V6  1  0.50098438  0.36534915  0.87141414  1
  V  V7  1  0.00060375  0.86123037  0.36269978  1
  V  V8  1  0.50264677  0.49888529  0.00024526  1
  V  V9  1  0.86195499  0.24499271  0.61957527  1
  V  V10  1  0.12672820  0.62275777  0.49164649  1
  V  V11  1  0.12122796  0.50153681  0.62988706  1
  V  V12  1  0.37678837  0.50441715  0.87692792  1
  V  V13  1  0.74995013  0.37434395  0.12668796  1
  V  V14  1  0.24825618  0.50367931  0.75917593  1
  V  V15  1  0.62791583  0.75245319  0.87397057  1
  V  V16  1  0.62666446  0.61498254  0.50394836  1
  V  V17  1  0.12611063  0.12099629  0.50311036  1
  V  V18  1  0.37558021  0.37684389  0.00281947  1
  V  V19  1  0.44248948  0.55553496  0.44781974  1
  V  V20  1  0.87867858  0.75246315  0.12655029  1
  V  V21  1  0.62743515  0.49967854  0.12612241  1
  V  V22  1  0.74687006  0.38290651  0.61750807  1
  V  V23  1  0.37545889  0.25098623  0.13234685  1
  V  V24  1  -0.00402280  0.11689898  0.12082584  1
  V  V25  1  0.87107508  -0.00810116  0.38353212  1
  V  V26  1  0.74730423  -0.00069112  0.25393912  1
  V  V27  1  0.74656230  0.13528353  0.38169024  1
  V  V28  1  0.38053172  0.37626362  0.49483571  1
  V  V29  1  0.27044167  0.50166372  0.26032359  1
  V  V30  1  -0.00124925  0.62605844  0.11867219  1
  V  V31  1  0.24638452  0.13049298  0.86620032  1
  V  V32  1  -0.00784286  0.12299582  0.62651756  1
  V  V33  1  0.75823670  0.87562271  0.61812781  1
  V  V34  1  0.49552647  0.63502756  0.13176433  1
  V  V35  1  0.25485560  -0.00143665  0.74596335  1
  V  V36  1  0.74861628  0.87632822  0.12587688  1
  V  V37  1  0.12121825  0.49848122  0.13290269  1
  V  V38  1  0.62612460  0.00621250  0.12583393  1
  V  V39  1  0.12125530  0.24938445  0.37889478  1
  V  V40  1  0.75380403  0.50145814  0.24990960  1
  V  V41  1  -0.00796282  0.24566904  0.74834798  1
  V  V42  1  0.38186649  0.25359285  0.63141399  1
  V  V43  1  0.50007752  0.12855151  0.12835721  1
  V  V44  1  0.25470078  0.87276883  0.61478416  1
  V  V45  1  0.62834797  0.62456276  0.00041102  1
  V  V46  1  0.50281852  0.24902142  0.26064234  1
  V  V47  1  0.87390138  0.24939014  0.12716604  1
  V  V48  1  0.12948937  0.73524658  0.88612184  1
  V  V49  1  0.36409261  0.86902747  0.00549452  1
  V  V50  1  0.12720774  -0.00172463  0.62356291  1
  V  V51  1  -0.00212264  -0.01372908  0.50137951  1
  V  V52  1  0.24818035  0.74357866  0.49653527  1
  V  V53  1  -0.00263834  0.37008515  0.87458358  1
  V  V54  1  0.75243196  0.75313064  -0.00257618  1
  V  V55  1  0.00212198  0.74808848  0.74929368  1
  V  V56  1  0.87288374  0.62557173  0.74847185  1
  V  V57  1  0.62306701  0.37498615  0.74642442  1
  V  V58  1  0.87979350  0.63047218  0.25058108  1
  V  V59  1  0.62794861  0.88051591  0.74619668  1
  V  V60  1  0.88073425  0.50073487  0.37760105  1
  V  V61  1  0.37753132  -0.00399764  0.36670370  1
  V  V62  1  0.87507943  0.37250011  0.00092535  1
  V  V63  1  0.38160984  0.12896042  0.74842237  1
  V  V64  1  0.50059036  0.87678122  0.87641345  1
  V  V65  1  0.26140913  0.12812555  0.36732038  1
  V  V66  1  0.15801381  0.10995382  0.03162775  1
  V  V67  1  0.37217240  0.62905516  0.75667215  1
  V  V68  1  0.12272516  0.37054462  0.75658007  1
  V  V69  1  0.62775627  0.37067643  0.26148257  1
  V  V70  1  0.00045820  0.87789878  0.87586349  1
  V  V71  1  0.50034848  0.75105592  0.74889216  1
  V  V72  1  0.86868072  0.49845058  0.87402366  1
  V  V73  1  0.61517779  0.86759888  0.25750218  1
  V  V74  1  0.00296547  0.24901949  0.25294360  1
  V  V75  1  0.12958172  0.87178538  0.75103616  1
  V  V76  1  0.75056953  0.63347389  0.37662211  1
  V  V77  1  0.17892998  0.78885815  0.31633344  1
  V  V78  1  0.00516471  0.50040652  -0.00081266  1
  V  V79  1  0.24909466  0.25102523  0.50496535  1
  V  V80  1  0.50435677  0.61181405  0.62933232  1
  V  V81  1  0.24971359  0.37503672  0.62753148  1
  V  V82  1  0.50532022  0.00446611  -0.00028543  1
  V  V83  1  0.50385757  0.12784757  0.62734937  1
  V  V84  1  0.74797709  0.12502910  0.87359880  1
  Zn  Zn85  1  0.74135272  0.23773985  0.00367855  1
  Zn  Zn86  1  0.62319507  0.24613537  0.87955360  1
  Zn  Zn87  1  0.87450729  0.37079444  0.49821004  1
  Zn  Zn88  1  0.12532904  0.37479938  0.25522935  1
  Zn  Zn89  1  0.87743686  0.87978095  -0.00078406  1
  Zn  Zn90  1  0.25013425  0.25782424  -0.00652919  1
  Zn  Zn91  1  0.60470331  0.74830419  0.38107823  1
  Zn  Zn92  1  0.11941446  0.24255769  0.88349182  1
  Zn  Zn93  1  0.87842302  0.75363432  0.61978847  1
  Zn  Zn94  1  -0.00152038  0.37492954  0.37857189  1
  Zn  Zn95  1  0.62595117  -0.00012576  0.62077883  1
  Zn  Zn96  1  0.75099757  0.75364793  0.49895852  1
  Zn  Zn97  1  -0.00116498  0.49718555  0.50469499  1
  Zn  Zn98  1  0.87745357  0.00938156  0.87206576  1
  Zn  Zn99  1  -0.00022902  0.62361087  0.62565662  1
  Zn  Zn100  1  0.50535786  0.37947771  0.38206251  1
  Zn  Zn101  1  0.26673804  0.70458917  0.98655468  1
  Zn  Zn102  1  0.76240644  0.00730215  0.74590796  1
  Zn  Zn103  1  0.00020086  0.00423405  -0.00298327  1
  Zn  Zn104  1  0.74345384  0.50334544  0.74510505  1
  Zn  Zn105  1  0.43720179  0.82490166  0.32976459  1
  Zn  Zn106  1  0.74892597  0.62602574  0.87270910  1
  Zn  Zn107  1  0.18344925  0.08570711  0.20186149  1
  Zn  Zn108  1  0.18571540  0.18832626  0.68844423  1
  Zn  Zn109  1  0.15425677  0.72081166  0.15233564  1
  Zn  Zn110  1  0.18844525  0.68676358  0.69001076  1
  Zn  Zn111  1  0.68626674  0.18650790  0.19141624  1
  Zn  Zn112  1  0.68297124  0.19060290  0.69402107  1
  Zn  Zn113  1  0.68872783  0.68860511  0.18651041  1
  Zn  Zn114  1  0.68720887  0.69034727  0.68601486  1
  Zn  Zn115  1  0.31063707  0.31299904  0.31245168  1
  Zn  Zn116  1  0.31338986  0.31578432  0.81307232  1
  Zn  Zn117  1  0.31533579  0.78899395  0.17102178  1
  Zn  Zn118  1  0.31063615  0.81151359  0.81719384  1
  Zn  Zn119  1  0.81470554  0.31345522  0.31371000  1
  Zn  Zn120  1  0.80658525  0.30714351  0.80727686  1
  Zn  Zn121  1  0.81366049  0.81489828  0.31146615  1
  Zn  Zn122  1  0.81479627  0.81745658  0.80766711  1
  Zn  Zn123  1  0.18887220  0.43821153  0.43933285  1
  Zn  Zn124  1  0.21871198  0.49547503  0.97235911  1
  Zn  Zn125  1  0.19702682  0.94579328  0.31271159  1
  Zn  Zn126  1  0.18616811  0.94237094  0.93142923  1
  Zn  Zn127  1  0.69327968  0.44278414  0.43794590  1
  Zn  Zn128  1  0.68556251  0.42497322  0.93970950  1
  Zn  Zn129  1  0.68012315  0.94192602  0.43936773  1
  Zn  Zn130  1  0.68889850  0.94235765  0.93714155  1
  Zn  Zn131  1  0.32764036  0.06779561  0.05682213  1
  Zn  Zn132  1  0.31582691  0.06300240  0.55898003  1
  Zn  Zn133  1  0.28453338  0.60411596  0.11756926  1
  Zn  Zn134  1  0.30867052  0.56510848  0.57364666  1
  Zn  Zn135  1  0.81254892  0.06054382  0.05447593  1
  Zn  Zn136  1  0.81014624  0.05927203  0.56344590  1
  Zn  Zn137  1  0.81433279  0.56263511  0.06007257  1
  Zn  Zn138  1  0.81415783  0.56586368  0.56051144  1
  Zn  Zn139  1  0.44373090  0.43728806  0.18814139  1
  Zn  Zn140  1  0.43572503  0.43579329  0.69168838  1
  Zn  Zn141  1  0.43539327  0.93928987  0.18479504  1
  Zn  Zn142  1  0.43997877  0.93745837  0.68401187  1
  Zn  Zn143  1  0.93935969  0.43600284  0.19215936  1
  Zn  Zn144  1  0.93258287  0.43434130  0.68717606  1
  Zn  Zn145  1  0.93498078  0.93843797  0.18994717  1
  Zn  Zn146  1  0.93821916  0.93759272  0.69188175  1
  Zn  Zn147  1  0.05330702  0.06593665  0.32149404  1
  Zn  Zn148  1  0.06223256  0.05967388  0.80659141  1
  Zn  Zn149  1  0.06280742  0.57271525  0.30764343  1
  Zn  Zn150  1  0.05850833  0.56112803  0.81457954  1
  Zn  Zn151  1  0.56076377  0.06262224  0.31432598  1
  Zn  Zn152  1  0.56980835  0.06633978  0.81245607  1
  Zn  Zn153  1  0.57159242  0.56251236  0.31181626  1
  Zn  Zn154  1  0.56492979  0.55962522  0.81219621  1
  Zn  Zn155  1  0.43967774  0.19037839  0.44526807  1
  Zn  Zn156  1  0.43658731  0.18707706  0.94255783  1
  Zn  Zn157  1  0.42656945  0.67304780  0.30318388  1
  Zn  Zn158  1  0.44535569  0.68784429  0.93965156  1
  Zn  Zn159  1  0.93447824  0.18271946  0.44318631  1
  Zn  Zn160  1  0.92733122  0.18688349  0.93701826  1
  Zn  Zn161  1  0.93676167  0.68584985  0.44584288  1
  Zn  Zn162  1  0.93820448  0.68896453  0.93505019  1
  Zn  Zn163  1  0.06684243  0.30188101  0.06280508  1
  Zn  Zn164  1  0.05745631  0.31388765  0.56404629  1
  Zn  Zn165  1  0.06869999  0.83102889  0.06463416  1
  Zn  Zn166  1  0.06678513  0.80997199  0.56229376  1
  Zn  Zn167  1  0.56424161  0.31283865  0.06596385  1
  Zn  Zn168  1  0.56304763  0.31506060  0.56417395  1
  Zn  Zn169  1  0.56378168  0.81762785  0.06254627  1
  Zn  Zn170  1  0.56651938  0.80491329  0.56073748  1
  O  O171  1  0.09990782  0.13559265  0.12846775  1
  O  O172  1  0.11933810  0.11889351  0.61975184  1
  O  O173  1  0.10500856  0.61490009  0.12545364  1
  O  O174  1  0.12421863  0.60972968  0.63020783  1
  O  O175  1  0.62162176  0.11213046  0.12835250  1
  O  O176  1  0.61925480  0.12489081  0.61725282  1
  O  O177  1  0.62426573  0.61641206  0.11891881  1
  O  O178  1  0.61430993  0.63077432  0.61854645  1
  O  O179  1  0.37349424  0.36901709  0.39307533  1
  O  O180  1  0.38265675  0.38169785  0.88150397  1
  O  O181  1  0.36779658  0.89879492  0.38195905  1
  O  O182  1  0.38238315  0.88447797  0.87838028  1
  O  O183  1  0.87383933  0.38618777  0.37769685  1
  O  O184  1  0.87751549  0.37856856  0.88221022  1
  O  O185  1  0.88155549  0.88576889  0.37440342  1
  O  O186  1  0.89380876  0.86645460  0.87632333  1
  O  O187  1  0.26399150  0.01833305  0.37624976  1
  O  O188  1  0.25805436  0.01001459  0.86506906  1
  O  O189  1  0.24213995  0.49378000  0.35694351  1
  O  O190  1  0.25912700  0.49202786  0.86340677  1
  O  O191  1  0.75600516  0.00433577  0.37401470  1
  O  O192  1  0.74831191  0.01064988  0.87104291  1
  O  O193  1  0.76195006  0.51138398  0.36908493  1
  O  O194  1  0.76308010  0.49845244  0.87978943  1
  O  O195  1  0.23589703  0.48602436  0.13742074  1
  O  O196  1  0.24378611  0.49306960  0.64071154  1
  O  O197  1  0.22563330  1.05865786  0.10180245  1
  O  O198  1  0.24943178  0.99201897  0.62651733  1
  O  O199  1  0.74749239  0.49534138  0.13007187  1
  O  O200  1  0.75613933  0.48529757  0.62594211  1
  O  O201  1  0.74261172  0.99698350  0.12990937  1
  O  O202  1  0.74526956  0.98930257  0.62765772  1
  O  O203  1  0.00093685  0.36295552  0.25683975  1
  O  O204  1  0.00402712  0.36669836  0.75392691  1
  O  O205  1  -0.00818185  0.87483488  0.26482701  1
  O  O206  1  0.01047634  0.86618500  0.75511139  1
  O  O207  1  0.51190527  0.36860339  0.25574288  1
  O  O208  1  0.50940708  0.37977435  0.75908719  1
  O  O209  1  0.51296752  0.88191272  0.25027306  1
  O  O210  1  0.50623073  0.86975268  0.75552310  1
  O  O211  1  0.50912532  0.13463783  0.23791036  1
  O  O212  1  0.49708069  0.11824934  0.73562076  1
  O  O213  1  0.50634166  0.61806138  0.23646762  1
  O  O214  1  0.49671999  0.63210607  0.74604759  1
  O  O215  1  0.98837931  0.13152258  0.24431144  1
  O  O216  1  1.00589665  0.13117475  0.73441483  1
  O  O217  1  0.98518586  0.62281088  0.23820160  1
  O  O218  1  0.99234604  0.63214827  0.75066305  1
  O  O219  1  0.37672589  0.26438364  0.00896779  1
  O  O220  1  0.36973939  0.25797626  0.51361746  1
  O  O221  1  0.37421370  0.76608637  -0.01370049  1
  O  O222  1  0.36169849  0.74076524  0.51800791  1
  O  O223  1  0.87116170  0.25797899  0.01147887  1
  O  O224  1  0.87801589  0.25139973  0.51493821  1
  O  O225  1  0.86331351  0.75140687  0.00295233  1
  O  O226  1  0.86452439  0.73911948  0.50934822  1
  O  O227  1  0.12650719  0.24026531  0.49937952  1
  O  O228  1  0.13309543  0.22503415  1.00260347  1
  O  O229  1  0.13246330  0.73056035  0.51178718  1
  O  O230  1  0.11766336  0.74992131  0.98401066  1
  O  O231  1  0.62105353  0.23618948  0.50068349  1
  O  O232  1  0.63571558  0.27589613  0.99218318  1
  O  O233  1  0.63145985  0.73735327  0.49628610  1
  O  O234  1  0.63682606  0.74808568  0.99567108  1
  O  O235  1  0.49554912  0.24571844  0.13167469  1
  O  O236  1  0.49174657  0.24204729  0.62306291  1
  O  O237  1  0.50937675  0.73344274  0.11676079  1
  O  O238  1  0.49191711  0.74419187  0.63120547  1
  O  O239  1  0.98794249  0.24528389  0.13364074  1
  O  O240  1  0.99176284  0.24072694  0.63027014  1
  O  O241  1  0.98178425  0.73952472  0.11067501  1
  O  O242  1  1.00160987  0.74955591  0.63892715  1
  O  O243  1  0.00517799  0.24444143  0.37140268  1
  O  O244  1  -0.00138026  0.25095620  0.86705469  1
  O  O245  1  -0.01006030  0.76387399  0.37838972  1
  O  O246  1  0.00884549  0.75419058  0.86531098  1
  O  O247  1  0.49413559  0.25029833  0.36258771  1
  O  O248  1  0.49681367  0.26314052  0.87977681  1
  O  O249  1  0.49438888  0.73932774  0.37254379  1
  O  O250  1  0.50951952  0.75692610  0.86967731  1
  O  O251  1  0.24141988  0.13190976  0.49865878  1
  O  O252  1  0.25823265  0.13194663  0.97940155  1
  O  O253  1  0.23672887  0.62939627  0.51165909  1
  O  O254  1  0.26024785  0.59344775  1.00604377  1
  O  O255  1  0.73344750  0.11836048  0.49603655  1
  O  O256  1  0.74865631  0.12398046  0.98583630  1
  O  O257  1  0.74302003  0.62424656  0.49187270  1
  O  O258  1  0.74581142  0.63357908  0.99693724  1
  O  O259  1  0.26131535  0.38426184  0.00837192  1
  O  O260  1  0.25535078  0.37085879  0.50999454  1
  O  O261  1  0.26662998  0.88631026  -0.00770426  1
  O  O262  1  0.24407217  0.86022582  0.51566678  1
  O  O263  1  0.76623330  0.38011676  0.00967545  1
  O  O264  1  0.74907884  0.37541511  0.51418957  1
  O  O265  1  0.74973049  0.86863159  0.00762281  1
  O  O266  1  0.74095693  0.87708012  0.51550812  1
  O  O267  1  0.11463267  0.49503688  0.23854099  1
  O  O268  1  0.12979029  0.49277384  0.75020545  1
  O  O269  1  0.12644403  1.01150614  0.25980445  1
  O  O270  1  0.13461250  0.99264382  0.74159462  1
  O  O271  1  0.63594461  0.49258647  0.24505183  1
  O  O272  1  0.62851776  0.48454113  0.75480482  1
  O  O273  1  0.62943887  0.99309975  0.24562533  1
  O  O274  1  0.62061105  0.98619880  0.74575164  1
  O  O275  1  0.38288125  0.00155899  0.26588069  1
  O  O276  1  0.37238380  0.00641220  0.75344505  1
  O  O277  1  0.36989814  0.48609961  0.25693916  1
  O  O278  1  0.36705048  0.50731460  0.75614907  1
  O  O279  1  0.86625552  0.00522505  0.25965921  1
  O  O280  1  0.87440301  -0.00586617  0.75964651  1
  O  O281  1  0.86981659  0.50779843  0.25462307  1
  O  O282  1  0.87312245  0.50542088  0.76000564  1
  O  O283  1  0.12425881  0.35890992  0.37948364  1
  O  O284  1  0.11523487  0.36694231  0.86216295  1
  O  O285  1  0.11616752  0.86071916  0.36274791  1
  O  O286  1  0.11852448  0.86996424  0.86829709  1
  O  O287  1  0.62903448  0.38030072  0.36472152  1
  O  O288  1  0.61522129  0.37627708  0.86452937  1
  O  O289  1  0.63044402  0.87202861  0.36055803  1
  O  O290  1  0.62000775  0.87115236  0.86877111  1
  O  O291  1  0.38705037  0.13982185  0.12411105  1
  O  O292  1  0.38281907  0.13431542  0.62868610  1
  O  O293  1  0.39942076  0.61865375  0.12025685  1
  O  O294  1  0.38240475  0.63128986  0.63976937  1
  O  O295  1  0.87855641  0.13179745  0.13196523  1
  O  O296  1  0.88125604  0.13168398  0.62077034  1
  O  O297  1  0.87855929  0.62996696  0.13128746  1
  O  O298  1  0.87773720  0.62168473  0.63997737  1
  O  O299  1  0.26184142  0.26525766  0.11889712  1
  O  O300  1  0.25554292  0.25620095  0.62227987  1
  O  O301  1  0.25723649  0.72093354  0.10351508  1
  O  O302  1  0.25658775  0.75522007  0.62534868  1
  O  O303  1  0.76156566  0.25297783  0.12850436  1
  O  O304  1  0.75872980  0.25726332  0.63330581  1
  O  O305  1  0.75761760  0.75456734  0.11604402  1
  O  O306  1  0.75106918  0.76644676  0.62795513  1
  O  O307  1  0.24360441  0.24427755  0.38589588  1
  O  O308  1  0.24746872  0.24486489  0.87359444  1
  O  O309  1  0.24187352  0.75070872  0.39274439  1
  O  O310  1  0.23586619  0.74907438  0.88042081  1
  O  O311  1  0.75831195  0.23384574  0.37299834  1
  O  O312  1  0.74930178  0.24026759  0.87749003  1
  O  O313  1  0.75193493  0.73840833  0.37227853  1
  O  O314  1  0.74564463  0.75272100  0.88140395  1
  O  O315  1  -0.00872916  0.12825493  0.01678965  1
  O  O316  1  0.00697218  0.11820529  0.51139894  1
  O  O317  1  -0.01204954  0.61147079  0.00670443  1
  O  O318  1  0.01411190  0.61972390  0.50687985  1
  O  O319  1  0.49687354  0.11689779  0.01309677  1
  O  O320  1  0.50948797  0.12331272  0.50960820  1
  O  O321  1  0.51015558  0.61566988  0.00536746  1
  O  O322  1  0.50365551  0.61597691  0.51026496  1
  O  O323  1  0.49054219  0.37238625  0.49891411  1
  O  O324  1  0.49564661  0.38245333  0.99460493  1
  O  O325  1  0.50387379  0.88957408  0.50597352  1
  O  O326  1  0.49227991  0.88221870  0.99448652  1
  O  O327  1  0.99552931  0.37967610  0.49655454  1
  O  O328  1  0.99105860  0.37491314  0.99657437  1
  O  O329  1  1.01084018  0.88423442  0.49237304  1
  O  O330  1  1.00351434  0.88144113  0.99082177  1
  O  O331  1  0.50042215  0.50108671  0.38202774  1
  O  O332  1  0.49587617  0.49398840  0.88350984  1
  O  O333  1  0.48857633  1.00951105  0.38699827  1
  O  O334  1  0.49797078  0.99859105  0.88306214  1
  O  O335  1  0.98788707  0.50243749  0.37145829  1
  O  O336  1  0.99062374  0.49156312  0.88218348  1
  O  O337  1  0.99048790  0.99255832  0.38550020  1
  O  O338  1  1.00325991  0.99061193  0.87399149  1
  O  O339  1  -0.00675526  0.01387354  0.12454211  1
  O  O340  1  0.00465031  0.00346882  0.61923412  1
  O  O341  1  0.00022801  0.50381623  0.11811942  1
  O  O342  1  0.00874762  0.49899770  0.62876559  1
  O  O343  1  0.50517419  0.00916652  0.12041449  1
  O  O344  1  0.49927615  0.00870127  0.61323188  1
  O  O345  1  0.51128905  0.50211839  0.11690718  1
  O  O346  1  0.49681793  0.51321451  0.63506048  1
  O  O347  1  0.24527037  0.37828921  0.24289455  1
  O  O348  1  0.24015869  0.37984861  0.74676220  1
  O  O349  1  0.23994253  0.84980905  0.26127647  1
  O  O350  1  0.24556086  0.87952912  0.74516418  1
  O  O351  1  0.74674084  0.37940365  0.24492639  1
  O  O352  1  0.74081274  0.37911287  0.74153922  1
  O  O353  1  0.74309130  0.88222607  0.24334242  1
  O  O354  1  0.74149592  0.87768805  0.74129638  1
  O  O355  1  0.25455132  0.14392127  0.27003174  1
  O  O356  1  0.26161938  0.12074281  0.74924428  1
  O  O357  1  0.26153607  0.59863617  0.23403932  1
  O  O358  1  0.26032899  0.61581626  0.74845935  1
  O  O359  1  0.75201831  0.11790434  0.26006531  1
  O  O360  1  0.74103183  0.12195341  0.76319490  1
  O  O361  1  0.75819361  0.62063787  0.25528956  1
  O  O362  1  0.75671150  0.62263177  0.75272882  1
  O  O363  1  0.36349275  0.12717986  0.38445136  1
  O  O364  1  0.37217138  0.12236679  0.86624904  1
  O  O365  1  0.38249690  0.60904473  0.39200996  1
  O  O366  1  0.38524729  0.62069634  0.86402443  1
  O  O367  1  0.86824066  0.11332168  0.37464192  1
  O  O368  1  0.85787955  0.12684993  0.87328509  1
  O  O369  1  0.87195483  0.62082969  0.36650544  1
  O  O370  1  0.87451833  0.61657089  0.86496801  1
  O  O371  1  0.13115474  0.37692625  0.12652476  1
  O  O372  1  0.12764390  0.38371014  0.63602953  1
  O  O373  1  0.12609558  0.82930220  0.15368188  1
  O  O374  1  0.13343123  0.87993733  0.63178327  1
  O  O375  1  0.63249476  0.38307175  0.13610721  1
  O  O376  1  0.63687911  0.37063974  0.63296598  1
  O  O377  1  0.62848006  0.88552640  0.13474413  1
  O  O378  1  0.63108418  0.87471122  0.63306242  1
  O  O379  1  0.10964387  0.24842644  0.26327802  1
  O  O380  1  0.11152759  0.25761266  0.74582830  1
  O  O381  1  0.13492563  0.71322510  0.26973537  1
  O  O382  1  0.12016584  0.75362359  0.75781617  1
  O  O383  1  0.61640921  0.26030658  0.24479109  1
  O  O384  1  0.62512039  0.26927944  0.75669680  1
  O  O385  1  0.62987750  0.76629447  0.24823367  1
  O  O386  1  0.62052224  0.76025816  0.75560040  1
  O  O387  1  0.38562986  0.26197318  0.23789762  1
  O  O388  1  0.37197643  0.24788812  0.73801173  1
  O  O389  1  0.37927850  0.76039873  0.25415543  1
  O  O390  1  0.37935303  0.74329947  0.74849803  1
  O  O391  1  0.88235522  0.24440205  0.24604371  1
  O  O392  1  0.88731650  0.25534897  0.73914377  1
  O  O393  1  0.86735066  0.74160669  0.23817501  1
  O  O394  1  0.88443278  0.74178351  0.74846845  1
  O  O395  1  0.37764554  0.49599157  0.50663001  1
  O  O396  1  0.39232167  0.48856089  0.99628049  1
  O  O397  1  0.39088488  1.00866937  0.49387587  1
  O  O398  1  0.38811351  0.99284575  0.99439233  1
  O  O399  1  0.87799289  0.50097251  0.49008322  1
  O  O400  1  0.88458643  0.49160874  0.99484494  1
  O  O401  1  0.88597910  1.00356463  0.49439635  1
  O  O402  1  0.88080133  0.99592729  0.99073615  1
  O  O403  1  0.12123922  0.02428401  -0.01234075  1
  O  O404  1  0.11564481  0.01318668  0.50626426  1
  O  O405  1  0.10916925  0.49083836  0.01357285  1
  O  O406  1  0.12725911  0.50649891  0.51335194  1
  O  O407  1  0.61182874  -0.00906593  0.01109202  1
  O  O408  1  0.60888527  0.00943749  0.50039602  1
  O  O409  1  0.61871836  0.50053030  0.00398416  1
  O  O410  1  0.62884533  0.51452622  0.49844206  1
  O  O411  1  0.37202323  0.37305418  0.11832584  1
  O  O412  1  0.37095687  0.36944051  0.62164947  1
  O  O413  1  0.37192672  0.87725898  0.11062964  1
  O  O414  1  0.36666203  0.86338525  0.63331604  1
  O  O415  1  0.87255669  0.36753049  0.12092639  1
  O  O416  1  0.86094021  0.36645723  0.62428783  1
  O  O417  1  0.86845343  0.86749054  0.12385311  1
  O  O418  1  0.86103789  0.87518150  0.62820149  1
  O  O419  1  0.13296983  0.13449699  0.38622226  1
  O  O420  1  0.14184763  0.12746301  0.85784874  1
  O  O421  1  0.12440037  0.61366808  0.39412642  1
  O  O422  1  0.12061241  0.63607155  0.87433877  1
  O  O423  1  0.63136244  0.12245527  0.38803554  1
  O  O424  1  0.63545009  0.13006908  0.87639431  1
  O  O425  1  0.63661736  0.62652382  0.38100159  1
  O  O426  1  0.62648820  0.63352637  0.88217546  1
