# generated using pymatgen
data_V85Zn86O256
_symmetry_space_group_name_H-M   'P 1'
_cell_length_a   16.94007790
_cell_length_b   16.94110003
_cell_length_c   16.94315896
_cell_angle_alpha   90.00668395
_cell_angle_beta   89.93576382
_cell_angle_gamma   89.94291671
_symmetry_Int_Tables_number   1
_chemical_formula_structural   V85Zn86O256
_chemical_formula_sum   'V85 Zn86 O256'
_cell_volume   4862.40247543
_cell_formula_units_Z   1
loop_
 _symmetry_equiv_pos_site_id
 _symmetry_equiv_pos_as_xyz
  1  'x, y, z'
loop_
 _atom_site_type_symbol
 _atom_site_label
 _atom_site_symmetry_multiplicity
 _atom_site_fract_x
 _atom_site_fract_y
 _atom_site_fract_z
 _atom_site_occupancy
  V  V0  1  0.62079053  0.11533635  0.50431084  1
  V  V1  1  0.24910688  0.87699189  0.62023791  1
  V  V2  1  0.88033085  0.25544418  0.61840405  1
  V  V3  1  0.12694257  0.24378918  0.37091114  1
  V  V4  1  0.62339120  -0.00102094  0.12626443  1
  V  V5  1  0.24540548  0.00185813  0.74933686  1
  V  V6  1  0.37269276  0.62287844  0.74952041  1
  V  V7  1  0.36797346  0.12895415  0.25916106  1
  V  V8  1  0.75153273  0.74708450  0.00448454  1
  V  V9  1  0.62497548  0.49647464  0.11894289  1
  V  V10  1  0.12709704  0.49782476  0.62670895  1
  V  V11  1  0.23894901  0.12937853  0.87508692  1
  V  V12  1  0.87548031  0.62502172  0.74925759  1
  V  V13  1  0.75647837  0.74648283  0.48922784  1
  V  V14  1  0.62978466  0.49986863  0.62414588  1
  V  V15  1  0.24977650  0.24326357  0.49519968  1
  V  V16  1  0.00044358  0.62431022  0.62515525  1
  V  V17  1  0.26247391  0.75497259  -0.00027802  1
  V  V18  1  0.25383714  0.49984102  0.25888201  1
  V  V19  1  0.62180589  0.37317244  0.24852845  1
  V  V20  1  0.75293103  0.62219118  0.87438248  1
  V  V21  1  0.88060890  0.00549140  0.37879467  1
  V  V22  1  0.49882214  0.87159179  0.88310020  1
  V  V23  1  0.49664205  0.49588152  0.48603811  1
  V  V24  1  0.38377085  0.24914976  0.62462354  1
  V  V25  1  0.75867313  0.36982315  0.12032538  1
  V  V26  1  0.38015060  0.12931164  0.74959609  1
  V  V27  1  0.11654858  0.11964491  0.49379079  1
  V  V28  1  0.61997175  0.24306553  0.87020365  1
  V  V29  1  0.25741877  0.37830085  0.12325519  1
  V  V30  1  0.25116741  0.25596047  -0.00400857  1
  V  V31  1  0.12288203  0.37814778  0.25118195  1
  V  V32  1  0.62572756  0.62497142  0.48999137  1
  V  V33  1  0.43427445  0.93346147  0.54503805  1
  V  V34  1  0.88393284  0.88226054  0.50324716  1
  V  V35  1  0.00357715  0.87684693  0.37352174  1
  V  V36  1  0.49653453  0.12698204  0.12354791  1
  V  V37  1  0.62506426  0.88090245  0.74729775  1
  V  V38  1  -0.00529896  0.25208134  0.24023074  1
  V  V39  1  0.37703500  0.37657477  0.48449793  1
  V  V40  1  0.62181602  0.87714610  0.26045092  1
  V  V41  1  0.25503832  0.50014675  0.75041368  1
  V  V42  1  0.75090944  0.50809745  0.25706813  1
  V  V43  1  0.00017518  0.24972481  0.76511829  1
  V  V44  1  0.62563085  0.62240080  -0.00033155  1
  V  V45  1  0.00104681  0.87464725  0.87631149  1
  V  V46  1  0.37731819  0.62710491  0.25135122  1
  V  V47  1  0.87334751  0.75063969  0.62555005  1
  V  V48  1  0.49840565  0.62993025  0.12479930  1
  V  V49  1  0.49069064  0.37936926  0.88087892  1
  V  V50  1  0.11902082  0.62802168  0.00600100  1
  V  V51  1  0.87313423  0.12853627  0.24103010  1
  V  V52  1  0.12218648  0.36944366  0.76105425  1
  V  V53  1  0.88182025  0.49016434  0.87411374  1
  V  V54  1  0.87775169  0.87430777  0.00222110  1
  V  V55  1  0.12539335  0.87371120  0.74935888  1
  V  V56  1  0.75140048  0.25773233  0.49977745  1
  V  V57  1  0.62294320  0.25197026  0.37697511  1
  V  V58  1  0.88953066  0.73718687  0.13735750  1
  V  V59  1  0.37744261  0.75045983  0.62080726  1
  V  V60  1  0.12268172  0.00088845  0.12145170  1
  V  V61  1  0.11432871  -0.00107096  0.61914430  1
  V  V62  1  0.12673954  0.62249329  0.50144989  1
  V  V63  1  0.74657527  0.88482741  0.62405129  1
  V  V64  1  0.75020954  0.00263709  0.25073768  1
  V  V65  1  0.12214051  0.86972393  0.24674551  1
  V  V66  1  0.37864911  -0.01802117  0.37028749  1
  V  V67  1  0.26282400  0.87464037  0.12266473  1
  V  V68  1  -0.01374538  0.37382227  0.37784408  1
  V  V69  1  0.25344316  0.75537637  0.49734704  1
  V  V70  1  0.30531996  0.56882095  0.92043216  1
  V  V71  1  0.62004548  0.37349691  0.75080382  1
  V  V72  1  -0.01051323  0.49209360  0.50159116  1
  V  V73  1  0.50192194  0.74658758  0.75031926  1
  V  V74  1  0.75468172  0.24156510  -0.00539705  1
  V  V75  1  0.49955584  0.25230864  0.25295827  1
  V  V76  1  0.13082401  0.74379637  0.87540368  1
  V  V77  1  0.50060205  0.62034703  0.62419931  1
  V  V78  1  0.37083940  -0.00147328  0.87940707  1
  V  V79  1  0.75090853  0.87309589  0.12761169  1
  V  V80  1  0.49721857  0.75439736  0.25495809  1
  V  V81  1  -0.00127777  0.49713907  0.00631019  1
  V  V82  1  0.25858636  0.62296185  0.37863391  1
  V  V83  1  0.49402701  -0.00187589  0.00151681  1
  V  V84  1  0.25133756  0.37050760  0.62415867  1
  Zn  Zn85  1  0.75257244  0.37816354  0.62348289  1
  Zn  Zn86  1  0.88334910  0.36637633  -0.00282780  1
  Zn  Zn87  1  0.12040371  0.74441892  0.36798190  1
  Zn  Zn88  1  0.47993906  0.49768374  0.00033551  1
  Zn  Zn89  1  0.86259071  0.00450818  0.87324182  1
  Zn  Zn90  1  0.62722363  0.74716031  0.87316215  1
  Zn  Zn91  1  0.86335641  0.12646251  0.75296509  1
  Zn  Zn92  1  -0.00215339  0.00578542  -0.00089122  1
  Zn  Zn93  1  0.74431786  0.01170394  0.75571155  1
  Zn  Zn94  1  -0.00099166  0.12761969  0.12214445  1
  Zn  Zn95  1  0.50083914  0.11588994  0.62156560  1
  Zn  Zn96  1  0.89599286  0.55693857  0.33948884  1
  Zn  Zn97  1  0.11831111  0.50874472  0.13293902  1
  Zn  Zn98  1  0.37866612  0.25821244  0.11891368  1
  Zn  Zn99  1  0.12161461  0.13251412  -0.00120856  1
  Zn  Zn100  1  0.62576182  0.12198434  -0.00458669  1
  Zn  Zn101  1  0.62634341  0.75103869  0.37373715  1
  Zn  Zn102  1  0.75142747  0.49830785  0.74830239  1
  Zn  Zn103  1  0.75029398  0.12704479  0.37625474  1
  Zn  Zn104  1  0.24568162  0.00509733  0.25376325  1
  Zn  Zn105  1  0.00014416  0.74862428  0.75136831  1
  Zn  Zn106  1  -0.00452424  0.12356691  0.62299153  1
  Zn  Zn107  1  0.18712647  0.19164104  0.18155403  1
  Zn  Zn108  1  0.18439192  0.18614747  0.68593126  1
  Zn  Zn109  1  0.19027549  0.69237215  0.18628602  1
  Zn  Zn110  1  0.19061696  0.68717388  0.68801718  1
  Zn  Zn111  1  0.68680424  0.18717312  0.18210596  1
  Zn  Zn112  1  0.68678569  0.18820613  0.68320238  1
  Zn  Zn113  1  0.68650830  0.68791093  0.18793592  1
  Zn  Zn114  1  0.68924748  0.68864523  0.68369694  1
  Zn  Zn115  1  0.31021622  0.30934629  0.30957258  1
  Zn  Zn116  1  0.31130382  0.31035032  0.81116622  1
  Zn  Zn117  1  0.30794528  0.80998626  0.30694700  1
  Zn  Zn118  1  0.31307750  0.81251126  0.81234680  1
  Zn  Zn119  1  0.80778484  0.31274229  0.30919138  1
  Zn  Zn120  1  0.80740403  0.30802232  0.80805659  1
  Zn  Zn121  1  0.81609901  0.81629927  0.31246250  1
  Zn  Zn122  1  0.80931835  0.82043833  0.81512257  1
  Zn  Zn123  1  0.18507000  0.43359654  0.43656461  1
  Zn  Zn124  1  0.17837525  0.43249337  0.94327107  1
  Zn  Zn125  1  0.19347608  0.94237393  0.43153622  1
  Zn  Zn126  1  0.18640875  0.93554242  0.94042588  1
  Zn  Zn127  1  0.68159706  0.43431756  0.43564300  1
  Zn  Zn128  1  0.68868103  0.43300922  0.93516010  1
  Zn  Zn129  1  0.69514720  0.93830145  0.43782202  1
  Zn  Zn130  1  0.68248175  0.93443424  0.93923495  1
  Zn  Zn131  1  0.30997531  0.06514942  0.06355884  1
  Zn  Zn132  1  0.30451486  0.06677721  0.56128286  1
  Zn  Zn133  1  0.30538285  0.56955009  0.08315032  1
  Zn  Zn134  1  0.31567993  0.55945555  0.56237100  1
  Zn  Zn135  1  0.81244852  0.06097258  0.06034012  1
  Zn  Zn136  1  0.80942021  0.07068356  0.56531024  1
  Zn  Zn137  1  0.81475290  0.55966201  0.06634457  1
  Zn  Zn138  1  0.82258063  0.57223506  0.53394921  1
  Zn  Zn139  1  0.43871235  0.44350895  0.19179110  1
  Zn  Zn140  1  0.44006236  0.43465691  0.68580783  1
  Zn  Zn141  1  0.43768092  0.94046456  0.19196494  1
  Zn  Zn142  1  0.43642947  0.93818518  0.70757151  1
  Zn  Zn143  1  0.93522159  0.43928417  0.18577627  1
  Zn  Zn144  1  0.93857622  0.43449921  0.68786975  1
  Zn  Zn145  1  0.93840387  0.93587986  0.18854323  1
  Zn  Zn146  1  0.93563633  0.93763156  0.69312787  1
  Zn  Zn147  1  0.06067450  0.06115524  0.30716075  1
  Zn  Zn148  1  0.05167734  0.06298999  0.81106893  1
  Zn  Zn149  1  0.06489075  0.56471757  0.31764459  1
  Zn  Zn150  1  0.06372852  0.56121012  0.81549505  1
  Zn  Zn151  1  0.55802950  0.06443198  0.31764463  1
  Zn  Zn152  1  0.56058452  0.06125582  0.81100115  1
  Zn  Zn153  1  0.56564046  0.56108638  0.30972988  1
  Zn  Zn154  1  0.56193831  0.55709735  0.81397389  1
  Zn  Zn155  1  0.44064104  0.18735464  0.43711210  1
  Zn  Zn156  1  0.43507862  0.19032387  0.93681344  1
  Zn  Zn157  1  0.43935602  0.69010882  0.43676435  1
  Zn  Zn158  1  0.44338167  0.68960393  0.94183375  1
  Zn  Zn159  1  0.93810527  0.19034238  0.43403087  1
  Zn  Zn160  1  0.93679280  0.18245268  0.93684961  1
  Zn  Zn161  1  0.94289462  0.68385485  0.41764682  1
  Zn  Zn162  1  0.93895776  0.68743207  0.94048510  1
  Zn  Zn163  1  0.06954375  0.31678164  0.06129117  1
  Zn  Zn164  1  0.06501055  0.31117299  0.56299462  1
  Zn  Zn165  1  0.06433340  0.81147368  0.06394904  1
  Zn  Zn166  1  0.06098500  0.81088445  0.55870738  1
  Zn  Zn167  1  0.56392185  0.31197639  0.05631081  1
  Zn  Zn168  1  0.56197947  0.31481234  0.55984635  1
  Zn  Zn169  1  0.56399134  0.81137025  0.06618634  1
  Zn  Zn170  1  0.56873999  0.80733685  0.56346437  1
  O  O171  1  0.12501806  0.11300967  0.12712003  1
  O  O172  1  0.12466393  0.11498594  0.61415846  1
  O  O173  1  0.13324014  0.62623230  0.11117671  1
  O  O174  1  0.12245696  0.61914293  0.62052155  1
  O  O175  1  0.61118184  0.11717761  0.12476920  1
  O  O176  1  0.61865867  0.12994487  0.60932462  1
  O  O177  1  0.61908190  0.61615422  0.12040344  1
  O  O178  1  0.61593302  0.61832108  0.62080972  1
  O  O179  1  0.36998641  0.37077059  0.38545756  1
  O  O180  1  0.39275244  0.36874844  0.86625665  1
  O  O181  1  0.37782394  0.88247556  0.36433169  1
  O  O182  1  0.38432903  0.88927200  0.86667971  1
  O  O183  1  0.88686200  0.36665413  0.37331849  1
  O  O184  1  0.86779109  0.38823367  0.87382019  1
  O  O185  1  0.88259477  0.88348883  0.38285884  1
  O  O186  1  0.88684699  0.86738968  0.88567762  1
  O  O187  1  0.26954408  0.00042480  0.36971650  1
  O  O188  1  0.25616570  0.00395162  0.87259808  1
  O  O189  1  0.24673783  0.50612423  0.36672794  1
  O  O190  1  0.24624704  0.49850739  0.86883521  1
  O  O191  1  0.76226999  0.00261813  0.36666567  1
  O  O192  1  0.75353604  -0.03027950  0.86403228  1
  O  O193  1  0.73952297  0.49151719  0.35581734  1
  O  O194  1  0.75815614  0.51129561  0.87683044  1
  O  O195  1  0.24218201  0.49586130  0.14198361  1
  O  O196  1  0.24662672  0.49117170  0.63119322  1
  O  O197  1  0.24318622  0.98970954  0.12567442  1
  O  O198  1  0.24209996  0.99350970  0.62834582  1
  O  O199  1  0.74259776  0.49049440  0.13078711  1
  O  O200  1  0.73631372  0.50081423  0.61952116  1
  O  O201  1  0.74358933  0.99469623  0.13066246  1
  O  O202  1  0.75188146  0.98664846  0.62422163  1
  O  O203  1  0.00473055  0.37207768  0.25576824  1
  O  O204  1  0.01039203  0.36206976  0.74382138  1
  O  O205  1  0.00838809  0.87859461  0.26131012  1
  O  O206  1  0.00804559  0.86943244  0.75758515  1
  O  O207  1  0.51206356  0.36776675  0.24086029  1
  O  O208  1  0.51214368  0.38159751  0.75959969  1
  O  O209  1  0.50887833  0.86578307  0.24177756  1
  O  O210  1  0.50628838  0.86598725  0.75870411  1
  O  O211  1  0.49187727  0.13332871  0.24327953  1
  O  O212  1  0.48436069  0.11384392  0.74197736  1
  O  O213  1  0.49508371  0.62800717  0.24455458  1
  O  O214  1  0.49411167  0.62696894  0.74566061  1
  O  O215  1  0.99181440  0.13539287  0.24742427  1
  O  O216  1  1.00602358  0.14258424  0.74269266  1
  O  O217  1  0.97903786  0.63316620  0.31492344  1
  O  O218  1  0.99549282  0.62650254  0.74270183  1
  O  O219  1  0.35987310  0.24499182  0.00429263  1
  O  O220  1  0.36728233  0.25439814  0.50340513  1
  O  O221  1  0.36184732  0.74596029  -0.00311886  1
  O  O222  1  0.36512228  0.74498338  0.50660901  1
  O  O223  1  0.85921926  0.25094344  -0.00803564  1
  O  O224  1  0.86776576  0.24664758  0.50888313  1
  O  O225  1  0.86917894  0.75702914  0.00838704  1
  O  O226  1  0.87034648  0.76212125  0.50742880  1
  O  O227  1  0.13148425  0.24378873  0.49109754  1
  O  O228  1  0.14244451  0.24886179  1.00602435  1
  O  O229  1  0.13470308  0.73544935  0.50471852  1
  O  O230  1  0.13332924  0.74367386  0.99440455  1
  O  O231  1  0.62872092  0.24746323  0.49135714  1
  O  O232  1  0.63180271  0.24706537  0.98729917  1
  O  O233  1  0.63277773  0.74274896  0.49426180  1
  O  O234  1  0.63428815  0.74161770  0.99972177  1
  O  O235  1  0.49989243  0.24361728  0.13136931  1
  O  O236  1  0.48565699  0.24964900  0.62020723  1
  O  O237  1  0.50761576  0.73665243  0.13515677  1
  O  O238  1  0.49531795  0.74139425  0.62915975  1
  O  O239  1  1.00530338  0.25419751  0.13771015  1
  O  O240  1  0.98866229  0.24987397  0.62226203  1
  O  O241  1  0.98875385  0.75067344  0.12408845  1
  O  O242  1  0.98881374  0.74461915  0.62391648  1
  O  O243  1  0.01016441  0.25644307  0.36627287  1
  O  O244  1  -0.00118462  0.25285723  0.86335051  1
  O  O245  1  0.00939660  0.77336801  0.39507736  1
  O  O246  1  0.01041248  0.75787011  0.87590585  1
  O  O247  1  0.50592388  0.24796954  0.36038166  1
  O  O248  1  0.51241682  0.26067886  0.88070323  1
  O  O249  1  0.50445373  0.74454571  0.35941396  1
  O  O250  1  0.50057265  0.75706482  0.86994132  1
  O  O251  1  0.24009639  0.13846191  0.49958292  1
  O  O252  1  0.24738455  0.13106375  0.99047980  1
  O  O253  1  0.24781217  0.62955457  0.49633635  1
  O  O254  1  0.24621157  0.62823475  0.99347502  1
  O  O255  1  0.73776099  0.13789188  0.49867051  1
  O  O256  1  0.74545776  0.13708179  1.00379821  1
  O  O257  1  0.73225410  0.63926099  0.51855939  1
  O  O258  1  0.74736469  0.62924577  0.99503366  1
  O  O259  1  0.24635386  0.37165701  0.01130743  1
  O  O260  1  0.25423992  0.36632513  0.50592843  1
  O  O261  1  0.24902054  0.86893452  0.01265163  1
  O  O262  1  0.24307617  0.86207017  0.50311849  1
  O  O263  1  0.75187064  0.36588061  0.00569399  1
  O  O264  1  0.74184939  0.36219952  0.50188684  1
  O  O265  1  0.75501462  0.86361019  0.00721392  1
  O  O266  1  0.75722517  0.86683338  0.50717633  1
  O  O267  1  0.12958021  0.49535102  0.25379242  1
  O  O268  1  0.13462622  0.49391647  0.74556755  1
  O  O269  1  0.12759667  0.99104892  0.24112010  1
  O  O270  1  0.12818150  0.99424882  0.74114105  1
  O  O271  1  0.62821453  0.49121647  0.23830768  1
  O  O272  1  0.62781041  0.49494515  0.74071251  1
  O  O273  1  0.62717599  0.99602085  0.24720714  1
  O  O274  1  0.62066536  0.98443699  0.75038369  1
  O  O275  1  0.37401599  0.01225642  0.25750062  1
  O  O276  1  0.36340296  0.00805126  0.75852828  1
  O  O277  1  0.36692814  0.51353173  0.25103469  1
  O  O278  1  0.36201670  0.50092460  0.74495490  1
  O  O279  1  0.87017270  0.00682216  0.25679161  1
  O  O280  1  0.86785709  0.00239721  0.75100357  1
  O  O281  1  0.85785731  0.49530750  0.25087543  1
  O  O282  1  0.87496357  0.50664080  0.75637903  1
  O  O283  1  0.11962173  0.36817295  0.36378094  1
  O  O284  1  0.12839532  0.37492008  0.85989894  1
  O  O285  1  0.11963715  0.88025527  0.36553793  1
  O  O286  1  0.12119629  0.86534820  0.87102079  1
  O  O287  1  0.62495140  0.36136393  0.36329992  1
  O  O288  1  0.61720019  0.36859382  0.86847271  1
  O  O289  1  0.62912951  0.87723491  0.36322680  1
  O  O290  1  0.61254456  0.86786235  0.86797366  1
  O  O291  1  0.38614810  0.12363115  0.13405309  1
  O  O292  1  0.37435047  0.13169482  0.62932856  1
  O  O293  1  0.38625087  0.62584283  0.13716184  1
  O  O294  1  0.38216219  0.62875047  0.63030813  1
  O  O295  1  0.87627691  0.11948538  0.13734620  1
  O  O296  1  0.87703805  0.13977790  0.62854690  1
  O  O297  1  0.87299572  0.63846071  0.12326444  1
  O  O298  1  0.87998162  0.63248905  0.62753646  1
  O  O299  1  0.25427672  0.26285513  0.12043793  1
  O  O300  1  0.25455308  0.25517978  0.61549001  1
  O  O301  1  0.24816290  0.76502903  0.11595996  1
  O  O302  1  0.25783793  0.75750753  0.61914402  1
  O  O303  1  0.73995182  0.25803666  0.10727293  1
  O  O304  1  0.76030940  0.25377655  0.61650428  1
  O  O305  1  0.75232855  0.75263271  0.11571463  1
  O  O306  1  0.76158377  0.75642486  0.61800673  1
  O  O307  1  0.23616831  0.25520711  0.38063311  1
  O  O308  1  0.25342830  0.24078307  0.88123206  1
  O  O309  1  0.24702722  0.74296555  0.38287529  1
  O  O310  1  0.24224913  0.75845398  0.88482060  1
  O  O311  1  0.74158641  0.24873926  0.38079582  1
  O  O312  1  0.73554948  0.25642985  0.88636090  1
  O  O313  1  0.75062368  0.75532188  0.38629385  1
  O  O314  1  0.75235243  0.73958625  0.88716017  1
  O  O315  1  0.00514807  0.12398739  0.00571801  1
  O  O316  1  0.01313963  0.12947392  0.50042647  1
  O  O317  1  0.00922263  0.61523912  -0.00231424  1
  O  O318  1  0.01242048  0.61390744  0.50665919  1
  O  O319  1  0.49951933  0.11726535  0.00713479  1
  O  O320  1  0.51450553  0.12821810  0.50038492  1
  O  O321  1  0.50663001  0.62095926  0.00773790  1
  O  O322  1  0.50645796  0.61934078  0.50541187  1
  O  O323  1  0.48917150  0.38315756  0.50172975  1
  O  O324  1  0.49884170  0.37941101  0.98817914  1
  O  O325  1  0.49681638  0.87233204  0.49800470  1
  O  O326  1  0.50239241  0.87895230  0.99130777  1
  O  O327  1  1.01452129  0.38231978  0.48863076  1
  O  O328  1  1.00111454  0.38989663  1.00237765  1
  O  O329  1  0.98828601  0.88192877  0.50034864  1
  O  O330  1  0.99252959  0.87353463  0.99446532  1
  O  O331  1  0.50382563  0.50220421  0.38656542  1
  O  O332  1  0.50213441  0.48625976  0.88164063  1
  O  O333  1  0.47755161  1.00761325  0.37541548  1
  O  O334  1  0.49337777  0.99317363  0.88268548  1
  O  O335  1  0.99636575  0.48762890  0.38615355  1
  O  O336  1  0.99191980  0.50436085  0.88698712  1
  O  O337  1  0.98836645  0.99421832  0.37292155  1
  O  O338  1  1.00485080  0.98265067  0.87844205  1
  O  O339  1  0.00984943  -0.00054611  0.12342626  1
  O  O340  1  0.01165930  0.00023752  0.62742043  1
  O  O341  1  -0.00024038  0.50217669  0.11309823  1
  O  O342  1  0.01106172  0.50293110  0.62326782  1
  O  O343  1  0.50190342  0.00494359  0.11823085  1
  O  O344  1  0.48507027  -0.00881686  0.61287207  1
  O  O345  1  0.50663796  0.50889052  0.12086235  1
  O  O346  1  0.50900443  0.50437657  0.61775854  1
  O  O347  1  0.24337831  0.38351370  0.24860934  1
  O  O348  1  0.24508464  0.37872856  0.74196589  1
  O  O349  1  0.24288269  0.87671960  0.23746668  1
  O  O350  1  0.24529846  0.88101585  0.74152357  1
  O  O351  1  0.73748949  0.37534239  0.23868765  1
  O  O352  1  0.73626799  0.37907470  0.74721560  1
  O  O353  1  0.74311188  0.88253667  0.24551866  1
  O  O354  1  0.73810735  0.86539202  0.73765850  1
  O  O355  1  0.26577205  0.12725639  0.24147376  1
  O  O356  1  0.25557714  0.12044698  0.75561034  1
  O  O357  1  0.25609940  0.62158953  0.25750421  1
  O  O358  1  0.25766551  0.61379951  0.74744814  1
  O  O359  1  0.75526653  0.12096574  0.25037936  1
  O  O360  1  0.74689471  0.12519094  0.74968730  1
  O  O361  1  0.74127255  0.60722220  0.24774637  1
  O  O362  1  0.75589257  0.62402445  0.75822093  1
  O  O363  1  0.37456435  0.13097567  0.36026979  1
  O  O364  1  0.37010074  0.11626406  0.86723276  1
  O  O365  1  0.36454524  0.62669299  0.37219316  1
  O  O366  1  0.37517879  0.62746261  0.86745236  1
  O  O367  1  0.87443054  0.11953902  0.36621955  1
  O  O368  1  0.88848792  0.11450083  0.86528077  1
  O  O369  1  0.85489462  0.61432970  0.42826580  1
  O  O370  1  0.86964869  0.62010277  0.86969398  1
  O  O371  1  0.13304767  0.37992284  0.14007388  1
  O  O372  1  0.13802139  0.37807938  0.62893533  1
  O  O373  1  0.13008544  0.88178570  0.13055527  1
  O  O374  1  0.12864823  0.87995916  0.62749650  1
  O  O375  1  0.63005409  0.38106265  0.12731134  1
  O  O376  1  0.62293384  0.38239168  0.63244333  1
  O  O377  1  0.63177394  0.88081989  0.13328170  1
  O  O378  1  0.63420067  0.86902433  0.63317789  1
  O  O379  1  0.11991652  0.25704179  0.25503419  1
  O  O380  1  0.11270684  0.25784625  0.74213335  1
  O  O381  1  0.12869739  0.76362367  0.25158357  1
  O  O382  1  0.12738958  0.75510483  0.75780587  1
  O  O383  1  0.61879690  0.25414687  0.25364156  1
  O  O384  1  0.62656715  0.25811033  0.76231048  1
  O  O385  1  0.61958854  0.75933369  0.25187603  1
  O  O386  1  0.61617216  0.75380788  0.75053089  1
  O  O387  1  0.38168585  0.24323772  0.24540203  1
  O  O388  1  0.36731835  0.23918180  0.73815598  1
  O  O389  1  0.38162785  0.73741910  0.25353265  1
  O  O390  1  0.38148683  0.74629960  0.74186863  1
  O  O391  1  0.88265612  0.24168713  0.25405051  1
  O  O392  1  0.88771922  0.25170437  0.74260952  1
  O  O393  1  0.86991624  0.75484596  0.23508162  1
  O  O394  1  0.87497351  0.74459165  0.74197836  1
  O  O395  1  0.38381449  0.48862313  0.50418417  1
  O  O396  1  0.36137154  0.51762151  0.99253700  1
  O  O397  1  0.36967393  0.99538739  0.49037448  1
  O  O398  1  0.38471513  1.00425226  0.99325576  1
  O  O399  1  0.89248383  0.48265968  0.52194154  1
  O  O400  1  0.88573771  0.49910684  0.99399857  1
  O  O401  1  0.86566944  0.99471292  0.49147067  1
  O  O402  1  0.87467696  0.98455627  0.99933145  1
  O  O403  1  0.12384106  0.00031905  0.01181016  1
  O  O404  1  0.13325936  0.00897691  0.50573226  1
  O  O405  1  0.11411827  0.50844598  0.00194618  1
  O  O406  1  0.12627734  0.50819721  0.50715667  1
  O  O407  1  0.61261093  0.00041818  0.00546223  1
  O  O408  1  0.63116681  0.01699132  0.49200322  1
  O  O409  1  0.62948160  0.50394384  0.01010546  1
  O  O410  1  0.61809259  0.50553743  0.50482485  1
  O  O411  1  0.36156672  0.37999332  0.13314645  1
  O  O412  1  0.36497879  0.36717626  0.62118402  1
  O  O413  1  0.36129265  0.88023731  0.12937940  1
  O  O414  1  0.37549237  0.87636531  0.61667693  1
  O  O415  1  0.86179844  0.37569657  0.12169894  1
  O  O416  1  0.87130313  0.35981757  0.63074908  1
  O  O417  1  0.86896055  0.86847398  0.11898727  1
  O  O418  1  0.87048102  0.86928607  0.61972238  1
  O  O419  1  0.12104503  0.13274843  0.37782195  1
  O  O420  1  0.13714212  0.11686201  0.87297552  1
  O  O421  1  0.14090742  0.62567395  0.38646364  1
  O  O422  1  0.12338499  0.63743649  0.88292994  1
  O  O423  1  0.62565489  0.13667883  0.38070256  1
  O  O424  1  0.61486045  0.13906032  0.87468673  1
  O  O425  1  0.62490523  0.62472148  0.38679364  1
  O  O426  1  0.63410101  0.62435768  0.88060164  1
