# generated using pymatgen
data_V85Zn86O256
_symmetry_space_group_name_H-M   'P 1'
_cell_length_a   16.92536606
_cell_length_b   16.92774989
_cell_length_c   16.92791906
_cell_angle_alpha   90.03659850
_cell_angle_beta   90.06075150
_cell_angle_gamma   89.95359472
_symmetry_Int_Tables_number   1
_chemical_formula_structural   V85Zn86O256
_chemical_formula_sum   'V85 Zn86 O256'
_cell_volume   4849.98508325
_cell_formula_units_Z   1
loop_
 _symmetry_equiv_pos_site_id
 _symmetry_equiv_pos_as_xyz
  1  'x, y, z'
loop_
 _atom_site_type_symbol
 _atom_site_label
 _atom_site_symmetry_multiplicity
 _atom_site_fract_x
 _atom_site_fract_y
 _atom_site_fract_z
 _atom_site_occupancy
  V  V0  1  0.87028314  0.75796968  0.12925418  1
  V  V1  1  -0.00159857  0.38939482  0.87579254  1
  V  V2  1  0.00689746  0.24647527  0.76161780  1
  V  V3  1  0.61402546  0.87298277  0.74822030  1
  V  V4  1  0.62733796  0.87343515  0.24238782  1
  V  V5  1  0.12563619  0.50053894  0.62029290  1
  V  V6  1  0.87810456  0.24870607  0.62465306  1
  V  V7  1  0.63625910  0.37570760  0.24405701  1
  V  V8  1  0.12847296  0.12443218  0.49866261  1
  V  V9  1  0.74862262  -0.00182685  0.74774378  1
  V  V10  1  0.00149201  0.50184289  0.49772267  1
  V  V11  1  0.61600762  0.26530482  0.86180395  1
  V  V12  1  -0.00297908  0.62558950  0.12548901  1
  V  V13  1  -0.00187579  0.12627013  0.12465936  1
  V  V14  1  0.87592843  0.87206969  0.49979553  1
  V  V15  1  0.87348105  0.87583408  0.00144034  1
  V  V16  1  0.00472127  0.74857128  0.25634911  1
  V  V17  1  0.87020183  0.25924138  0.12413990  1
  V  V18  1  0.37687341  0.50440479  0.38378764  1
  V  V19  1  0.12581915  0.49793131  0.12297034  1
  V  V20  1  0.00137389  -0.00105981  0.50086210  1
  V  V21  1  0.00678997  0.86971793  0.37895277  1
  V  V22  1  0.50094593  0.49584113  -0.00275774  1
  V  V23  1  0.50022008  0.74815688  0.25008805  1
  V  V24  1  0.63119115  0.74228980  0.37184714  1
  V  V25  1  0.12664257  -0.00024910  0.13028671  1
  V  V26  1  0.23145208  0.62912464  0.37974025  1
  V  V27  1  0.62010227  -0.00025121  0.61471481  1
  V  V28  1  0.24969703  0.49876633  0.25376784  1
  V  V29  1  0.25572109  0.24443609  0.50316457  1
  V  V30  1  0.49857653  0.62209359  0.12347136  1
  V  V31  1  0.86191201  0.62287076  0.25443742  1
  V  V32  1  0.24676088  0.74451271  0.50520078  1
  V  V33  1  0.45209142  0.05837042  0.06114556  1
  V  V34  1  0.37801198  0.49698555  0.87457246  1
  V  V35  1  0.26095599  0.87214514  0.62769067  1
  V  V36  1  0.38439877  0.63609306  0.74711052  1
  V  V37  1  0.36422097  0.74842602  0.12234094  1
  V  V38  1  0.61400387  0.75238701  0.87721587  1
  V  V39  1  0.13354011  0.87530076  0.25387259  1
  V  V40  1  0.74660328  0.75564664  0.00326768  1
  V  V41  1  -0.00046131  0.75318032  0.76314276  1
  V  V42  1  0.24831280  0.50422501  0.75232942  1
  V  V43  1  0.74703659  0.12631797  0.87296507  1
  V  V44  1  0.37503376  0.37315724  0.00498571  1
  V  V45  1  0.63795074  0.49829086  0.12778207  1
  V  V46  1  0.25170039  0.37227884  0.62657307  1
  V  V47  1  0.50379135  0.87981591  0.38184885  1
  V  V48  1  0.87301713  0.12425487  0.24786330  1
  V  V49  1  0.62914587  -0.00184421  0.11775965  1
  V  V50  1  0.86358756  0.50099117  0.37297431  1
  V  V51  1  0.75283777  0.73545291  0.49627381  1
  V  V52  1  0.74902770  0.87285840  0.62291097  1
  V  V53  1  0.37401394  0.87055985  -0.00319530  1
  V  V54  1  0.24844047  0.12432176  0.86912869  1
  V  V55  1  0.49160162  0.24661898  0.23351130  1
  V  V56  1  0.62234555  0.24807592  0.37000239  1
  V  V57  1  0.74950280  0.24647049  0.49862140  1
  V  V58  1  0.74810801  0.25939006  0.00101526  1
  V  V59  1  0.00734253  0.62781473  0.62497358  1
  V  V60  1  0.12322682  0.87627463  0.75444814  1
  V  V61  1  0.87535327  -0.00853201  0.87300406  1
  V  V62  1  0.00145029  -0.00594748  -0.00479200  1
  V  V63  1  0.37432760  -0.00055129  0.37499049  1
  V  V64  1  0.62320096  0.49778854  0.63170467  1
  V  V65  1  0.13167145  0.63330068  -0.00041249  1
  V  V66  1  0.00192356  0.12572297  0.62343928  1
  V  V67  1  0.25095677  0.12119221  0.36211165  1
  V  V68  1  0.62376122  0.12644377  0.00198752  1
  V  V69  1  0.49323682  0.12212485  0.61697897  1
  V  V70  1  0.87520928  0.74662069  0.62772206  1
  V  V71  1  0.37935164  0.37207940  0.49746553  1
  V  V72  1  0.61896789  0.61142986  0.49274916  1
  V  V73  1  0.75241297  0.62674927  0.86662362  1
  V  V74  1  0.50015157  0.37681796  0.37158391  1
  V  V75  1  0.37368943  0.62389790  0.25397275  1
  V  V76  1  0.24944047  0.25299638  -0.00086697  1
  V  V77  1  0.74809164  0.12213403  0.37284205  1
  V  V78  1  0.74732911  0.37204524  0.63290332  1
  V  V79  1  0.38137133  0.11631171  0.75172720  1
  V  V80  1  0.12264647  0.37231917  0.25158824  1
  V  V81  1  0.12011313  0.13357633  -0.00943391  1
  V  V82  1  0.43315742  0.29924996  0.68341980  1
  V  V83  1  0.49582220  0.89453828  0.87892827  1
  V  V84  1  0.75166010  -0.00590908  0.24422733  1
  Zn  Zn85  1  0.00081893  0.37336975  0.37725705  1
  Zn  Zn86  1  0.25240142  0.36567059  0.12854929  1
  Zn  Zn87  1  0.75211323  0.48839233  0.75936700  1
  Zn  Zn88  1  0.38062805  0.87292830  0.50340154  1
  Zn  Zn89  1  0.24934937  0.87543652  0.12307651  1
  Zn  Zn90  1  0.49602263  0.63621262  0.61930480  1
  Zn  Zn91  1  0.87436178  -0.00163790  0.37452518  1
  Zn  Zn92  1  0.12992452  0.76151013  0.88394173  1
  Zn  Zn93  1  0.12724735  0.37142847  0.75405441  1
  Zn  Zn94  1  -0.00033040  0.24920476  0.25332576  1
  Zn  Zn95  1  0.86878814  0.38739033  -0.00420581  1
  Zn  Zn96  1  0.37704447  0.12127805  0.23870683  1
  Zn  Zn97  1  0.13039224  -0.00196821  0.62554416  1
  Zn  Zn98  1  0.87687554  0.37431623  0.49811733  1
  Zn  Zn99  1  0.12421505  0.25002258  0.37490924  1
  Zn  Zn100  1  0.87931591  0.61429065  0.75389322  1
  Zn  Zn101  1  0.87567504  0.12238735  0.75006751  1
  Zn  Zn102  1  0.25147417  -0.00230329  0.75309900  1
  Zn  Zn103  1  -0.00478039  0.50523155  -0.00315744  1
  Zn  Zn104  1  0.61729863  0.11948673  0.49403149  1
  Zn  Zn105  1  0.25424119  0.63214088  0.87927396  1
  Zn  Zn106  1  0.62560080  0.62481586  -0.00075207  1
  Zn  Zn107  1  0.18654757  0.18870433  0.18283477  1
  Zn  Zn108  1  0.18947807  0.18665449  0.68485464  1
  Zn  Zn109  1  0.18535600  0.68598999  0.19134689  1
  Zn  Zn110  1  0.18869261  0.69068401  0.69158889  1
  Zn  Zn111  1  0.68454357  0.18692471  0.18472579  1
  Zn  Zn112  1  0.68387918  0.18459192  0.68573631  1
  Zn  Zn113  1  0.68709355  0.68497791  0.18332333  1
  Zn  Zn114  1  0.66071082  0.69620007  0.67813567  1
  Zn  Zn115  1  0.31127863  0.30805085  0.31213444  1
  Zn  Zn116  1  0.30696680  0.31506238  0.82169074  1
  Zn  Zn117  1  0.31333597  0.80789388  0.31908455  1
  Zn  Zn118  1  0.31098056  0.81001153  0.81772617  1
  Zn  Zn119  1  0.81566490  0.31259557  0.31371097  1
  Zn  Zn120  1  0.81687645  0.30856334  0.81342435  1
  Zn  Zn121  1  0.81481147  0.81283978  0.31381253  1
  Zn  Zn122  1  0.80702078  0.80906932  0.81125073  1
  Zn  Zn123  1  0.18959302  0.43705647  0.43885484  1
  Zn  Zn124  1  0.18251950  0.43856471  0.93515547  1
  Zn  Zn125  1  0.19140489  0.93631566  0.44047705  1
  Zn  Zn126  1  0.19034950  0.94105760  0.93672468  1
  Zn  Zn127  1  0.68963843  0.43050560  0.43746376  1
  Zn  Zn128  1  0.68488985  0.44064657  0.93712084  1
  Zn  Zn129  1  0.68998664  0.93228955  0.43425910  1
  Zn  Zn130  1  0.68707584  0.93645787  0.93695616  1
  Zn  Zn131  1  0.29264329  0.05833826  0.05686022  1
  Zn  Zn132  1  0.31783141  0.05622094  0.56025940  1
  Zn  Zn133  1  0.31154471  0.55848716  0.06454967  1
  Zn  Zn134  1  0.31298875  0.56532926  0.56408793  1
  Zn  Zn135  1  0.81025837  0.06475878  0.06068533  1
  Zn  Zn136  1  0.81276834  0.06205970  0.56125865  1
  Zn  Zn137  1  0.81342074  0.56946291  0.05696510  1
  Zn  Zn138  1  0.81539238  0.55887674  0.56793703  1
  Zn  Zn139  1  0.43895735  0.43646230  0.18811395  1
  Zn  Zn140  1  0.43993320  0.46318012  0.68387733  1
  Zn  Zn141  1  0.43298860  0.93117692  0.19650139  1
  Zn  Zn142  1  0.43892807  0.93903227  0.68807189  1
  Zn  Zn143  1  0.93664924  0.44030441  0.18818845  1
  Zn  Zn144  1  0.93481259  0.43520258  0.69060273  1
  Zn  Zn145  1  0.94226762  0.93698910  0.18894715  1
  Zn  Zn146  1  0.93874114  0.93469969  0.68707418  1
  Zn  Zn147  1  0.06169989  0.06110794  0.31437497  1
  Zn  Zn148  1  0.06282254  0.05963133  0.81158005  1
  Zn  Zn149  1  0.05658395  0.55780009  0.31012707  1
  Zn  Zn150  1  0.06476768  0.56555569  0.80994748  1
  Zn  Zn151  1  0.55910911  0.06169850  0.30667080  1
  Zn  Zn152  1  0.56377073  0.06812603  0.80705574  1
  Zn  Zn153  1  0.56398105  0.55883797  0.31065932  1
  Zn  Zn154  1  0.56550742  0.56155391  0.81473661  1
  Zn  Zn155  1  0.43625399  0.18810237  0.43273950  1
  Zn  Zn156  1  0.43465524  0.19646703  0.92822495  1
  Zn  Zn157  1  0.43613984  0.69377832  0.44014597  1
  Zn  Zn158  1  0.43496592  0.68680011  0.93651559  1
  Zn  Zn159  1  0.93768043  0.18698342  0.43443114  1
  Zn  Zn160  1  0.93099098  0.18510932  0.93830684  1
  Zn  Zn161  1  0.94161804  0.68216668  0.43857855  1
  Zn  Zn162  1  0.93503953  0.68692377  0.94058957  1
  Zn  Zn163  1  0.05942463  0.31376027  0.06091704  1
  Zn  Zn164  1  0.06605937  0.31415910  0.56272277  1
  Zn  Zn165  1  0.05951142  0.81325603  0.06724538  1
  Zn  Zn166  1  0.07078317  0.81030165  0.56744619  1
  Zn  Zn167  1  0.56494488  0.31579638  0.05845304  1
  Zn  Zn168  1  0.56734856  0.31431263  0.55592074  1
  Zn  Zn169  1  0.55482532  0.81427714  0.06073881  1
  Zn  Zn170  1  0.56403983  0.80450684  0.56062068  1
  O  O171  1  0.11506827  0.11867049  0.11869157  1
  O  O172  1  0.11877896  0.12185699  0.61660596  1
  O  O173  1  0.11819092  0.62078505  0.11900732  1
  O  O174  1  0.11468055  0.61863064  0.63077524  1
  O  O175  1  0.62561106  0.11698461  0.11032760  1
  O  O176  1  0.61500983  0.11601185  0.62211740  1
  O  O177  1  0.61415634  0.61811574  0.12382307  1
  O  O178  1  0.64141415  0.60382708  0.60895633  1
  O  O179  1  0.37897009  0.38045344  0.38041065  1
  O  O180  1  0.36946677  0.38981335  0.88633411  1
  O  O181  1  0.38568214  0.88262208  0.37149287  1
  O  O182  1  0.38501112  0.87156166  0.88267213  1
  O  O183  1  0.87859707  0.38674232  0.37547357  1
  O  O184  1  0.89305770  0.36525473  0.87768656  1
  O  O185  1  0.88826226  0.87589510  0.38142790  1
  O  O186  1  0.86785693  0.88629638  0.87908903  1
  O  O187  1  0.26131317  0.00722073  0.37737459  1
  O  O188  1  0.24913281  0.01857607  0.87383022  1
  O  O189  1  0.25767003  0.50859439  0.37348632  1
  O  O190  1  0.25464595  0.50616319  0.86795617  1
  O  O191  1  0.75073638  0.00510129  0.36588749  1
  O  O192  1  0.75348251  0.00572716  0.86849118  1
  O  O193  1  0.76479262  0.49691553  0.37902321  1
  O  O194  1  0.73927274  0.52122908  0.87495040  1
  O  O195  1  0.23752969  0.50101204  0.13363515  1
  O  O196  1  0.24455160  0.49446447  0.63011838  1
  O  O197  1  0.23171127  0.99832192  0.12957276  1
  O  O198  1  0.25109776  0.98557873  0.62597302  1
  O  O199  1  0.73597016  0.51157652  0.12259455  1
  O  O200  1  0.74347755  0.48488370  0.62023681  1
  O  O201  1  0.74190522  1.00182844  0.13179993  1
  O  O202  1  0.74441871  0.99483034  0.62933294  1
  O  O203  1  0.01287289  0.37485009  0.24952181  1
  O  O204  1  -0.00009720  0.36256508  0.75899403  1
  O  O205  1  0.00551343  0.86719094  0.26010504  1
  O  O206  1  0.00972061  0.86495282  0.74366215  1
  O  O207  1  0.50415585  0.36460470  0.25444212  1
  O  O208  1  0.48394626  0.36547510  0.73586634  1
  O  O209  1  0.50982371  0.86684211  0.25795146  1
  O  O210  1  0.50845187  0.87909550  0.75826859  1
  O  O211  1  0.49874708  0.14183496  0.24983436  1
  O  O212  1  0.48781606  0.12682793  0.74083277  1
  O  O213  1  0.49333333  0.62754011  0.24336561  1
  O  O214  1  0.48653906  0.61769195  0.75151067  1
  O  O215  1  0.99304740  0.12373665  0.24101582  1
  O  O216  1  0.99914274  0.13267810  0.74299730  1
  O  O217  1  0.99537269  0.63255684  0.24241047  1
  O  O218  1  0.99861623  0.63499037  0.74388213  1
  O  O219  1  0.36657768  0.26260790  -0.00636332  1
  O  O220  1  0.36415963  0.25694392  0.49455587  1
  O  O221  1  0.37900467  0.75746957  0.01043349  1
  O  O222  1  0.35894331  0.75747122  0.49426326  1
  O  O223  1  0.86434571  0.24908596  0.00743006  1
  O  O224  1  0.86810517  0.24836627  0.50668501  1
  O  O225  1  0.86967308  0.75682176  0.00933925  1
  O  O226  1  0.87058962  0.75203587  0.50475096  1
  O  O227  1  0.13683516  0.24373527  0.49861244  1
  O  O228  1  0.12655531  0.23808112  1.00306770  1
  O  O229  1  0.14541772  0.75606401  0.49887719  1
  O  O230  1  0.11892654  0.73771027  1.00363563  1
  O  O231  1  0.63287784  0.24564808  0.48899327  1
  O  O232  1  0.63063478  0.24316195  0.99372932  1
  O  O233  1  0.63642662  0.74054435  0.48740876  1
  O  O234  1  0.63069146  0.75281773  0.99589208  1
  O  O235  1  0.50202497  0.25437436  0.13505140  1
  O  O236  1  0.50108544  0.24517567  0.62618322  1
  O  O237  1  0.49370415  0.73804320  0.12992302  1
  O  O238  1  0.55204638  0.73220204  0.64176404  1
  O  O239  1  0.99221030  0.23827308  0.12375472  1
  O  O240  1  0.99354444  0.24584992  0.62861596  1
  O  O241  1  0.99140094  0.74427960  0.13468798  1
  O  O242  1  0.99618527  0.74263715  0.62883938  1
  O  O243  1  0.00420738  0.25374783  0.37213512  1
  O  O244  1  -0.00238999  0.24392126  0.86264940  1
  O  O245  1  -0.00209679  0.75671328  0.36906659  1
  O  O246  1  0.00176765  0.74772944  0.86587945  1
  O  O247  1  0.50363661  0.25985669  0.36713330  1
  O  O248  1  0.51713731  0.25130000  0.87551744  1
  O  O249  1  0.51202853  0.75491846  0.36759038  1
  O  O250  1  0.51143337  0.75705498  0.88229589  1
  O  O251  1  0.24869613  0.12979954  0.49546863  1
  O  O252  1  0.23920978  0.13155523  0.99037837  1
  O  O253  1  0.25227410  0.63529158  0.49549248  1
  O  O254  1  0.23402633  0.62141585  1.00414978  1
  O  O255  1  0.74815149  0.13268404  0.49327072  1
  O  O256  1  0.74085654  0.13147606  0.99181758  1
  O  O257  1  0.74928139  0.63305233  0.49928280  1
  O  O258  1  0.74687674  0.64025898  0.99137249  1
  O  O259  1  0.25320154  0.36900072  -0.00083133  1
  O  O260  1  0.26200887  0.36866860  0.50442303  1
  O  O261  1  0.26793509  0.88837593  0.00376318  1
  O  O262  1  0.25251049  0.86867236  0.51294474  1
  O  O263  1  0.75044174  0.36340771  -0.00494493  1
  O  O264  1  0.75254421  0.35875080  0.50583729  1
  O  O265  1  0.75618818  0.86424535  -0.00296455  1
  O  O266  1  0.75604718  0.86532143  0.50444403  1
  O  O267  1  0.13041402  0.49345071  0.24393203  1
  O  O268  1  0.13255301  0.50057143  0.74033326  1
  O  O269  1  0.11253304  0.98831944  0.24101371  1
  O  O270  1  0.12739651  0.99225530  0.74542640  1
  O  O271  1  0.61962047  0.48920394  0.23894408  1
  O  O272  1  0.63200366  0.50303393  0.73557448  1
  O  O273  1  0.63060317  0.99379758  0.23866607  1
  O  O274  1  0.63036766  0.99335191  0.74042517  1
  O  O275  1  0.37898498  0.00434615  0.26508187  1
  O  O276  1  0.37314536  0.01333227  0.75084824  1
  O  O277  1  0.36847481  0.50279859  0.26034365  1
  O  O278  1  0.36681890  0.50470393  0.75892415  1
  O  O279  1  0.86728180  0.00397833  0.24855700  1
  O  O280  1  0.86977555  0.00005542  0.75639147  1
  O  O281  1  0.87910309  0.50799215  0.26267750  1
  O  O282  1  0.86304579  0.50318352  0.74055485  1
  O  O283  1  0.12567711  0.37462359  0.36568019  1
  O  O284  1  0.10725929  0.37675156  0.87060738  1
  O  O285  1  0.11407627  0.88169102  0.36980625  1
  O  O286  1  0.12980486  0.87898786  0.86114354  1
  O  O287  1  0.61654388  0.37006020  0.36741617  1
  O  O288  1  0.62963976  0.36477249  0.87221898  1
  O  O289  1  0.62077795  0.86838924  0.36350463  1
  O  O290  1  0.61558466  0.87306044  0.87037243  1
  O  O291  1  0.38389388  0.11133072  0.11672946  1
  O  O292  1  0.38091281  0.12273590  0.63559623  1
  O  O293  1  0.37930402  0.62885940  0.13069501  1
  O  O294  1  0.38119833  0.61758365  0.63961566  1
  O  O295  1  0.88142714  0.12974595  0.12835019  1
  O  O296  1  0.88161480  0.13368012  0.62473073  1
  O  O297  1  0.88176711  0.63501112  0.13369494  1
  O  O298  1  0.88597559  0.63264939  0.62595377  1
  O  O299  1  0.24774040  0.24792708  0.10675886  1
  O  O300  1  0.24806900  0.25872887  0.61553098  1
  O  O301  1  0.26131400  0.74973875  0.13009497  1
  O  O302  1  0.24944817  0.75847819  0.61753143  1
  O  O303  1  0.75770583  0.24213082  0.11372011  1
  O  O304  1  0.75503258  0.24955015  0.61727602  1
  O  O305  1  0.75879153  0.74735298  0.11771200  1
  O  O306  1  0.75374903  0.75354239  0.61565727  1
  O  O307  1  0.24899717  0.23856899  0.38295804  1
  O  O308  1  0.24821554  0.23986677  0.88605630  1
  O  O309  1  0.25031581  0.73812097  0.38488924  1
  O  O310  1  0.24169406  0.74362759  0.87348141  1
  O  O311  1  0.74540194  0.24280077  0.37991609  1
  O  O312  1  0.74501621  0.24142896  0.88112280  1
  O  O313  1  0.74065520  0.75574571  0.38168137  1
  O  O314  1  0.74061507  0.74601948  0.88454493  1
  O  O315  1  0.00292855  0.11748484  0.00475768  1
  O  O316  1  0.00523142  0.11673036  0.50267936  1
  O  O317  1  0.00529814  0.62780773  0.01352217  1
  O  O318  1  -0.00010194  0.61227914  0.50993071  1
  O  O319  1  0.50306636  0.12406074  -0.00243519  1
  O  O320  1  0.49834387  0.13146998  0.51226114  1
  O  O321  1  0.49972000  0.61592486  0.00797056  1
  O  O322  1  0.51468276  0.63263774  0.49983388  1
  O  O323  1  0.48735333  0.36755327  0.48978469  1
  O  O324  1  0.49147742  0.38757188  1.00491799  1
  O  O325  1  0.50357255  0.86558451  0.48610289  1
  O  O326  1  0.48738772  0.87895045  0.99330358  1
  O  O327  1  0.99862346  0.38777710  0.50251098  1
  O  O328  1  1.00057286  0.37710517  0.98500988  1
  O  O329  1  0.99972805  0.87892117  0.49695883  1
  O  O330  1  0.99411331  0.88763905  1.00440836  1
  O  O331  1  0.49128685  0.48566101  0.36828799  1
  O  O332  1  0.49340144  0.50318279  0.88553300  1
  O  O333  1  0.49484775  0.99021145  0.37135678  1
  O  O334  1  0.50513869  0.99368993  0.87329321  1
  O  O335  1  0.99426649  0.49744203  0.38458762  1
  O  O336  1  0.99729401  0.49205885  0.87093800  1
  O  O337  1  0.99723586  0.99347090  0.38745839  1
  O  O338  1  0.98758596  1.00702959  0.88376235  1
  O  O339  1  0.00367320  0.00929049  0.11680589  1
  O  O340  1  -0.00072922  0.00485930  0.61380154  1
  O  O341  1  0.01137367  0.51059479  0.13093169  1
  O  O342  1  0.00757677  0.50564323  0.62171810  1
  O  O343  1  0.50697493  -0.00026720  0.12731045  1
  O  O344  1  0.50788366  0.00859134  0.62613824  1
  O  O345  1  0.50160578  0.51037984  0.12022730  1
  O  O346  1  0.51961382  0.50815780  0.61908631  1
  O  O347  1  0.24096150  0.37853460  0.24872887  1
  O  O348  1  0.25021195  0.38617677  0.74673507  1
  O  O349  1  0.23598194  0.86668355  0.25224109  1
  O  O350  1  0.24753692  0.87463829  0.74073380  1
  O  O351  1  0.73532517  0.36741280  0.25252907  1
  O  O352  1  0.75246949  0.36731597  0.73661359  1
  O  O353  1  0.74361747  0.88599997  0.25423258  1
  O  O354  1  0.74316836  0.88186695  0.74240204  1
  O  O355  1  0.25381881  0.13093299  0.25905953  1
  O  O356  1  0.25970734  0.12548577  0.75248206  1
  O  O357  1  0.25451821  0.62072802  0.26085043  1
  O  O358  1  0.25880174  0.61451934  0.74771537  1
  O  O359  1  0.75182814  0.11423193  0.25246386  1
  O  O360  1  0.75055535  0.11649436  0.75641036  1
  O  O361  1  0.76301325  0.63202192  0.25082311  1
  O  O362  1  0.74486195  0.63589685  0.76402661  1
  O  O363  1  0.36891408  0.11475354  0.37365972  1
  O  O364  1  0.36835485  0.13222545  0.85831109  1
  O  O365  1  0.37477095  0.61679746  0.37221306  1
  O  O366  1  0.37394053  0.61527922  0.86736551  1
  O  O367  1  0.86653865  0.12193086  0.36577099  1
  O  O368  1  0.86063740  0.11446825  0.87552391  1
  O  O369  1  0.88030251  0.61193774  0.36765052  1
  O  O370  1  0.85735618  0.63526257  0.87241763  1
  O  O371  1  0.12607395  0.38291080  0.13022308  1
  O  O372  1  0.13259500  0.38378351  0.63009751  1
  O  O373  1  0.12476999  0.88194932  0.13364963  1
  O  O374  1  0.13739207  0.87547161  0.63698713  1
  O  O375  1  0.62225741  0.38660157  0.13089036  1
  O  O376  1  0.63232898  0.38761065  0.61606343  1
  O  O377  1  0.61927950  0.88037227  0.13506758  1
  O  O378  1  0.62837828  0.88238406  0.63139375  1
  O  O379  1  0.12337514  0.25866901  0.24936976  1
  O  O380  1  0.10975348  0.25050756  0.74277228  1
  O  O381  1  0.11160092  0.75756191  0.24521009  1
  O  O382  1  0.11492208  0.75708010  0.75198589  1
  O  O383  1  0.61607326  0.25511857  0.25192480  1
  O  O384  1  0.62880735  0.24527964  0.76361219  1
  O  O385  1  0.62357015  0.75558315  0.25261850  1
  O  O386  1  0.63932803  0.76791358  0.76755406  1
  O  O387  1  0.38680952  0.24780753  0.24783878  1
  O  O388  1  0.37229816  0.24640681  0.74727778  1
  O  O389  1  0.38078079  0.74345921  0.24493610  1
  O  O390  1  0.37525586  0.73409520  0.75360097  1
  O  O391  1  0.87467874  0.24190941  0.24145939  1
  O  O392  1  0.88600765  0.24421969  0.74123135  1
  O  O393  1  0.88293711  0.74569420  0.24647465  1
  O  O394  1  0.88280855  0.75129786  0.74291339  1
  O  O395  1  0.37104013  0.49165023  0.49024943  1
  O  O396  1  0.38043981  0.49791411  0.99334469  1
  O  O397  1  0.37701349  0.99207843  0.48320813  1
  O  O398  1  0.38606415  0.99960798  1.00918579  1
  O  O399  1  0.88224742  0.49933946  0.48997755  1
  O  O400  1  0.88322994  0.49857679  1.01069879  1
  O  O401  1  0.88265341  0.99124216  0.49922612  1
  O  O402  1  0.87937085  0.99513189  0.99415043  1
  O  O403  1  0.11639364  0.00753212  0.00567050  1
  O  O404  1  0.11778017  0.00511053  0.50232537  1
  O  O405  1  0.11840986  0.50954929  0.00888684  1
  O  O406  1  0.12059506  0.49636842  0.51277207  1
  O  O407  1  0.62872300  0.00527815  0.01042403  1
  O  O408  1  0.63177475  -0.00129533  0.51101106  1
  O  O409  1  0.61628735  0.50133934  0.00914050  1
  O  O410  1  0.62947327  0.50747755  0.49730500  1
  O  O411  1  0.36845313  0.38685510  0.11046970  1
  O  O412  1  0.37717187  0.37091330  0.62059987  1
  O  O413  1  0.37490772  0.86451093  0.12139169  1
  O  O414  1  0.36556692  0.87497072  0.62673365  1
  O  O415  1  0.88127991  0.36155140  0.12438804  1
  O  O416  1  0.86856884  0.36078798  0.62134362  1
  O  O417  1  0.88004736  0.86397572  0.12334318  1
  O  O418  1  0.87007247  0.86633115  0.61876980  1
  O  O419  1  0.13467180  0.12281385  0.38038221  1
  O  O420  1  0.12982255  0.12324383  0.88170939  1
  O  O421  1  0.13317722  0.61825907  0.37214543  1
  O  O422  1  0.12119415  0.62329806  0.89399418  1
  O  O423  1  0.63053789  0.12800675  0.37340464  1
  O  O424  1  0.63321630  0.12574594  0.88345590  1
  O  O425  1  0.62320330  0.63205065  0.37726297  1
  O  O426  1  0.62970206  0.63718427  0.87763967  1
