# generated using pymatgen
data_V85Zn86O256
_symmetry_space_group_name_H-M   'P 1'
_cell_length_a   16.90615725
_cell_length_b   16.90146728
_cell_length_c   16.89998288
_cell_angle_alpha   90.07476418
_cell_angle_beta   89.98221389
_cell_angle_gamma   89.98223495
_symmetry_Int_Tables_number   1
_chemical_formula_structural   V85Zn86O256
_chemical_formula_sum   'V85 Zn86 O256'
_cell_volume   4828.97732577
_cell_formula_units_Z   1
loop_
 _symmetry_equiv_pos_site_id
 _symmetry_equiv_pos_as_xyz
  1  'x, y, z'
loop_
 _atom_site_type_symbol
 _atom_site_label
 _atom_site_symmetry_multiplicity
 _atom_site_fract_x
 _atom_site_fract_y
 _atom_site_fract_z
 _atom_site_occupancy
  V  V0  1  0.37918878  0.12196419  0.24772356  1
  V  V1  1  0.38103959  0.37521940  0.50015436  1
  V  V2  1  0.87735944  0.74854761  0.12331088  1
  V  V3  1  0.87393764  0.37735314  0.49998376  1
  V  V4  1  0.49921282  0.62131401  0.12345196  1
  V  V5  1  0.62485322  0.37510882  0.25026547  1
  V  V6  1  0.61939702  0.25528065  0.37702156  1
  V  V7  1  0.74940858  0.25317752  0.50112810  1
  V  V8  1  0.24648013  0.25718896  0.50538813  1
  V  V9  1  0.50151151  0.49994501  0.49233191  1
  V  V10  1  0.74953253  0.49560108  0.24390136  1
  V  V11  1  0.74873487  0.12567664  0.87620362  1
  V  V12  1  0.37557513  0.25701462  0.63183332  1
  V  V13  1  -0.00019230  -0.00153137  -0.00122114  1
  V  V14  1  -0.00039110  0.50383544  0.50417262  1
  V  V15  1  0.62059089  0.24802769  0.86775355  1
  V  V16  1  0.12433976  0.12858193  0.49841691  1
  V  V17  1  0.12676104  0.50132914  0.62634917  1
  V  V18  1  0.12842470  0.49327439  0.13530329  1
  V  V19  1  0.37490061  0.61744724  0.25089769  1
  V  V20  1  0.24844577  0.25241039  -0.00022265  1
  V  V21  1  0.50236576  0.13043476  0.63040975  1
  V  V22  1  0.24424462  0.62157433  0.36971307  1
  V  V23  1  0.37823372  0.37859819  0.00233078  1
  V  V24  1  0.87401546  -0.00128895  0.87505088  1
  V  V25  1  0.38109355  0.24563412  0.12147717  1
  V  V26  1  0.87319587  0.87351404  -0.00035132  1
  V  V27  1  0.25043081  0.87030157  0.12454096  1
  V  V28  1  0.37512785  -0.00975156  0.86992220  1
  V  V29  1  0.50130688  -0.00243334  0.49305566  1
  V  V30  1  0.12215092  0.74815063  0.86830561  1
  V  V31  1  0.00015040  0.87192896  0.37626992  1
  V  V32  1  0.24571289  0.12328242  0.37324195  1
  V  V33  1  0.24614267  0.75635840  0.50071626  1
  V  V34  1  0.62426773  0.62434955  -0.00124491  1
  V  V35  1  0.74904605  0.63171566  0.37615497  1
  V  V36  1  0.75294559  0.85780300  0.62365140  1
  V  V37  1  0.75078699  -0.00130598  0.74393633  1
  V  V38  1  0.62698062  0.63224568  0.49955322  1
  V  V39  1  0.37951096  0.87383394  0.49856378  1
  V  V40  1  0.37734982  0.50048352  0.87859123  1
  V  V41  1  0.87566449  0.12299415  0.25199800  1
  V  V42  1  0.74657165  0.25356535  0.00360642  1
  V  V43  1  0.86749116  0.61884980  0.73744854  1
  V  V44  1  0.12525876  0.12438418  -0.00142189  1
  V  V45  1  0.00016878  0.37103609  0.36865678  1
  V  V46  1  0.74873722  -0.00857145  0.25123884  1
  V  V47  1  0.61852230  0.75904594  0.87473950  1
  V  V48  1  0.62592302  0.12641738  0.50178599  1
  V  V49  1  0.24990903  0.74831073  -0.00246378  1
  V  V50  1  0.62218803  0.49504832  0.11938613  1
  V  V51  1  0.24982503  0.12044071  0.87023604  1
  V  V52  1  0.87720398  0.62423336  0.24245588  1
  V  V53  1  0.49595502  0.37068409  0.87003308  1
  V  V54  1  0.88044036  0.25372960  0.62979316  1
  V  V55  1  0.50250563  0.76017082  0.25193028  1
  V  V56  1  0.12726502  0.87094094  0.25740909  1
  V  V57  1  0.87186799  0.25144615  0.12778748  1
  V  V58  1  0.88033462  0.13080693  0.75264258  1
  V  V59  1  0.25060019  0.49243773  0.74562023  1
  V  V60  1  0.17125955  0.30807701  0.31640809  1
  V  V61  1  0.87193642  0.37731923  0.00457637  1
  V  V62  1  0.50453701  0.24904454  0.24614890  1
  V  V63  1  0.18729509  -0.05529180  0.68382110  1
  V  V64  1  0.87427385  0.50137377  0.37359032  1
  V  V65  1  0.11913353  0.62402629  0.00519446  1
  V  V66  1  0.37368147  0.62551551  0.74895853  1
  V  V67  1  0.87459854  0.86084938  0.50497589  1
  V  V68  1  0.62319834  0.76240312  0.37354433  1
  V  V69  1  0.12341794  0.62910744  0.50119983  1
  V  V70  1  0.62640207  0.38583491  0.75416406  1
  V  V71  1  0.49645737  0.62919071  0.62443957  1
  V  V72  1  0.50107319  -0.00005837  -0.00638456  1
  V  V73  1  0.00389884  0.12474064  0.62717485  1
  V  V74  1  0.00487105  0.74544853  0.24929608  1
  V  V75  1  -0.00063341  0.36924176  0.87243939  1
  V  V76  1  -0.00606726  0.73933902  0.73810023  1
  V  V77  1  0.12255842  0.36615014  0.74528132  1
  V  V78  1  0.00163433  0.87251959  0.86435560  1
  V  V79  1  0.00259301  -0.00181137  0.50458905  1
  V  V80  1  0.37629975  0.12291626  0.74948431  1
  V  V81  1  0.12511940  -0.00281376  0.12494793  1
  V  V82  1  0.75074019  0.38482946  0.63197910  1
  V  V83  1  -0.00025781  0.50210115  0.00299547  1
  V  V84  1  0.61612712  0.00048914  0.13276995  1
  Zn  Zn85  1  0.37584928  0.74788074  0.12447088  1
  Zn  Zn86  1  0.62381773  -0.00194372  0.62639731  1
  Zn  Zn87  1  0.37855318  -0.00773959  0.37089607  1
  Zn  Zn88  1  0.75061118  0.12495405  0.37567285  1
  Zn  Zn89  1  0.38036078  0.86995616  -0.00494302  1
  Zn  Zn90  1  0.74932453  0.74884330  -0.00204535  1
  Zn  Zn91  1  0.25303247  -0.00389111  0.25193399  1
  Zn  Zn92  1  0.24732989  0.62180607  0.87424481  1
  Zn  Zn93  1  0.00069665  0.12634612  0.12626449  1
  Zn  Zn94  1  0.36733041  0.76023915  0.62978174  1
  Zn  Zn95  1  0.12154263  0.24774271  0.87052338  1
  Zn  Zn96  1  0.86792893  0.50122628  0.87020675  1
  Zn  Zn97  1  0.61671858  0.12909494  0.00536975  1
  Zn  Zn98  1  0.74673574  0.61960875  0.86738916  1
  Zn  Zn99  1  0.61656769  0.87898639  0.75050883  1
  Zn  Zn100  1  0.87280609  -0.00031278  0.37794731  1
  Zn  Zn101  1  0.48938653  0.76420536  0.75733713  1
  Zn  Zn102  1  0.37481492  0.49576498  0.37150118  1
  Zn  Zn103  1  0.62736482  0.50573456  0.62790701  1
  Zn  Zn104  1  0.00250351  0.24876420  0.25235630  1
  Zn  Zn105  1  0.24939464  0.37566367  0.14224253  1
  Zn  Zn106  1  0.74520004  0.87282201  0.12780100  1
  Zn  Zn107  1  0.19512684  0.18133618  0.17992374  1
  Zn  Zn108  1  0.19178569  0.18103657  0.68451585  1
  Zn  Zn109  1  0.18561402  0.68281366  0.18567538  1
  Zn  Zn110  1  0.18632278  0.68499797  0.68542495  1
  Zn  Zn111  1  0.69023141  0.18137658  0.18651528  1
  Zn  Zn112  1  0.69138152  0.19222751  0.68927273  1
  Zn  Zn113  1  0.68734585  0.68830843  0.18765917  1
  Zn  Zn114  1  0.68266206  0.68835739  0.69108006  1
  Zn  Zn115  1  0.33453620  0.30916863  0.31953404  1
  Zn  Zn116  1  0.30897318  0.30978763  0.81168242  1
  Zn  Zn117  1  0.31526817  0.80548278  0.31688980  1
  Zn  Zn118  1  0.30254943  0.81412701  0.80660551  1
  Zn  Zn119  1  0.80949370  0.31238403  0.31277586  1
  Zn  Zn120  1  0.81056582  0.31576187  0.81570164  1
  Zn  Zn121  1  0.81543575  0.81157392  0.31541844  1
  Zn  Zn122  1  0.80917593  0.80431666  0.81158942  1
  Zn  Zn123  1  0.19363545  0.44274371  0.44384052  1
  Zn  Zn124  1  0.18747404  0.43668611  0.93522286  1
  Zn  Zn125  1  0.18702127  0.94099897  0.44074212  1
  Zn  Zn126  1  0.18719610  0.93470920  0.93138399  1
  Zn  Zn127  1  0.68604346  0.44150044  0.43588517  1
  Zn  Zn128  1  0.68795812  0.43860014  0.93755303  1
  Zn  Zn129  1  0.69174147  0.93965338  0.44230749  1
  Zn  Zn130  1  0.68721967  0.93886994  0.94023406  1
  Zn  Zn131  1  0.31432500  0.06052413  0.05998355  1
  Zn  Zn132  1  0.31433464  0.06281188  0.56108115  1
  Zn  Zn133  1  0.30757297  0.56154455  0.06495655  1
  Zn  Zn134  1  0.31031366  0.56286594  0.56200802  1
  Zn  Zn135  1  0.80761593  0.06412404  0.06632620  1
  Zn  Zn136  1  0.81746671  0.06163720  0.56187506  1
  Zn  Zn137  1  0.80830942  0.56131945  0.06100731  1
  Zn  Zn138  1  0.81199650  0.56950311  0.56304362  1
  Zn  Zn139  1  0.44044323  0.43483240  0.18782506  1
  Zn  Zn140  1  0.44248846  0.44022227  0.68617954  1
  Zn  Zn141  1  0.43751816  0.93725941  0.18223680  1
  Zn  Zn142  1  0.43366906  0.94031060  0.67962463  1
  Zn  Zn143  1  0.94094221  0.43761612  0.18386803  1
  Zn  Zn144  1  0.94166004  0.44078349  0.68742329  1
  Zn  Zn145  1  0.93719929  0.93626125  0.18804332  1
  Zn  Zn146  1  0.93837149  0.93662128  0.68632092  1
  Zn  Zn147  1  0.06286068  0.06003454  0.31377323  1
  Zn  Zn148  1  0.06282102  0.06145492  0.81013019  1
  Zn  Zn149  1  0.06114607  0.56209180  0.31576661  1
  Zn  Zn150  1  0.05790618  0.56055242  0.81571811  1
  Zn  Zn151  1  0.56446291  0.06592075  0.31301001  1
  Zn  Zn152  1  0.56111705  0.06073819  0.81198970  1
  Zn  Zn153  1  0.56264555  0.56662145  0.31105635  1
  Zn  Zn154  1  0.55691838  0.56419734  0.81651959  1
  Zn  Zn155  1  0.43809714  0.18722438  0.43684540  1
  Zn  Zn156  1  0.43895938  0.18313323  0.93687354  1
  Zn  Zn157  1  0.43517050  0.68912512  0.43525728  1
  Zn  Zn158  1  0.43890194  0.68544917  0.93914618  1
  Zn  Zn159  1  0.93766482  0.18970918  0.43694288  1
  Zn  Zn160  1  0.93794924  0.18916111  0.94025665  1
  Zn  Zn161  1  0.94035384  0.68750694  0.43356001  1
  Zn  Zn162  1  0.93471736  0.68349464  0.93182074  1
  Zn  Zn163  1  0.06007354  0.31429334  0.06549010  1
  Zn  Zn164  1  0.06199916  0.31580873  0.56080759  1
  Zn  Zn165  1  0.06010316  0.81079466  0.06168670  1
  Zn  Zn166  1  0.06914418  0.81462846  0.56438770  1
  Zn  Zn167  1  0.56058299  0.31540285  0.06070995  1
  Zn  Zn168  1  0.56142062  0.31467760  0.56787832  1
  Zn  Zn169  1  0.56196734  0.81559368  0.06405581  1
  Zn  Zn170  1  0.56230178  0.81335965  0.56667698  1
  O  O171  1  0.12401597  0.11382206  0.11845809  1
  O  O172  1  0.10906418  0.13361516  0.61983372  1
  O  O173  1  0.12785493  0.61350170  0.11231299  1
  O  O174  1  0.12578727  0.61265288  0.61531660  1
  O  O175  1  0.63157787  0.10751152  0.12069772  1
  O  O176  1  0.61973152  0.12994298  0.61995079  1
  O  O177  1  0.61781701  0.61765819  0.12203522  1
  O  O178  1  0.61818685  0.62620647  0.61750628  1
  O  O179  1  0.38185265  0.37835921  0.39263009  1
  O  O180  1  0.37934664  0.37755958  0.87932561  1
  O  O181  1  0.36974773  0.87602663  0.38938482  1
  O  O182  1  0.36506106  0.88721530  0.87381601  1
  O  O183  1  0.87965749  0.38157680  0.38008949  1
  O  O184  1  0.88101845  0.37554451  0.88644173  1
  O  O185  1  0.88285231  0.87637152  0.38468004  1
  O  O186  1  0.87998752  0.87655843  0.88046469  1
  O  O187  1  0.25458357  0.00996247  0.37378401  1
  O  O188  1  0.25908181  0.01235537  0.88482636  1
  O  O189  1  0.25544233  0.51607360  0.37987394  1
  O  O190  1  0.25987767  0.50004270  0.86709638  1
  O  O191  1  0.75078359  0.00390785  0.36700449  1
  O  O192  1  0.75516703  0.00450179  0.86647881  1
  O  O193  1  0.75490285  0.50894409  0.36473835  1
  O  O194  1  0.75393338  0.50559447  0.88123395  1
  O  O195  1  0.23518584  0.49401841  0.12379344  1
  O  O196  1  0.24107064  0.50070135  0.63317330  1
  O  O197  1  0.23988639  0.99100641  0.12401666  1
  O  O198  1  0.23955427  1.01543761  0.62923942  1
  O  O199  1  0.73960402  0.50409277  0.13666726  1
  O  O200  1  0.74805477  0.48806774  0.61920622  1
  O  O201  1  0.74193875  0.99684172  0.13370384  1
  O  O202  1  0.75198454  1.00186498  0.63724017  1
  O  O203  1  -0.00390679  0.37500623  0.26360323  1
  O  O204  1  0.00926330  0.38034080  0.75926038  1
  O  O205  1  0.00619859  0.86896183  0.25672946  1
  O  O206  1  -0.00872030  0.86297624  0.75969470  1
  O  O207  1  0.50682321  0.35982611  0.24900373  1
  O  O208  1  0.50668735  0.37557341  0.76185417  1
  O  O209  1  0.49343089  0.85911345  0.24650090  1
  O  O210  1  0.50339367  0.87525971  0.73722906  1
  O  O211  1  0.49393989  0.13771532  0.25308242  1
  O  O212  1  0.49303882  0.12399821  0.74136197  1
  O  O213  1  0.49417537  0.63077153  0.24063054  1
  O  O214  1  0.48637170  0.62415358  0.74369629  1
  O  O215  1  0.98850745  0.12423287  0.24960868  1
  O  O216  1  0.98882076  0.12328655  0.74442466  1
  O  O217  1  0.99034418  0.63400283  0.25764953  1
  O  O218  1  0.99343948  0.63420922  0.75199420  1
  O  O219  1  0.36997199  0.25281349  0.00593758  1
  O  O220  1  0.37136860  0.25678151  0.50632140  1
  O  O221  1  0.36487740  0.75091921  0.00080820  1
  O  O222  1  0.36559584  0.75544547  0.50156955  1
  O  O223  1  0.86814713  0.25598985  0.00727296  1
  O  O224  1  0.86863098  0.25736486  0.50716044  1
  O  O225  1  0.87604442  0.75506017  0.00668931  1
  O  O226  1  0.88126916  0.76102321  0.49852050  1
  O  O227  1  0.13572991  0.24576536  0.50573419  1
  O  O228  1  0.13315341  0.24477950  1.00182072  1
  O  O229  1  0.13368074  0.74245192  0.50041623  1
  O  O230  1  0.12718551  0.74193838  0.99385029  1
  O  O231  1  0.62750308  0.24833445  0.49440850  1
  O  O232  1  0.63122405  0.25021852  0.99378420  1
  O  O233  1  0.61645951  0.73846485  0.49098378  1
  O  O234  1  0.62412298  0.74400723  0.99301781  1
  O  O235  1  0.48946738  0.25078020  0.12828190  1
  O  O236  1  0.49120933  0.23911315  0.62094934  1
  O  O237  1  0.49993482  0.74297631  0.13508600  1
  O  O238  1  0.49488977  0.73759794  0.62590421  1
  O  O239  1  0.98684165  0.24841987  0.12832828  1
  O  O240  1  0.98612706  0.24617807  0.61921881  1
  O  O241  1  0.98734425  0.75414758  0.13372948  1
  O  O242  1  1.00755822  0.75303998  0.64076944  1
  O  O243  1  0.00075208  0.26211095  0.37403834  1
  O  O244  1  0.00254150  0.26332447  0.88014182  1
  O  O245  1  -0.00177565  0.76287210  0.36479667  1
  O  O246  1  0.00519558  0.75503841  0.86797782  1
  O  O247  1  0.51284522  0.24788936  0.36802085  1
  O  O248  1  0.50822998  0.25706658  0.88006944  1
  O  O249  1  0.50785329  0.74358196  0.36093743  1
  O  O250  1  0.51255943  0.74721465  0.87566179  1
  O  O251  1  0.24908374  0.13714751  0.49029536  1
  O  O252  1  0.24653638  0.13449576  0.99525569  1
  O  O253  1  0.24081326  0.62883691  0.49174123  1
  O  O254  1  0.24227042  0.63524599  0.99831262  1
  O  O255  1  0.74014150  0.13167926  0.50386605  1
  O  O256  1  0.75066595  0.13654144  0.99264832  1
  O  O257  1  0.74102940  0.62136780  0.48857544  1
  O  O258  1  0.73344667  0.62860125  1.00545452  1
  O  O259  1  0.25952470  0.36232705  -0.00557730  1
  O  O260  1  0.25988342  0.36436186  0.49830814  1
  O  O261  1  0.24626686  0.86209945  0.00629218  1
  O  O262  1  0.25090699  0.86028046  0.49323949  1
  O  O263  1  0.75681325  0.36196069  -0.00215462  1
  O  O264  1  0.75484303  0.37274023  0.50599088  1
  O  O265  1  0.76362099  0.87341497  -0.00035196  1
  O  O266  1  0.76086804  0.88024599  0.51499920  1
  O  O267  1  0.11765164  0.50544580  0.23355155  1
  O  O268  1  0.13051920  0.49627158  0.74444868  1
  O  O269  1  0.12720446  0.98989376  0.24132494  1
  O  O270  1  0.12837785  0.99180745  0.75367637  1
  O  O271  1  0.63013752  0.49323618  0.24563908  1
  O  O272  1  0.61953138  0.48997603  0.75026587  1
  O  O273  1  0.63063118  1.00399812  0.24115302  1
  O  O274  1  0.63656975  0.99983913  0.74863411  1
  O  O275  1  0.37569340  0.00757698  0.25077270  1
  O  O276  1  0.37873938  0.01350111  0.75642813  1
  O  O277  1  0.38048727  0.51157347  0.25104913  1
  O  O278  1  0.36803469  0.50267919  0.75480109  1
  O  O279  1  0.86875496  0.00652078  0.25055733  1
  O  O280  1  0.87029655  0.00781641  0.75639351  1
  O  O281  1  0.86917963  0.50580309  0.25015416  1
  O  O282  1  0.88242562  0.51455103  0.75023260  1
  O  O283  1  0.11963858  0.37749460  0.37761123  1
  O  O284  1  0.11779919  0.37292126  0.86564323  1
  O  O285  1  0.12043417  0.87842010  0.36306588  1
  O  O286  1  0.11261855  0.86208079  0.88110885  1
  O  O287  1  0.62782022  0.36994931  0.36216059  1
  O  O288  1  0.61579294  0.37022798  0.87224076  1
  O  O289  1  0.63230602  0.86130343  0.38298582  1
  O  O290  1  0.62895269  0.86219433  0.87563009  1
  O  O291  1  0.36785866  0.13216227  0.13740386  1
  O  O292  1  0.38244008  0.13259626  0.63157613  1
  O  O293  1  0.38088170  0.62450266  0.13058500  1
  O  O294  1  0.38003985  0.62478936  0.63282164  1
  O  O295  1  0.87723759  0.13163377  0.13281852  1
  O  O296  1  0.88190337  0.13415540  0.63218015  1
  O  O297  1  0.87144612  0.63034845  0.13540997  1
  O  O298  1  0.87795562  0.62468524  0.63672142  1
  O  O299  1  0.26149870  0.25450052  0.11754277  1
  O  O300  1  0.26277387  0.24378882  0.61551505  1
  O  O301  1  0.24904750  0.75434126  0.11687094  1
  O  O302  1  0.25059207  0.73935048  0.60597506  1
  O  O303  1  0.76107272  0.24560892  0.11807708  1
  O  O304  1  0.75970716  0.26084206  0.62040653  1
  O  O305  1  0.76244350  0.75331780  0.12567115  1
  O  O306  1  0.74910126  0.75935111  0.62602351  1
  O  O307  1  0.24372655  0.24882827  0.37741581  1
  O  O308  1  0.24782590  0.23934096  0.88321211  1
  O  O309  1  0.25317715  0.73395393  0.38853191  1
  O  O310  1  0.23951139  0.74795180  0.88021292  1
  O  O311  1  0.73833502  0.24990497  0.38248005  1
  O  O312  1  0.74222408  0.24577849  0.88284309  1
  O  O313  1  0.74158044  0.73832520  0.36546661  1
  O  O314  1  0.73571029  0.74225739  0.87750008  1
  O  O315  1  0.00655721  0.11652391  0.00073494  1
  O  O316  1  0.00195024  0.11955658  0.50639293  1
  O  O317  1  0.00590136  0.61519399  -0.00394718  1
  O  O318  1  0.01383472  0.61822553  0.48845355  1
  O  O319  1  0.49816440  0.10826886  0.00122310  1
  O  O320  1  0.51110321  0.12408821  0.50523059  1
  O  O321  1  0.50849196  0.62825588  0.01456458  1
  O  O322  1  0.50395720  0.62065382  0.50596807  1
  O  O323  1  0.49524744  0.38728407  0.50807703  1
  O  O324  1  0.48530915  0.37152993  0.99011912  1
  O  O325  1  0.49463415  0.88580814  0.50458818  1
  O  O326  1  0.49500875  0.89215969  1.00763944  1
  O  O327  1  0.99320790  0.38325149  0.49148307  1
  O  O328  1  0.99193844  0.38011546  0.99452016  1
  O  O329  1  0.99701371  0.87955132  0.49525873  1
  O  O330  1  0.99010813  0.87826754  0.99152203  1
  O  O331  1  0.49824559  0.50831176  0.38836180  1
  O  O332  1  0.48473385  0.49064352  0.87323394  1
  O  O333  1  0.49925072  1.00911175  0.38846095  1
  O  O334  1  0.49171694  1.00113322  0.88418006  1
  O  O335  1  0.99401415  0.49364793  0.38353109  1
  O  O336  1  0.99700148  0.48840037  0.88699480  1
  O  O337  1  0.99790514  0.98729555  0.38013075  1
  O  O338  1  0.99363787  0.99113431  0.87801446  1
  O  O339  1  0.01196679  -0.00316139  0.11948319  1
  O  O340  1  -0.00675747  0.01213440  0.61763192  1
  O  O341  1  0.01171932  0.49398283  0.11168815  1
  O  O342  1  0.00542038  0.49890792  0.60976171  1
  O  O343  1  0.51063049  0.00151069  0.11965634  1
  O  O344  1  0.50176692  0.01595096  0.61267297  1
  O  O345  1  0.51047016  0.50776011  0.13157400  1
  O  O346  1  0.50339755  0.51283269  0.61694107  1
  O  O347  1  0.24444553  0.36054460  0.26211647  1
  O  O348  1  0.24118588  0.38566693  0.75434694  1
  O  O349  1  0.24318544  0.87022711  0.24452389  1
  O  O350  1  0.24848221  0.87939728  0.73398142  1
  O  O351  1  0.74211532  0.38542758  0.25243456  1
  O  O352  1  0.74138184  0.37359323  0.74340409  1
  O  O353  1  0.75777218  0.88761878  0.24993132  1
  O  O354  1  0.75162685  0.88053230  0.73889469  1
  O  O355  1  0.25795071  0.12234711  0.25703278  1
  O  O356  1  0.25842038  0.12867869  0.76158877  1
  O  O357  1  0.25650925  0.63171301  0.26185511  1
  O  O358  1  0.25840586  0.61420139  0.75100747  1
  O  O359  1  0.76151460  0.11542558  0.25117340  1
  O  O360  1  0.76036876  0.11968070  0.75493315  1
  O  O361  1  0.75656311  0.61759585  0.25559216  1
  O  O362  1  0.76294769  0.62776894  0.74553164  1
  O  O363  1  0.36538406  0.12991654  0.36300047  1
  O  O364  1  0.36921791  0.11924439  0.86723992  1
  O  O365  1  0.36569799  0.62218319  0.36806725  1
  O  O366  1  0.37394146  0.61631091  0.86903445  1
  O  O367  1  0.87208920  0.12416577  0.36705117  1
  O  O368  1  0.87173267  0.12187623  0.86871255  1
  O  O369  1  0.86806625  0.62145439  0.36523926  1
  O  O370  1  0.87147666  0.62306421  0.86085388  1
  O  O371  1  0.12912932  0.38701092  0.12304801  1
  O  O372  1  0.11746966  0.38858759  0.63245410  1
  O  O373  1  0.13220456  0.87764541  0.13164925  1
  O  O374  1  0.12655624  0.89176741  0.62064201  1
  O  O375  1  0.61963665  0.38196776  0.13643968  1
  O  O376  1  0.63285716  0.37533439  0.63686334  1
  O  O377  1  0.62925707  0.89340986  0.11951061  1
  O  O378  1  0.64181887  0.87786848  0.62372912  1
  O  O379  1  0.12366528  0.24634858  0.24753519  1
  O  O380  1  0.13184634  0.26309593  0.74636533  1
  O  O381  1  0.11323122  0.75558421  0.24185470  1
  O  O382  1  0.11539511  0.73873798  0.76150080  1
  O  O383  1  0.62329747  0.25405077  0.25340531  1
  O  O384  1  0.63029493  0.26043641  0.76325517  1
  O  O385  1  0.61190388  0.74606077  0.25636287  1
  O  O386  1  0.61978705  0.75040356  0.76482543  1
  O  O387  1  0.38529599  0.24405873  0.24145684  1
  O  O388  1  0.37058159  0.24065670  0.74159992  1
  O  O389  1  0.38581616  0.73818605  0.24923797  1
  O  O390  1  0.37147767  0.74004707  0.74902023  1
  O  O391  1  0.87296031  0.24309211  0.24368000  1
  O  O392  1  0.86889042  0.24261030  0.74292092  1
  O  O393  1  0.88281835  0.74363807  0.24414945  1
  O  O394  1  0.88717357  0.73906034  0.75160592  1
  O  O395  1  0.38233668  0.49179495  0.50335367  1
  O  O396  1  0.36581931  0.49002367  0.99233126  1
  O  O397  1  0.38382907  0.99556082  0.49664501  1
  O  O398  1  0.38312532  0.99788273  0.99111415  1
  O  O399  1  0.88158406  0.49887057  0.49472094  1
  O  O400  1  0.88179082  0.49236032  1.00489229  1
  O  O401  1  0.88730107  0.99378976  0.49836013  1
  O  O402  1  0.87865115  0.99368887  0.99586136  1
  O  O403  1  0.12046145  0.00186177  0.00532706  1
  O  O404  1  0.11022429  0.01013721  0.49353873  1
  O  O405  1  0.11908865  0.50538410  0.00274727  1
  O  O406  1  0.11964158  0.50573690  0.50685147  1
  O  O407  1  0.61496334  0.00349636  0.00362437  1
  O  O408  1  0.62112667  0.01072627  0.50363390  1
  O  O409  1  0.62527188  0.50446662  0.01301038  1
  O  O410  1  0.61842085  0.51167142  0.50071437  1
  O  O411  1  0.37136082  0.36852441  0.11850862  1
  O  O412  1  0.38235686  0.36371903  0.62000696  1
  O  O413  1  0.35943855  0.87319053  0.12291409  1
  O  O414  1  0.36958951  0.87664246  0.60638188  1
  O  O415  1  0.87741570  0.36789944  0.11366548  1
  O  O416  1  0.87019148  0.37131699  0.62312329  1
  O  O417  1  0.87493845  0.86797209  0.11594033  1
  O  O418  1  0.86321053  0.87707456  0.61979640  1
  O  O419  1  0.13697282  0.12362150  0.37879078  1
  O  O420  1  0.13185441  0.12655306  0.87963776  1
  O  O421  1  0.13724493  0.62084085  0.38052348  1
  O  O422  1  0.12510908  0.62963570  0.88595733  1
  O  O423  1  0.62847566  0.13512524  0.38507715  1
  O  O424  1  0.62953431  0.13314675  0.87677064  1
  O  O425  1  0.63236637  0.63125225  0.38008508  1
  O  O426  1  0.62166112  0.63049920  0.88472386  1
