# generated using pymatgen
data_V85Zn86O256
_symmetry_space_group_name_H-M   'P 1'
_cell_length_a   16.95374797
_cell_length_b   16.97184521
_cell_length_c   16.97717553
_cell_angle_alpha   89.97854944
_cell_angle_beta   90.04335618
_cell_angle_gamma   90.09979509
_symmetry_Int_Tables_number   1
_chemical_formula_structural   V85Zn86O256
_chemical_formula_sum   'V85 Zn86 O256'
_cell_volume   4884.94199045
_cell_formula_units_Z   1
loop_
 _symmetry_equiv_pos_site_id
 _symmetry_equiv_pos_as_xyz
  1  'x, y, z'
loop_
 _atom_site_type_symbol
 _atom_site_label
 _atom_site_symmetry_multiplicity
 _atom_site_fract_x
 _atom_site_fract_y
 _atom_site_fract_z
 _atom_site_occupancy
  V  V0  1  0.37257421  0.25227564  0.62250365  1
  V  V1  1  0.12255900  0.37328331  0.24928742  1
  V  V2  1  0.37926237  0.12900733  0.74850385  1
  V  V3  1  0.74929291  0.62601908  0.38495528  1
  V  V4  1  0.49825033  0.24680409  0.25160365  1
  V  V5  1  0.87702810  0.37164562  0.51300723  1
  V  V6  1  0.12266636  0.25259305  0.37349449  1
  V  V7  1  0.12159196  0.61990470  -0.00382929  1
  V  V8  1  -0.00491881  0.12215669  0.12956266  1
  V  V9  1  -0.00602384  0.74838164  0.24708588  1
  V  V10  1  0.38325911  0.62493504  0.24799752  1
  V  V11  1  0.37641932  0.61786932  0.75062272  1
  V  V12  1  -0.01053039  0.24690662  0.24910662  1
  V  V13  1  0.36568827  0.49870842  0.87600667  1
  V  V14  1  0.50061234  0.87568101  0.37664749  1
  V  V15  1  0.75620292  0.86536094  0.12761015  1
  V  V16  1  0.25073476  0.12384703  0.87443238  1
  V  V17  1  0.11872518  -0.00173062  0.61953261  1
  V  V18  1  0.37690698  -0.00000964  0.87318026  1
  V  V19  1  0.87415219  0.00719619  0.38047137  1
  V  V20  1  -0.00296795  0.25323539  0.74784097  1
  V  V21  1  0.74746878  -0.00305022  0.74766812  1
  V  V22  1  0.87534362  0.12851319  0.74852964  1
  V  V23  1  0.24838046  -0.00089239  0.74869876  1
  V  V24  1  0.87268973  0.62527385  0.24670032  1
  V  V25  1  0.12337109  0.25088506  0.87233001  1
  V  V26  1  0.74929594  0.49680530  0.24388296  1
  V  V27  1  0.25052509  -0.00119480  0.25040442  1
  V  V28  1  0.87910393  0.50700477  0.85708830  1
  V  V29  1  0.62617169  0.25322206  0.87952219  1
  V  V30  1  0.12128636  0.74933111  0.87097251  1
  V  V31  1  0.72466149  0.49878651  0.74658717  1
  V  V32  1  0.86595123  0.24351738  0.11145840  1
  V  V33  1  -0.01995755  0.62804651  0.62508316  1
  V  V34  1  0.55614796  0.30161895  0.69541658  1
  V  V35  1  0.25062085  0.50354446  0.24847449  1
  V  V36  1  0.62553010  0.87452826  0.25107330  1
  V  V37  1  0.25453612  0.86917804  0.12375839  1
  V  V38  1  0.12306872  0.74879284  0.37543303  1
  V  V39  1  0.12405939  0.12193689  -0.00055452  1
  V  V40  1  0.25000509  0.12447830  0.37584365  1
  V  V41  1  0.50528951  0.37764254  0.88622649  1
  V  V42  1  0.74739253  0.24482345  0.50875353  1
  V  V43  1  0.87707984  0.86245715  0.50220312  1
  V  V44  1  0.39278027  0.75071836  0.63237352  1
  V  V45  1  -0.00321349  0.12434823  0.62333525  1
  V  V46  1  0.25479232  0.62568170  0.37367190  1
  V  V47  1  0.50184082  0.00241509  -0.00164056  1
  V  V48  1  0.25104061  0.24890394  0.00131356  1
  V  V49  1  0.50448440  0.12402558  0.62318480  1
  V  V50  1  0.87680449  0.49099953  0.37382982  1
  V  V51  1  0.37569198  0.00073933  0.37704260  1
  V  V52  1  0.63313554  0.12917548  0.00072416  1
  V  V53  1  0.12205529  0.12337130  0.50119158  1
  V  V54  1  0.51075676  0.86984339  0.86117839  1
  V  V55  1  0.87516821  0.38965831  -0.00115864  1
  V  V56  1  0.62543820  0.37579591  0.25142487  1
  V  V57  1  0.12700969  0.50614575  0.63644860  1
  V  V58  1  0.49289674  0.75060671  0.25096706  1
  V  V59  1  0.12358815  0.62445236  0.50204692  1
  V  V60  1  0.24948358  0.86992966  0.62521206  1
  V  V61  1  0.12451687  0.87202027  0.24958075  1
  V  V62  1  0.50777830  0.00319972  0.49829390  1
  V  V63  1  0.37608700  0.87682285  -0.00026118  1
  V  V64  1  0.62645736  0.00336214  0.12936576  1
  V  V65  1  0.12425599  -0.00283019  0.12468513  1
  V  V66  1  -0.00244451  -0.00298897  -0.00023566  1
  V  V67  1  0.62672346  0.24565202  0.38136923  1
  V  V68  1  0.43158170  0.70024758  0.06939268  1
  V  V69  1  0.24621027  0.74390000  -0.00186486  1
  V  V70  1  0.63159542  0.00254431  0.62327526  1
  V  V71  1  0.11668131  0.49875036  0.12208752  1
  V  V72  1  0.61253579  0.50215975  0.12031528  1
  V  V73  1  -0.00492415  0.62661211  0.11689369  1
  V  V74  1  0.25045144  0.25425291  0.50045690  1
  V  V75  1  0.24956424  0.37645996  0.12543022  1
  V  V76  1  0.48931388  0.38464951  0.38052577  1
  V  V77  1  -0.00090466  0.87985338  0.38000743  1
  V  V78  1  0.24770455  0.38018179  0.63344469  1
  V  V79  1  0.62811478  0.74487023  0.38477357  1
  V  V80  1  -0.00345624  0.87349860  0.87327965  1
  V  V81  1  0.87196520  -0.00352807  0.87584493  1
  V  V82  1  0.75053300  0.86180654  0.61753945  1
  V  V83  1  -0.02636291  0.74800836  0.74615193  1
  V  V84  1  0.12128444  0.87150350  0.74809980  1
  Zn  Zn85  1  0.37361630  0.37497862  0.00050704  1
  Zn  Zn86  1  0.37600933  0.87475720  0.50279895  1
  Zn  Zn87  1  0.12473931  0.38392595  0.75590337  1
  Zn  Zn88  1  0.61943649  0.62848962  0.00102877  1
  Zn  Zn89  1  0.00136470  0.37995826  0.88008715  1
  Zn  Zn90  1  0.00284274  0.49669165  0.49921457  1
  Zn  Zn91  1  0.87451074  0.86618547  0.00546112  1
  Zn  Zn92  1  0.51124558  0.60214379  0.61065876  1
  Zn  Zn93  1  0.75639414  0.73890515  0.00378297  1
  Zn  Zn94  1  0.25109473  0.75330913  0.50044277  1
  Zn  Zn95  1  0.40847166  0.43601567  0.52832840  1
  Zn  Zn96  1  0.74498790  0.36772526  0.11709850  1
  Zn  Zn97  1  -0.00071707  0.37320361  0.37617254  1
  Zn  Zn98  1  0.74957080  0.12705015  0.37491694  1
  Zn  Zn99  1  0.49712237  0.12825337  0.12406711  1
  Zn  Zn100  1  0.75942337  0.00616160  0.25008292  1
  Zn  Zn101  1  0.74338286  0.62104380  0.87655481  1
  Zn  Zn102  1  0.37399002  0.24748777  0.12679047  1
  Zn  Zn103  1  0.37434575  0.12529867  0.24859270  1
  Zn  Zn104  1  0.74693817  0.37302502  0.63422590  1
  Zn  Zn105  1  0.24444287  0.61725090  0.86567118  1
  Zn  Zn106  1  0.75145573  0.13083254  0.87640019  1
  Zn  Zn107  1  0.18498409  0.18520232  0.18814396  1
  Zn  Zn108  1  0.18685991  0.18723175  0.68886354  1
  Zn  Zn109  1  0.18539070  0.68667468  0.18524964  1
  Zn  Zn110  1  0.18768056  0.68680894  0.69130337  1
  Zn  Zn111  1  0.68762846  0.18398445  0.19430620  1
  Zn  Zn112  1  0.69386667  0.18064751  0.68383660  1
  Zn  Zn113  1  0.67980088  0.68288363  0.19320123  1
  Zn  Zn114  1  0.66696030  0.67983572  0.70218112  1
  Zn  Zn115  1  0.31261246  0.31282646  0.31252819  1
  Zn  Zn116  1  0.31457301  0.31204928  0.81113467  1
  Zn  Zn117  1  0.31354586  0.81237330  0.31362280  1
  Zn  Zn118  1  0.31736942  0.80925191  0.81316411  1
  Zn  Zn119  1  0.81069828  0.30768264  0.30975990  1
  Zn  Zn120  1  0.80999309  0.31823570  0.81508857  1
  Zn  Zn121  1  0.81180329  0.81281132  0.31395713  1
  Zn  Zn122  1  0.76901736  0.79298342  0.78957099  1
  Zn  Zn123  1  0.22526042  0.45856808  0.45765381  1
  Zn  Zn124  1  0.18726630  0.43692277  0.93963412  1
  Zn  Zn125  1  0.18641158  0.93638368  0.43996596  1
  Zn  Zn126  1  0.18668418  0.93466162  0.93638226  1
  Zn  Zn127  1  0.69919149  0.42684993  0.42916039  1
  Zn  Zn128  1  0.69364795  0.43972818  0.93863957  1
  Zn  Zn129  1  0.69036683  0.93588932  0.43924841  1
  Zn  Zn130  1  0.69014772  0.93718943  0.94148670  1
  Zn  Zn131  1  0.31383155  0.06229252  0.06498567  1
  Zn  Zn132  1  0.31261315  0.06139892  0.56107385  1
  Zn  Zn133  1  0.43819288  0.54050820  0.05682761  1
  Zn  Zn134  1  0.31118639  0.57262242  0.56549070  1
  Zn  Zn135  1  0.81066541  0.05818367  0.06381077  1
  Zn  Zn136  1  0.82054186  0.06010071  0.55676982  1
  Zn  Zn137  1  0.80869157  0.56353939  0.06350414  1
  Zn  Zn138  1  0.69993422  0.56738171  0.56559473  1
  Zn  Zn139  1  0.43316300  0.43146882  0.20119341  1
  Zn  Zn140  1  0.43394924  0.44045997  0.69915339  1
  Zn  Zn141  1  0.43797625  0.93912902  0.18720086  1
  Zn  Zn142  1  0.43683570  0.94063126  0.68613673  1
  Zn  Zn143  1  0.93583866  0.43310662  0.18376463  1
  Zn  Zn144  1  0.94286894  0.44092245  0.68677436  1
  Zn  Zn145  1  0.93687199  0.93859124  0.19441041  1
  Zn  Zn146  1  0.93243179  0.93709065  0.68688370  1
  Zn  Zn147  1  0.06098967  0.06155374  0.31292530  1
  Zn  Zn148  1  0.06107040  0.06149127  0.80985228  1
  Zn  Zn149  1  0.06163395  0.56141209  0.31210447  1
  Zn  Zn150  1  0.05094212  0.56762206  0.81066147  1
  Zn  Zn151  1  0.56738414  0.06576182  0.31378084  1
  Zn  Zn152  1  0.56485834  0.06273972  0.81112603  1
  Zn  Zn153  1  0.56267206  0.56229865  0.42939916  1
  Zn  Zn154  1  0.55409819  0.56624792  0.81518352  1
  Zn  Zn155  1  0.43991749  0.18987464  0.43914521  1
  Zn  Zn156  1  0.44239119  0.19125415  0.93585723  1
  Zn  Zn157  1  0.43403345  0.69011476  0.44245717  1
  Zn  Zn158  1  0.62719685  0.74696276  0.87680689  1
  Zn  Zn159  1  0.93726794  0.19081805  0.44287352  1
  Zn  Zn160  1  0.93832808  0.18472433  0.93625745  1
  Zn  Zn161  1  0.93511383  0.68261905  0.43621793  1
  Zn  Zn162  1  0.92439584  0.69312168  0.93663698  1
  Zn  Zn163  1  0.05838170  0.31061714  0.06010217  1
  Zn  Zn164  1  0.06366483  0.31371338  0.56496597  1
  Zn  Zn165  1  0.05919409  0.80957607  0.06159687  1
  Zn  Zn166  1  0.05756579  0.80695050  0.56357139  1
  Zn  Zn167  1  0.56219049  0.31232703  0.06444357  1
  Zn  Zn168  1  0.57234406  0.43214150  0.55959465  1
  Zn  Zn169  1  0.57193121  0.81965184  0.05467110  1
  Zn  Zn170  1  0.56816995  0.81675118  0.56447370  1
  O  O171  1  0.11764922  0.11703605  0.11848196  1
  O  O172  1  0.12015119  0.11589675  0.62292792  1
  O  O173  1  0.11767583  0.61712458  0.11754042  1
  O  O174  1  0.12564316  0.62125768  0.61705552  1
  O  O175  1  0.62182157  0.11887647  0.11874849  1
  O  O176  1  0.61644601  0.11480149  0.62573040  1
  O  O177  1  0.62156744  0.60474718  0.12972889  1
  O  O178  1  0.62182039  0.62743180  0.61855648  1
  O  O179  1  0.38883086  0.37445014  0.37002552  1
  O  O180  1  0.38109612  0.38023854  0.87327624  1
  O  O181  1  0.38124477  0.88372393  0.37729137  1
  O  O182  1  0.38106971  0.88300804  0.88123299  1
  O  O183  1  0.87674347  0.38169026  0.37168921  1
  O  O184  1  0.87647052  0.38604601  0.88580805  1
  O  O185  1  0.88077420  0.87817024  0.38472679  1
  O  O186  1  0.88165517  0.88985676  0.87613511  1
  O  O187  1  0.25491163  0.00340211  0.37166579  1
  O  O188  1  0.25599212  0.00481099  0.87042583  1
  O  O189  1  0.23517610  0.51352953  0.35513955  1
  O  O190  1  0.26045738  0.49621663  0.87394543  1
  O  O191  1  0.76352201  0.00239096  0.37972140  1
  O  O192  1  0.75642941  -0.00067128  0.86556512  1
  O  O193  1  0.75909122  0.50375870  0.36075515  1
  O  O194  1  0.76152510  0.49708330  0.86545063  1
  O  O195  1  0.23350530  0.49020130  0.13586018  1
  O  O196  1  0.24000842  0.49134349  0.62441483  1
  O  O197  1  0.24273654  0.99114804  0.12898620  1
  O  O198  1  0.24329962  0.99060592  0.62897472  1
  O  O199  1  0.74399902  0.49394937  0.13572762  1
  O  O200  1  0.74245098  0.49119490  0.64110885  1
  O  O201  1  0.73788239  0.99390959  0.12916609  1
  O  O202  1  0.74382304  1.00533662  0.62683167  1
  O  O203  1  0.00605849  0.36365713  0.24874424  1
  O  O204  1  0.00314312  0.36541565  0.75322474  1
  O  O205  1  0.00482771  0.86528816  0.25608200  1
  O  O206  1  0.00150199  0.86699423  0.75221574  1
  O  O207  1  0.50653790  0.36320178  0.25845103  1
  O  O208  1  0.50110663  0.36335580  0.75562504  1
  O  O209  1  0.50514911  0.87036155  0.25537669  1
  O  O210  1  0.49816931  0.88655777  0.76256281  1
  O  O211  1  0.50086407  0.13758349  0.25142855  1
  O  O212  1  0.48963953  0.11593144  0.73664570  1
  O  O213  1  0.48457284  0.63484925  0.25127495  1
  O  O214  1  0.48144768  0.61539172  0.73749896  1
  O  O215  1  1.00587964  0.13014545  0.23649221  1
  O  O216  1  0.99433500  0.13010558  0.74315937  1
  O  O217  1  0.99398082  0.63089169  0.24288802  1
  O  O218  1  0.99656432  0.63575735  0.73500053  1
  O  O219  1  0.36047056  0.24927731  -0.00002624  1
  O  O220  1  0.36563424  0.24321222  0.51328441  1
  O  O221  1  0.36635947  0.75475847  0.00679143  1
  O  O222  1  0.37090996  0.75509417  0.51764737  1
  O  O223  1  0.87433220  0.24738542  0.00971845  1
  O  O224  1  0.86633806  0.26550744  0.49178284  1
  O  O225  1  0.87302730  0.75328279  0.01274764  1
  O  O226  1  0.87608006  0.76342410  0.49269500  1
  O  O227  1  0.12936041  0.24328775  0.49274229  1
  O  O228  1  0.13219245  0.24406041  0.99113827  1
  O  O229  1  0.12411524  0.74023621  0.49409836  1
  O  O230  1  0.12754400  0.74217997  0.99246749  1
  O  O231  1  0.64542341  0.25623231  0.49335382  1
  O  O232  1  0.61965473  0.24030213  0.99323364  1
  O  O233  1  0.62220901  0.75832709  0.48299754  1
  O  O234  1  0.63264342  0.74745748  0.99866330  1
  O  O235  1  0.49644223  0.25026348  0.13662469  1
  O  O236  1  0.49253791  0.24344294  0.63169873  1
  O  O237  1  0.49392696  0.75933972  0.12794588  1
  O  O238  1  0.49204681  0.75773353  0.62685940  1
  O  O239  1  0.99243983  0.23938594  0.12891730  1
  O  O240  1  1.00969766  0.24079109  0.64098112  1
  O  O241  1  1.00695357  0.73968727  0.13762163  1
  O  O242  1  0.99730685  0.73816761  0.63272594  1
  O  O243  1  0.00566662  0.24622990  0.36453390  1
  O  O244  1  0.00834686  0.24665462  0.86599870  1
  O  O245  1  0.00484330  0.75642221  0.36716704  1
  O  O246  1  0.00051514  0.75382074  0.86445226  1
  O  O247  1  0.50666517  0.25659201  0.37130461  1
  O  O248  1  0.50802497  0.26392049  0.87402198  1
  O  O249  1  0.50343727  0.75736114  0.36714181  1
  O  O250  1  0.50192477  0.77253133  0.87412844  1
  O  O251  1  0.24298221  0.13408259  0.49636473  1
  O  O252  1  0.24370333  0.12959941  0.99505695  1
  O  O253  1  0.24026924  0.63347448  0.48860565  1
  O  O254  1  0.23806358  0.63895096  0.99423250  1
  O  O255  1  0.76329879  0.14185605  0.49575130  1
  O  O256  1  0.73656349  0.11766336  0.99645451  1
  O  O257  1  0.76255412  0.61946087  0.48271580  1
  O  O258  1  0.74049882  0.62063896  0.99988912  1
  O  O259  1  0.24811232  0.36532703  0.00920046  1
  O  O260  1  0.23966100  0.35801080  0.51338414  1
  O  O261  1  0.25423450  0.86646608  0.00464148  1
  O  O262  1  0.25243880  0.87448167  0.51077230  1
  O  O263  1  0.76809234  0.37444676  0.00172461  1
  O  O264  1  0.76280294  0.36573151  0.50595682  1
  O  O265  1  0.75046588  0.87790173  0.02009362  1
  O  O266  1  0.76214885  0.87720497  0.50893855  1
  O  O267  1  0.12627964  0.49269394  0.24160193  1
  O  O268  1  0.12042985  0.50467142  0.74008727  1
  O  O269  1  0.13015249  0.99142160  0.24562619  1
  O  O270  1  0.12936968  0.99334614  0.74093252  1
  O  O271  1  0.63320984  0.48444829  0.24084049  1
  O  O272  1  0.62572076  0.49339761  0.75616617  1
  O  O273  1  0.62099646  0.99084314  0.24376224  1
  O  O274  1  0.63763364  1.00579130  0.73951219  1
  O  O275  1  0.36822894  0.00059200  0.25893585  1
  O  O276  1  0.36702178  0.01069986  0.75162954  1
  O  O277  1  0.36264390  0.51208555  0.24251240  1
  O  O278  1  0.36579858  0.50635093  0.75883796  1
  O  O279  1  0.87566190  -0.00965233  0.27368625  1
  O  O280  1  0.87298633  0.01089733  0.75746200  1
  O  O281  1  0.86950667  0.50220861  0.25319062  1
  O  O282  1  0.87589031  0.50118432  0.75701336  1
  O  O283  1  0.12300376  0.35894920  0.37075752  1
  O  O284  1  0.12232330  0.36523525  0.87535822  1
  O  O285  1  0.11763538  0.86970523  0.37152315  1
  O  O286  1  0.11572888  0.87105075  0.86805709  1
  O  O287  1  0.61992873  0.36427550  0.36706686  1
  O  O288  1  0.61293698  0.37089637  0.88480841  1
  O  O289  1  0.62287551  0.87142767  0.36417042  1
  O  O290  1  0.61245225  0.88297983  0.88041697  1
  O  O291  1  0.37793380  0.12768415  0.13012528  1
  O  O292  1  0.37949837  0.13010368  0.63081101  1
  O  O293  1  0.37958463  0.63128780  0.12563446  1
  O  O294  1  0.37328187  0.64023102  0.63171610  1
  O  O295  1  0.88194541  0.13257121  0.11998975  1
  O  O296  1  0.88610036  0.11914191  0.63457525  1
  O  O297  1  0.88356512  0.61597007  0.13809988  1
  O  O298  1  0.88625694  0.62027656  0.61591445  1
  O  O299  1  0.24549659  0.25648684  0.11740819  1
  O  O300  1  0.25430994  0.25232971  0.61858302  1
  O  O301  1  0.23975578  0.76108124  0.11478768  1
  O  O302  1  0.24764332  0.76402962  0.62628829  1
  O  O303  1  0.76439048  0.24739517  0.13025729  1
  O  O304  1  0.75031147  0.25185413  0.61319414  1
  O  O305  1  0.74196418  0.76459598  0.13510410  1
  O  O306  1  0.74823153  0.76599917  0.62398055  1
  O  O307  1  0.24388395  0.24587046  0.38184769  1
  O  O308  1  0.24293713  0.24406456  0.88080904  1
  O  O309  1  0.24000793  0.74489064  0.37367980  1
  O  O310  1  0.24073809  0.75360407  0.88338957  1
  O  O311  1  0.74328293  0.25088268  0.38283040  1
  O  O312  1  0.73098513  0.25010855  0.86691368  1
  O  O313  1  0.73986611  0.73824693  0.36350849  1
  O  O314  1  0.75653915  0.73895803  0.88607401  1
  O  O315  1  0.00508588  0.11813993  0.00971193  1
  O  O316  1  0.00573286  0.13261986  0.51577786  1
  O  O317  1  0.00640731  0.63207447  0.01185581  1
  O  O318  1  0.00627805  0.62479763  0.50885235  1
  O  O319  1  0.50632338  0.11500998  0.00019257  1
  O  O320  1  0.49387570  0.11839532  0.51442889  1
  O  O321  1  0.49025907  0.63802451  0.01485638  1
  O  O322  1  0.48985415  0.61350726  0.49698735  1
  O  O323  1  0.49717133  0.37423681  0.48537974  1
  O  O324  1  0.49260649  0.37098481  0.98963803  1
  O  O325  1  0.49949185  0.88563203  0.49404055  1
  O  O326  1  0.49407450  0.88963789  0.99762924  1
  O  O327  1  0.99059975  0.37215340  0.49735029  1
  O  O328  1  0.98116687  0.36416877  0.99655463  1
  O  O329  1  0.99035415  0.87005601  0.49259142  1
  O  O330  1  0.99907742  0.88085785  0.99339190  1
  O  O331  1  0.50557732  0.48185021  0.36503958  1
  O  O332  1  0.48671672  0.48133577  0.86658646  1
  O  O333  1  0.49685391  0.99838808  0.38169499  1
  O  O334  1  0.49391181  0.99962233  0.88258674  1
  O  O335  1  0.99095974  0.49703975  0.37627848  1
  O  O336  1  0.98560331  0.49630897  0.87095268  1
  O  O337  1  0.99655866  0.98523272  0.37199793  1
  O  O338  1  0.99393731  0.99592100  0.87924279  1
  O  O339  1  0.00228074  0.00463967  0.12256905  1
  O  O340  1  0.01020658  0.00882668  0.63257934  1
  O  O341  1  0.01035009  0.50767848  0.13001695  1
  O  O342  1  0.00824341  0.51300807  0.62097541  1
  O  O343  1  0.51066649  0.00101683  0.11836527  1
  O  O344  1  0.50780365  0.00496420  0.61712890  1
  O  O345  1  0.50741098  0.48921646  0.13074020  1
  O  O346  1  0.48328680  0.48553129  0.60912199  1
  O  O347  1  0.24299733  0.38078009  0.24483919  1
  O  O348  1  0.24245154  0.36410335  0.73660922  1
  O  O349  1  0.24510513  0.87744182  0.24167253  1
  O  O350  1  0.24373433  0.88034844  0.74426719  1
  O  O351  1  0.74261053  0.37897563  0.24714921  1
  O  O352  1  0.75396774  0.38919105  0.74884718  1
  O  O353  1  0.74140461  0.88023781  0.24436496  1
  O  O354  1  0.76891844  0.89323295  0.72789813  1
  O  O355  1  0.24761590  0.11667360  0.25816344  1
  O  O356  1  0.25524646  0.11855307  0.75570474  1
  O  O357  1  0.25587168  0.62116349  0.25066921  1
  O  O358  1  0.26657170  0.63369685  0.75282122  1
  O  O359  1  0.74387208  0.11744648  0.26165114  1
  O  O360  1  0.76050827  0.11584299  0.75193809  1
  O  O361  1  0.75782823  0.61562028  0.25145524  1
  O  O362  1  0.74189866  0.60332460  0.75620491  1
  O  O363  1  0.36801473  0.11751354  0.37554342  1
  O  O364  1  0.37250400  0.12218125  0.86623129  1
  O  O365  1  0.35937854  0.63622797  0.36305737  1
  O  O366  1  0.37437014  0.60642568  0.86564181  1
  O  O367  1  0.88489693  0.10857575  0.38163879  1
  O  O368  1  0.87380797  0.11421466  0.86930560  1
  O  O369  1  0.87289561  0.61399420  0.36273455  1
  O  O370  1  0.87553142  0.60671360  0.87961215  1
  O  O371  1  0.12876954  0.37932094  0.12583688  1
  O  O372  1  0.12866310  0.38749802  0.62793570  1
  O  O373  1  0.13084492  0.87975093  0.12889335  1
  O  O374  1  0.12803504  0.88089758  0.62732855  1
  O  O375  1  0.62670071  0.37939087  0.13275462  1
  O  O376  1  0.61670785  0.35653721  0.63535047  1
  O  O377  1  0.63058617  0.88342658  0.13602291  1
  O  O378  1  0.64233586  0.88818287  0.61758752  1
  O  O379  1  0.11644303  0.25296901  0.25509397  1
  O  O380  1  0.11910156  0.24676498  0.76279248  1
  O  O381  1  0.11692907  0.75393155  0.25559350  1
  O  O382  1  0.11882530  0.75662591  0.75555397  1
  O  O383  1  0.61863724  0.25863388  0.25642791  1
  O  O384  1  0.61778938  0.24272499  0.75215948  1
  O  O385  1  0.60997523  0.75665396  0.25319301  1
  O  O386  1  0.65651589  0.76726194  0.76602228  1
  O  O387  1  0.38335445  0.24726117  0.25028245  1
  O  O388  1  0.36700194  0.23683334  0.73791923  1
  O  O389  1  0.38523229  0.74812477  0.24898319  1
  O  O390  1  0.37498747  0.74439016  0.73773167  1
  O  O391  1  0.88648790  0.25299677  0.23846296  1
  O  O392  1  0.88283843  0.23783323  0.75996663  1
  O  O393  1  0.88513030  0.74050486  0.25581161  1
  O  O394  1  0.87586901  0.75685408  0.75205671  1
  O  O395  1  0.33064758  0.49917925  0.48386226  1
  O  O396  1  0.37017997  0.49332153  0.98310696  1
  O  O397  1  0.38564432  0.99850382  0.49464345  1
  O  O398  1  0.38190257  0.99785365  0.99385654  1
  O  O399  1  0.87810314  0.47941801  0.48676412  1
  O  O400  1  0.87876653  0.48999014  1.00414074  1
  O  O401  1  0.87890993  0.98693930  0.48695572  1
  O  O402  1  0.88035262  0.99685110  0.99290422  1
  O  O403  1  0.11840278  0.00233902  0.00484396  1
  O  O404  1  0.12830436  0.00634890  0.51209739  1
  O  O405  1  0.12854504  0.51231150  0.00627410  1
  O  O406  1  0.12687753  0.51355111  0.50551906  1
  O  O407  1  0.61826624  0.00608314  0.00864573  1
  O  O408  1  0.61495641  -0.00069641  0.50396202  1
  O  O409  1  0.62460102  0.49480481  0.01884339  1
  O  O410  1  0.63702497  0.49641697  0.49336584  1
  O  O411  1  0.35922206  0.37341505  0.12592880  1
  O  O412  1  0.36526025  0.36635260  0.62598919  1
  O  O413  1  0.36177221  0.88388842  0.11727090  1
  O  O414  1  0.36720471  0.86625988  0.62857712  1
  O  O415  1  0.87514289  0.36121004  0.11386246  1
  O  O416  1  0.87916301  0.37620861  0.61381183  1
  O  O417  1  0.85835008  0.88248907  0.13128104  1
  O  O418  1  0.86893745  0.88051218  0.60869759  1
  O  O419  1  0.12852691  0.13286716  0.37924547  1
  O  O420  1  0.12945396  0.12916699  0.88034283  1
  O  O421  1  0.12921466  0.63078443  0.37999030  1
  O  O422  1  0.12317329  0.62820655  0.88114515  1
  O  O423  1  0.62188659  0.14164112  0.37941637  1
  O  O424  1  0.62284566  0.13353765  0.88355892  1
  O  O425  1  0.63607877  0.63295077  0.37185636  1
  O  O426  1  0.61837715  0.62540211  0.88333319  1
