# generated using pymatgen
data_V85Zn86O256
_symmetry_space_group_name_H-M   'P 1'
_cell_length_a   17.00489819
_cell_length_b   17.00156908
_cell_length_c   16.99235932
_cell_angle_alpha   90.13749349
_cell_angle_beta   90.03749584
_cell_angle_gamma   89.91369852
_symmetry_Int_Tables_number   1
_chemical_formula_structural   V85Zn86O256
_chemical_formula_sum   'V85 Zn86 O256'
_cell_volume   4912.63941807
_cell_formula_units_Z   1
loop_
 _symmetry_equiv_pos_site_id
 _symmetry_equiv_pos_as_xyz
  1  'x, y, z'
loop_
 _atom_site_type_symbol
 _atom_site_label
 _atom_site_symmetry_multiplicity
 _atom_site_fract_x
 _atom_site_fract_y
 _atom_site_fract_z
 _atom_site_occupancy
  V  V0  1  0.22124091  0.61393329  0.86258080  1
  V  V1  1  0.74524929  0.24955175  0.49583185  1
  V  V2  1  0.12662902  0.61338155  0.51229823  1
  V  V3  1  0.38626070  0.51773539  0.88219492  1
  V  V4  1  0.12310331  0.86335101  0.75197212  1
  V  V5  1  0.87794125  0.13584941  0.74958073  1
  V  V6  1  0.05664090  0.30941463  0.68864173  1
  V  V7  1  0.00253258  0.37294706  0.87427202  1
  V  V8  1  0.24946936  0.87953005  0.12845925  1
  V  V9  1  0.49956807  0.62074399  0.62322083  1
  V  V10  1  0.24737959  0.74225326  0.00334544  1
  V  V11  1  -0.00079024  0.64087610  0.63605855  1
  V  V12  1  0.49993322  0.74889387  0.25360547  1
  V  V13  1  0.00927531  0.62702742  0.11922001  1
  V  V14  1  0.62065247  0.12141448  0.49496371  1
  V  V15  1  0.82328727  0.30925434  0.18205227  1
  V  V16  1  0.37656699  0.74862848  0.62476805  1
  V  V17  1  0.63759792  0.49022213  0.13532286  1
  V  V18  1  0.00177279  0.12627400  0.62786213  1
  V  V19  1  0.88256376  0.50063041  0.37956744  1
  V  V20  1  0.62534108  -0.00057142  0.12386307  1
  V  V21  1  0.01737110  0.50234200  0.00407133  1
  V  V22  1  -0.00124929  -0.00361977  0.00313721  1
  V  V23  1  0.62691274  0.62821714  0.49805392  1
  V  V24  1  0.86754111  0.87510246  0.00862331  1
  V  V25  1  0.62244149  0.88588050  0.74584463  1
  V  V26  1  0.38093435  0.87635612  0.50056107  1
  V  V27  1  0.87696486  0.62463787  0.25061488  1
  V  V28  1  -0.00419109  0.13348933  0.12562253  1
  V  V29  1  0.24228536  0.12121875  0.87622224  1
  V  V30  1  0.87871120  0.37263265  0.49428656  1
  V  V31  1  0.25052442  0.61663083  0.37529070  1
  V  V32  1  0.75533701  -0.00424289  0.25049174  1
  V  V33  1  0.75537334  0.25480215  0.00314613  1
  V  V34  1  0.12892310  0.25430316  0.36989022  1
  V  V35  1  0.75755423  0.63179941  0.38254649  1
  V  V36  1  0.37163693  0.87816545  0.00249597  1
  V  V37  1  0.61941675  0.12512737  0.00235877  1
  V  V38  1  0.86895067  0.87160261  0.51266413  1
  V  V39  1  -0.00888668  0.88114506  0.37514864  1
  V  V40  1  -0.00178467  0.50173481  0.51332579  1
  V  V41  1  0.50008470  0.11779551  0.62341403  1
  V  V42  1  0.12535494  0.75346026  0.37980340  1
  V  V43  1  0.86250197  0.75348452  0.12725136  1
  V  V44  1  0.50589353  0.88006005  0.38008064  1
  V  V45  1  0.12726725  0.00755312  0.13181424  1
  V  V46  1  0.87494226  0.12155808  0.25136777  1
  V  V47  1  0.11506504  0.24447437  0.87081450  1
  V  V48  1  -0.05090944  0.82280908  0.82244715  1
  V  V49  1  0.25160634  0.12002734  0.36061052  1
  V  V50  1  0.24941833  0.74764630  0.50314735  1
  V  V51  1  0.49678416  0.24910067  0.75288283  1
  V  V52  1  0.25005341  0.87184865  0.62353374  1
  V  V53  1  0.36779190  0.61881518  0.24745158  1
  V  V54  1  0.75099635  0.50041007  0.75360380  1
  V  V55  1  0.12966352  0.12561111  0.49768741  1
  V  V56  1  0.12170504  0.76099376  0.88628737  1
  V  V57  1  0.50558324  0.74926055  0.75779361  1
  V  V58  1  0.36295534  0.37679951  0.50856372  1
  V  V59  1  0.13188691  0.88095575  0.25404950  1
  V  V60  1  0.50596720  0.62341600  0.13175740  1
  V  V61  1  0.37229653  0.75100893  0.12874004  1
  V  V62  1  0.62618319  0.25308033  0.87752628  1
  V  V63  1  0.50574908  0.87524675  0.88139407  1
  V  V64  1  0.12601848  -0.00138549  0.62431191  1
  V  V65  1  0.63118417  0.87252929  0.24485032  1
  V  V66  1  0.37197441  0.00077401  0.87997342  1
  V  V67  1  0.25019855  -0.00736926  0.75035855  1
  V  V68  1  0.74884498  0.12820530  0.37197694  1
  V  V69  1  0.50493710  0.37816348  0.87944433  1
  V  V70  1  0.50129250  0.49232965  0.49539172  1
  V  V71  1  0.50889698  0.49993704  0.00656416  1
  V  V72  1  0.74398425  0.37316295  0.62418073  1
  V  V73  1  0.37606581  0.48863307  0.37180389  1
  V  V74  1  0.88002024  0.00312762  0.87548801  1
  V  V75  1  0.00290907  0.75408300  0.24882598  1
  V  V76  1  0.39244927  0.11899009  0.24341875  1
  V  V77  1  0.37571469  0.25295976  0.63015548  1
  V  V78  1  0.37202699  -0.00305547  0.37536553  1
  V  V79  1  0.87236081  0.37889971  0.00330270  1
  V  V80  1  0.63057511  0.75287298  0.38063538  1
  V  V81  1  -0.00944490  0.00430606  0.49507088  1
  V  V82  1  0.75080001  0.12621431  0.87456350  1
  V  V83  1  0.37527173  0.62526982  0.75332919  1
  V  V84  1  0.00429386  0.25846452  0.25246599  1
  Zn  Zn85  1  0.63507079  0.63362660  -0.00259388  1
  Zn  Zn86  1  0.23767323  0.38281968  0.65520676  1
  Zn  Zn87  1  0.75582472  0.75325357  0.53899430  1
  Zn  Zn88  1  0.24136355  0.40117983  0.15267678  1
  Zn  Zn89  1  0.73044824  0.76412984  -0.03605876  1
  Zn  Zn90  1  0.63159696  -0.00238816  0.61702146  1
  Zn  Zn91  1  0.50750626  0.26272224  0.27169430  1
  Zn  Zn92  1  0.11990585  0.12443571  -0.00049994  1
  Zn  Zn93  1  0.87447270  0.50092061  0.87698852  1
  Zn  Zn94  1  0.87799615  0.63204659  0.75016506  1
  Zn  Zn95  1  0.49095180  0.00685368  0.01162363  1
  Zn  Zn96  1  0.62635680  0.49936306  0.62346382  1
  Zn  Zn97  1  0.37551804  0.26176969  0.13250123  1
  Zn  Zn98  1  0.75511832  0.00144133  0.74306332  1
  Zn  Zn99  1  0.25457664  0.24427971  0.50455270  1
  Zn  Zn100  1  0.87411286  0.25301933  0.62525718  1
  Zn  Zn101  1  0.75193529  0.63406105  0.87543441  1
  Zn  Zn102  1  0.23442042  0.28042768  0.01487830  1
  Zn  Zn103  1  0.35548138  0.38500347  -0.00112113  1
  Zn  Zn104  1  0.75716068  0.48885199  0.25169744  1
  Zn  Zn105  1  0.61992731  0.37629160  0.74533301  1
  Zn  Zn106  1  0.37460497  0.12259044  0.75067352  1
  Zn  Zn107  1  0.18581040  0.22369396  0.17169279  1
  Zn  Zn108  1  0.19514138  0.18173910  0.68839643  1
  Zn  Zn109  1  0.17649879  0.56976213  0.19367234  1
  Zn  Zn110  1  0.18708324  0.56358204  0.69441101  1
  Zn  Zn111  1  0.68032262  0.18148404  0.18631374  1
  Zn  Zn112  1  0.68423395  0.18860056  0.68633996  1
  Zn  Zn113  1  0.68750128  0.68090058  0.19367060  1
  Zn  Zn114  1  0.67809296  0.68165619  0.69257854  1
  Zn  Zn115  1  0.32010037  0.30346140  0.31342278  1
  Zn  Zn116  1  0.31209034  0.30728987  0.85592561  1
  Zn  Zn117  1  0.31149654  0.80866759  0.31532652  1
  Zn  Zn118  1  0.31138343  0.80655160  0.81631584  1
  Zn  Zn119  1  0.68383406  0.30788278  0.30961212  1
  Zn  Zn120  1  0.81285754  0.31658802  0.81472829  1
  Zn  Zn121  1  0.81584494  0.81379209  0.31593142  1
  Zn  Zn122  1  0.78128811  0.78746696  0.75485978  1
  Zn  Zn123  1  0.17930546  0.43384192  0.32375854  1
  Zn  Zn124  1  0.20571117  0.43028728  0.85142057  1
  Zn  Zn125  1  0.18755719  0.94026741  0.43808015  1
  Zn  Zn126  1  0.18502025  0.93791201  0.94240415  1
  Zn  Zn127  1  0.69749129  0.44734539  0.44129488  1
  Zn  Zn128  1  0.68662137  0.44261204  0.94239615  1
  Zn  Zn129  1  0.69426620  0.94379893  0.43607275  1
  Zn  Zn130  1  0.68937812  0.94240106  0.93304361  1
  Zn  Zn131  1  0.29322444  0.09212661  0.07949608  1
  Zn  Zn132  1  0.31565268  0.05999627  0.56163897  1
  Zn  Zn133  1  0.30883488  0.56246140  0.05846392  1
  Zn  Zn134  1  0.31231332  0.55518492  0.56614720  1
  Zn  Zn135  1  0.80961265  0.06321317  0.06671903  1
  Zn  Zn136  1  0.81109030  0.06312538  0.56372396  1
  Zn  Zn137  1  0.81171464  0.56745636  0.06207309  1
  Zn  Zn138  1  0.81612403  0.56638399  0.57150449  1
  Zn  Zn139  1  0.42584184  0.43533779  0.17901825  1
  Zn  Zn140  1  0.38441116  0.40961770  0.73258642  1
  Zn  Zn141  1  0.44120859  0.93966882  0.19115116  1
  Zn  Zn142  1  0.43864711  0.93627912  0.68965963  1
  Zn  Zn143  1  0.99961448  0.46490319  0.21698007  1
  Zn  Zn144  1  0.92770196  0.44286320  0.68017052  1
  Zn  Zn145  1  0.93779660  0.94008015  0.18628721  1
  Zn  Zn146  1  0.93566338  0.94837847  0.68499096  1
  Zn  Zn147  1  0.06058518  0.06668832  0.31234933  1
  Zn  Zn148  1  0.05981727  0.05500885  0.80899518  1
  Zn  Zn149  1  0.05607396  0.57785309  0.32969862  1
  Zn  Zn150  1  0.05181205  0.57033301  0.82645699  1
  Zn  Zn151  1  0.56700843  0.05718765  0.31819528  1
  Zn  Zn152  1  0.55671988  0.06456476  0.81928527  1
  Zn  Zn153  1  0.55585390  0.44008535  0.30751776  1
  Zn  Zn154  1  0.57338343  0.56486220  0.81386511  1
  Zn  Zn155  1  0.43390906  0.18458613  0.44128845  1
  Zn  Zn156  1  0.44940746  0.21343760  0.97700512  1
  Zn  Zn157  1  0.43861174  0.68623673  0.43409063  1
  Zn  Zn158  1  0.44874103  0.69349810  0.94756500  1
  Zn  Zn159  1  0.93676814  0.19099252  0.43304626  1
  Zn  Zn160  1  0.93686435  0.18943369  0.94083052  1
  Zn  Zn161  1  0.94026645  0.69313977  0.44578708  1
  Zn  Zn162  1  0.92066323  0.68206885  0.94298286  1
  Zn  Zn163  1  0.06545291  0.31511317  0.06026007  1
  Zn  Zn164  1  0.09955712  0.35165424  0.50999049  1
  Zn  Zn165  1  0.05941077  0.81659667  0.06805338  1
  Zn  Zn166  1  0.06177055  0.81449464  0.56132899  1
  Zn  Zn167  1  0.56043778  0.31256148  0.08458236  1
  Zn  Zn168  1  0.56365810  0.31404404  0.45026160  1
  Zn  Zn169  1  0.56192982  0.81313401  0.06559839  1
  Zn  Zn170  1  0.56345885  0.80890973  0.56577686  1
  O  O171  1  0.11593557  0.12004905  0.12411366  1
  O  O172  1  0.12044254  0.12003400  0.61819221  1
  O  O173  1  0.10696611  0.63898859  0.13251915  1
  O  O174  1  0.11575402  0.62235074  0.62125055  1
  O  O175  1  0.62999907  0.11292801  0.11201164  1
  O  O176  1  0.61172985  0.12591729  0.61976785  1
  O  O177  1  0.61683873  0.61531880  0.13187873  1
  O  O178  1  0.61651611  0.62429087  0.61407090  1
  O  O179  1  0.36749984  0.38625504  0.38758768  1
  O  O180  1  0.39772574  0.40274534  0.86948415  1
  O  O181  1  0.38202960  0.87756611  0.38143412  1
  O  O182  1  0.37684485  0.88135289  0.88396519  1
  O  O183  1  0.87225105  0.38975028  0.39209810  1
  O  O184  1  0.88720211  0.37408446  0.88387647  1
  O  O185  1  0.88825205  0.87489103  0.38447104  1
  O  O186  1  0.88615221  0.88452354  0.87930424  1
  O  O187  1  0.26081141  0.00543673  0.37966115  1
  O  O188  1  0.25148413  -0.00301550  0.86585018  1
  O  O189  1  0.25638574  0.51218435  0.37868584  1
  O  O190  1  0.27443251  0.52542972  0.89188763  1
  O  O191  1  0.74830837  0.01444572  0.36166814  1
  O  O192  1  0.76281530  0.01120082  0.87268091  1
  O  O193  1  0.76547117  0.51432582  0.37370690  1
  O  O194  1  0.75165683  0.49154796  0.86025792  1
  O  O195  1  0.24153300  0.51022489  0.12700961  1
  O  O196  1  0.24770998  0.49475774  0.63163808  1
  O  O197  1  0.23330067  0.99753650  0.12111221  1
  O  O198  1  0.24619432  0.99176374  0.63078992  1
  O  O199  1  0.74143829  0.50571842  0.13280513  1
  O  O200  1  0.75088866  0.49178865  0.63362252  1
  O  O201  1  0.74020218  1.00195138  0.13919759  1
  O  O202  1  0.74366640  1.01003567  0.63210049  1
  O  O203  1  -0.00239806  0.35744770  0.24671076  1
  O  O204  1  -0.00173273  0.37303337  0.74653078  1
  O  O205  1  0.00439214  0.87315037  0.25827760  1
  O  O206  1  0.00464205  0.88492592  0.75853549  1
  O  O207  1  0.48770833  0.37463380  0.24835554  1
  O  O208  1  0.49927714  0.36547394  0.76011282  1
  O  O209  1  0.50966475  0.86808304  0.26004617  1
  O  O210  1  0.50194732  0.86950087  0.76102568  1
  O  O211  1  0.49242371  0.12081872  0.25974411  1
  O  O212  1  0.49762598  0.13050032  0.74490920  1
  O  O213  1  0.48750101  0.63294735  0.23998356  1
  O  O214  1  0.49973271  0.63311310  0.74214070  1
  O  O215  1  0.99114223  0.13072559  0.24463029  1
  O  O216  1  0.99379854  0.11805651  0.73530438  1
  O  O217  1  0.99249433  0.63734146  0.24831345  1
  O  O218  1  1.00163769  0.62219372  0.73891370  1
  O  O219  1  0.35418717  0.26786066  -0.03924973  1
  O  O220  1  0.37542523  0.25914768  0.51387875  1
  O  O221  1  0.36877282  0.75906511  0.00742458  1
  O  O222  1  0.36910321  0.75742305  0.50129451  1
  O  O223  1  0.86372968  0.25896017  -0.00218753  1
  O  O224  1  0.86662583  0.25715025  0.49851660  1
  O  O225  1  0.87852914  0.76195995  0.01420340  1
  O  O226  1  0.87265494  0.76705580  0.50230150  1
  O  O227  1  0.12766152  0.23521142  0.49358655  1
  O  O228  1  0.12257912  0.24107166  0.98132132  1
  O  O229  1  0.13383849  0.74538394  0.49860286  1
  O  O230  1  0.13642026  0.76905221  0.99747060  1
  O  O231  1  0.63957682  0.23887131  0.50206423  1
  O  O232  1  0.63927565  0.24256546  0.99928544  1
  O  O233  1  0.63546005  0.74713001  0.49921629  1
  O  O234  1  0.62860731  0.74937952  1.00728612  1
  O  O235  1  0.47787571  0.24251939  0.08680045  1
  O  O236  1  0.48784009  0.23691920  0.63983730  1
  O  O237  1  0.49230057  0.74495291  0.13412640  1
  O  O238  1  0.49426295  0.74004849  0.63186255  1
  O  O239  1  1.00601737  0.23760040  0.13028772  1
  O  O240  1  0.99925174  0.24771942  0.62893500  1
  O  O241  1  0.99184376  0.74853662  0.13445820  1
  O  O242  1  1.00704942  0.73898122  0.62606277  1
  O  O243  1  0.01379328  0.24045423  0.36462205  1
  O  O244  1  0.00528447  0.25401451  0.87335002  1
  O  O245  1  0.00519846  0.75946454  0.37164019  1
  O  O246  1  0.00085562  0.76067434  0.88690450  1
  O  O247  1  0.50078158  0.25025685  0.38468053  1
  O  O248  1  0.50860535  0.26188136  0.87703185  1
  O  O249  1  0.50897969  0.75754552  0.37167363  1
  O  O250  1  0.49262982  0.76366502  0.86865164  1
  O  O251  1  0.24241531  0.12261058  0.49654281  1
  O  O252  1  0.23933671  0.10899527  0.97873165  1
  O  O253  1  0.24424678  0.63017326  0.49867652  1
  O  O254  1  0.25204211  0.64100857  0.99015373  1
  O  O255  1  0.74791602  0.13167578  0.49051426  1
  O  O256  1  0.74877164  0.13191227  0.99011120  1
  O  O257  1  0.74750061  0.63060790  0.49934204  1
  O  O258  1  0.75583825  0.63815484  0.99725212  1
  O  O259  1  0.25000411  0.37460997  -0.05390228  1
  O  O260  1  0.26270209  0.37038871  0.51154892  1
  O  O261  1  0.26050435  0.87206826  0.00456433  1
  O  O262  1  0.25582429  0.86726708  0.50395552  1
  O  O263  1  0.75952302  0.36702025  -0.00421995  1
  O  O264  1  0.75681592  0.36743297  0.50447685  1
  O  O265  1  0.76471508  0.87769599  -0.00894749  1
  O  O266  1  0.76646906  0.87727411  0.49635762  1
  O  O267  1  0.10623810  0.50157807  0.26184351  1
  O  O268  1  0.15738065  0.53158786  0.80137568  1
  O  O269  1  0.11799430  0.99209395  0.24383222  1
  O  O270  1  0.13398554  0.98899525  0.74510768  1
  O  O271  1  0.63341967  0.49651750  0.23990264  1
  O  O272  1  0.63556390  0.49477115  0.74304124  1
  O  O273  1  0.63263802  0.99173861  0.24543891  1
  O  O274  1  0.61527358  0.99069892  0.75142673  1
  O  O275  1  0.38143707  0.00334982  0.26774944  1
  O  O276  1  0.36186911  -0.00783467  0.75723951  1
  O  O277  1  0.37755841  0.51284481  0.25880589  1
  O  O278  1  0.38603204  0.52135497  0.76186766  1
  O  O279  1  0.86669443  0.00736361  0.24730822  1
  O  O280  1  0.87569400  0.01325854  0.75953290  1
  O  O281  1  0.88983696  0.51072645  0.26274517  1
  O  O282  1  0.86082385  0.49862039  0.75220243  1
  O  O283  1  0.12933851  0.35531210  0.39551684  1
  O  O284  1  0.10707849  0.36191903  0.86232810  1
  O  O285  1  0.11793812  0.87253221  0.37232440  1
  O  O286  1  0.12629941  0.87037507  0.86874170  1
  O  O287  1  0.62895058  0.38169123  0.37950859  1
  O  O288  1  0.61666514  0.37403290  0.87500865  1
  O  O289  1  0.62103936  0.87304347  0.37231126  1
  O  O290  1  0.60902683  0.88436146  0.87007610  1
  O  O291  1  0.38700379  0.09688815  0.14637536  1
  O  O292  1  0.38353571  0.12853784  0.62705293  1
  O  O293  1  0.37840241  0.63069317  0.13344657  1
  O  O294  1  0.38099013  0.63058472  0.63280671  1
  O  O295  1  0.88350475  0.11980225  0.13684210  1
  O  O296  1  0.88514924  0.12995958  0.63121928  1
  O  O297  1  0.88372454  0.63289705  0.13633506  1
  O  O298  1  0.89256063  0.62839896  0.63106314  1
  O  O299  1  0.27521015  0.20673279  0.10322779  1
  O  O300  1  0.26516836  0.25101492  0.63163899  1
  O  O301  1  0.25875386  0.76404246  0.11594472  1
  O  O302  1  0.25900260  0.75498701  0.61159791  1
  O  O303  1  0.75849404  0.25155605  0.12299511  1
  O  O304  1  0.75241787  0.25505036  0.61659449  1
  O  O305  1  0.76411861  0.74738360  0.14044812  1
  O  O306  1  0.75237963  0.75229638  0.65083457  1
  O  O307  1  0.24603341  0.23490504  0.38070638  1
  O  O308  1  0.22552382  0.22844013  0.85219710  1
  O  O309  1  0.24777173  0.74240119  0.38817992  1
  O  O310  1  0.23760182  0.74470218  0.88213867  1
  O  O311  1  0.74771014  0.23771318  0.38046788  1
  O  O312  1  0.74504181  0.24640726  0.88315614  1
  O  O313  1  0.74852990  0.73927569  0.37394046  1
  O  O314  1  0.77022357  0.74901482  0.86044463  1
  O  O315  1  -0.00508621  0.11539133  0.01032043  1
  O  O316  1  0.00407856  0.12112420  0.50781511  1
  O  O317  1  -0.00784617  0.61089737  0.00718143  1
  O  O318  1  0.00835197  0.62478685  0.51276001  1
  O  O319  1  0.51738292  0.11943663  -0.01580200  1
  O  O320  1  0.50722988  0.12799145  0.51504097  1
  O  O321  1  0.50166628  0.61949747  0.01823873  1
  O  O322  1  0.50842924  0.62391547  0.50424217  1
  O  O323  1  0.49322021  0.39077064  0.50589586  1
  O  O324  1  0.50371966  0.39179600  0.99571168  1
  O  O325  1  0.49163488  0.86540557  0.49283129  1
  O  O326  1  0.48714311  0.87663117  0.99626196  1
  O  O327  1  0.99137388  0.38878075  0.50752835  1
  O  O328  1  0.99628084  0.38215833  0.99456858  1
  O  O329  1  0.99462469  0.88445766  0.49419283  1
  O  O330  1  0.98811452  0.89108519  1.00970798  1
  O  O331  1  0.48750921  0.50383869  0.38434371  1
  O  O332  1  0.50552677  0.50096917  0.88721214  1
  O  O333  1  0.49503069  0.98437783  0.37722780  1
  O  O334  1  0.48639546  0.99188229  0.87879822  1
  O  O335  1  0.98750350  0.51323162  0.39488424  1
  O  O336  1  0.99639524  0.49086081  0.88827145  1
  O  O337  1  1.00617392  0.99386898  0.38469571  1
  O  O338  1  0.98734825  1.00866073  0.88684027  1
  O  O339  1  0.00774015  0.00938636  0.12166798  1
  O  O340  1  0.00769516  0.00960224  0.61633791  1
  O  O341  1  0.00179733  0.51105154  0.11355192  1
  O  O342  1  -0.00223686  0.50992218  0.61719480  1
  O  O343  1  0.51908536  -0.00906956  0.12467519  1
  O  O344  1  0.49805294  0.01561064  0.63074378  1
  O  O345  1  0.50799657  0.50686882  0.12254317  1
  O  O346  1  0.50044347  0.51668332  0.61354219  1
  O  O347  1  0.24587852  0.36859998  0.26206118  1
  O  O348  1  0.27330310  0.37885995  0.76622348  1
  O  O349  1  0.23676313  0.86996464  0.25035002  1
  O  O350  1  0.24313347  0.87409154  0.74349462  1
  O  O351  1  0.76865063  0.36800609  0.24654489  1
  O  O352  1  0.74945671  0.38066048  0.74124336  1
  O  O353  1  0.74272559  0.88399373  0.26192712  1
  O  O354  1  0.72422651  0.88744464  0.76226647  1
  O  O355  1  0.26524598  0.12391083  0.26135338  1
  O  O356  1  0.25094333  0.10690218  0.75517625  1
  O  O357  1  0.25574956  0.62919666  0.26393208  1
  O  O358  1  0.26369662  0.63730684  0.76312642  1
  O  O359  1  0.75614407  0.12044131  0.25387845  1
  O  O360  1  0.75612066  0.12908773  0.76231868  1
  O  O361  1  0.76665884  0.62267314  0.26145642  1
  O  O362  1  0.75077164  0.60678383  0.74633913  1
  O  O363  1  0.36937005  0.11228140  0.37639319  1
  O  O364  1  0.36149962  0.10647871  0.87046566  1
  O  O365  1  0.36732731  0.61879591  0.36999378  1
  O  O366  1  0.39210514  0.62522913  0.87042361  1
  O  O367  1  0.86810900  0.13098776  0.35922810  1
  O  O368  1  0.87049529  0.12183062  0.86987083  1
  O  O369  1  0.87334405  0.62559520  0.37426107  1
  O  O370  1  0.87355313  0.61660778  0.86562359  1
  O  O371  1  0.16577022  0.32497799  0.10901068  1
  O  O372  1  0.12210129  0.35907099  0.62609310  1
  O  O373  1  0.12870848  0.88390155  0.13703495  1
  O  O374  1  0.12887019  0.87974748  0.63184540  1
  O  O375  1  0.62869808  0.39200120  0.11913286  1
  O  O376  1  0.64110632  0.37692073  0.62222746  1
  O  O377  1  0.62571487  0.87774085  0.14092085  1
  O  O378  1  0.60987913  0.88185251  0.64174391  1
  O  O379  1  0.11750667  0.23987405  0.26101184  1
  O  O380  1  0.11372811  0.24638105  0.74496767  1
  O  O381  1  0.10997338  0.76374169  0.26024184  1
  O  O382  1  0.11879629  0.76458677  0.76385252  1
  O  O383  1  0.61723578  0.25669821  0.23535906  1
  O  O384  1  0.61368851  0.25202685  0.75833093  1
  O  O385  1  0.62266926  0.75576071  0.25979005  1
  O  O386  1  0.60899900  0.76331484  0.74880159  1
  O  O387  1  0.38441653  0.23023060  0.24869508  1
  O  O388  1  0.38670103  0.24594855  0.75285899  1
  O  O389  1  0.37791119  0.74146904  0.24814835  1
  O  O390  1  0.38505966  0.74385523  0.74687356  1
  O  O391  1  0.88161716  0.24405172  0.23899926  1
  O  O392  1  0.87231110  0.23860262  0.75014341  1
  O  O393  1  0.88640532  0.74725098  0.24889583  1
  O  O394  1  0.89826112  0.76345695  0.76001849  1
  O  O395  1  0.38194672  0.49509051  0.49386324  1
  O  O396  1  0.39068339  0.50488624  0.99648638  1
  O  O397  1  0.37240757  0.98359308  0.49321141  1
  O  O398  1  0.37312755  0.99284823  0.99423207  1
  O  O399  1  0.87994553  0.49707097  0.49930221  1
  O  O400  1  0.87476836  0.48550493  1.00302214  1
  O  O401  1  0.88688783  0.99572815  0.50159755  1
  O  O402  1  0.87766202  0.99589807  0.99587490  1
  O  O403  1  0.11294166  -0.00028783  0.00964953  1
  O  O404  1  0.11728621  0.01027524  0.50427867  1
  O  O405  1  0.11167369  0.49985090  -0.00352979  1
  O  O406  1  0.11357491  0.51292303  0.49597829  1
  O  O407  1  0.62844598  0.00681416  0.00778806  1
  O  O408  1  0.62917759  0.01576894  0.49988373  1
  O  O409  1  0.62285862  0.50815496  0.01454871  1
  O  O410  1  0.61829424  0.51102928  0.50080213  1
  O  O411  1  0.35357126  0.37546639  0.11491481  1
  O  O412  1  0.37842686  0.36560877  0.62405233  1
  O  O413  1  0.37014839  0.87517511  0.12161104  1
  O  O414  1  0.37334678  0.86880838  0.61761770  1
  O  O415  1  0.87678724  0.36729098  0.12004048  1
  O  O416  1  0.86417851  0.37235323  0.61314535  1
  O  O417  1  0.87545482  0.86846093  0.11936419  1
  O  O418  1  0.88175492  0.88116025  0.61107616  1
  O  O419  1  0.13492853  0.12577218  0.38091038  1
  O  O420  1  0.12389168  0.12553309  0.87141794  1
  O  O421  1  0.13454987  0.63625443  0.38805793  1
  O  O422  1  0.11903242  0.64986867  0.88479948  1
  O  O423  1  0.63394917  0.12297561  0.38337046  1
  O  O424  1  0.63532694  0.13010797  0.87992543  1
  O  O425  1  0.63812773  0.63254081  0.39067484  1
  O  O426  1  0.63633562  0.62400926  0.88121456  1
